MODEL 1
REMARK VINA RESULT:      -9.4      0.000      0.000
REMARK  5 active torsions:
REMARK  status: ('A' for Active; 'I' for Inactive)
REMARK    1  A    between atoms: C17_25  and  O1_2 
REMARK    2  A    between atoms: C4_12  and  O1_2 
REMARK    3  A    between atoms: C1_9  and  C15_23 
REMARK    4  A    between atoms: C16_24  and  C2_10 
REMARK    5  A    between atoms: C12_20  and  C17_25 
ROOT
HETATM    1  O3  UNK     1      30.146  -4.438  32.275  1.00  0.00    -0.293 OA
HETATM    2  N1  UNK     1      28.404  -8.705  33.344  1.00  0.00    -0.362 N 
HETATM    3  C1  UNK     1      30.098  -6.587  34.178  1.00  0.00     0.104 C 
HETATM    4  C2  UNK     1      28.490  -6.855  30.049  1.00  0.00     0.056 C 
HETATM    5  C3  UNK     1      29.381  -6.610  32.830  1.00  0.00     0.024 C 
HETATM    6  C5  UNK     1      27.892  -7.741  31.148  1.00  0.00     0.069 C 
HETATM    7  C6  UNK     1      28.602  -7.651  32.472  1.00  0.00     0.021 C 
HETATM    8  C9  UNK     1      28.827  -5.458  30.570  1.00  0.00     0.095 C 
HETATM    9  C12 UNK     1      29.680  -7.742  35.089  1.00  0.00     0.052 C 
HETATM   10  C13 UNK     1      29.518  -5.436  31.918  1.00  0.00     0.159 C 
HETATM   11  C14 UNK     1      28.890  -8.745  34.641  1.00  0.00     0.018 C 
HETATM   12  C18 UNK     1      28.469  -9.943  35.447  1.00  0.00     0.069 C 
HETATM   13  H16 UNK     1      27.808  -9.466  33.041  1.00  0.00     0.165 HD
ENDROOT
BRANCH   3  14
HETATM   14  C15 UNK     1      31.589  -6.599  33.980  1.00  0.00     0.029 A 
HETATM   15  C19 UNK     1      32.185  -7.667  33.139  1.00  0.00     0.194 A 
HETATM   16  O6  UNK     1      31.502  -8.532  32.606  1.00  0.00    -0.287 OA
HETATM   17  C22 UNK     1      33.650  -7.631  32.978  1.00  0.00     0.050 A 
HETATM   18  C26 UNK     1      34.306  -8.593  32.205  1.00  0.00     0.042 A 
HETATM   19  C24 UNK     1      34.378  -6.622  33.609  1.00  0.00     0.089 A 
HETATM   20  C28 UNK     1      35.693  -8.538  32.068  1.00  0.00     0.035 A 
HETATM   21 Cl1  UNK     1      36.511  -9.719  31.118  1.00  0.00    -0.084 Cl
HETATM   22  C29 UNK     1      36.422  -7.528  32.698  1.00  0.00     0.026 A 
HETATM   23  C27 UNK     1      35.765  -6.569  33.469  1.00  0.00     0.040 A 
HETATM   24  O4  UNK     1      33.787  -5.652  34.378  1.00  0.00    -0.321 OA
HETATM   25  C20 UNK     1      32.422  -5.698  34.519  1.00  0.00     0.154 A 
ENDBRANCH   3  14
BRANCH   9  26
HETATM   26  C17 UNK     1      30.132  -7.678  36.490  1.00  0.00     0.292 C 
HETATM   27  O5  UNK     1      31.026  -8.372  36.935  1.00  0.00    -0.259 OA
BRANCH  26  28
HETATM   28  O1  UNK     1      29.391  -6.745  37.135  1.00  0.00    -0.312 OA
BRANCH  28  29
HETATM   29  C4  UNK     1      30.002  -6.184  38.292  1.00  0.00     0.132 C 
HETATM   30  C7  UNK     1      28.958  -5.427  39.118  1.00  0.00     0.032 C 
HETATM   31  C10 UNK     1      29.371  -3.957  39.073  1.00  0.00     0.002 C 
HETATM   32  C11 UNK     1      30.280  -3.841  37.861  1.00  0.00     0.002 C 
HETATM   33  C8  UNK     1      31.050  -5.154  37.883  1.00  0.00     0.032 C 
ENDBRANCH  28  29
ENDBRANCH  26  28
ENDBRANCH   9  26
BRANCH   4  34
HETATM   34  C16 UNK     1      29.632  -7.552  29.305  1.00  0.00     0.057 A 
HETATM   35  O2  UNK     1      29.347  -8.779  28.811  1.00  0.00    -0.327 OA
HETATM   36  C25 UNK     1      30.481  -9.211  28.198  1.00  0.00     0.142 A 
HETATM   37  C23 UNK     1      31.475  -8.267  28.303  1.00  0.00     0.027 A 
HETATM   38  C21 UNK     1      30.917  -7.186  29.026  1.00  0.00     0.035 A 
ENDBRANCH   4  34
TORSDOF 5
ENDMDL
MODEL 2
REMARK VINA RESULT:      -9.4      3.010      6.431
REMARK  5 active torsions:
REMARK  status: ('A' for Active; 'I' for Inactive)
REMARK    1  A    between atoms: C17_25  and  O1_2 
REMARK    2  A    between atoms: C4_12  and  O1_2 
REMARK    3  A    between atoms: C1_9  and  C15_23 
REMARK    4  A    between atoms: C16_24  and  C2_10 
REMARK    5  A    between atoms: C12_20  and  C17_25 
ROOT
HETATM    1  O3  UNK     1      32.215  -9.075  36.567  1.00  0.00    -0.293 OA
HETATM    2  N1  UNK     1      31.489  -4.861  38.592  1.00  0.00    -0.362 N 
HETATM    3  C1  UNK     1      30.272  -7.145  37.429  1.00  0.00     0.104 C 
HETATM    4  C2  UNK     1      34.626  -6.347  37.094  1.00  0.00     0.056 C 
HETATM    5  C3  UNK     1      31.783  -6.938  37.492  1.00  0.00     0.024 C 
HETATM    6  C5  UNK     1      33.791  -5.553  38.108  1.00  0.00     0.069 C 
HETATM    7  C6  UNK     1      32.312  -5.824  38.039  1.00  0.00     0.021 C 
HETATM    8  C9  UNK     1      34.184  -7.808  37.019  1.00  0.00     0.095 C 
HETATM    9  C12 UNK     1      29.496  -6.075  38.196  1.00  0.00     0.052 C 
HETATM   10  C13 UNK     1      32.683  -8.013  36.977  1.00  0.00     0.159 C 
HETATM   11  C14 UNK     1      30.115  -4.988  38.713  1.00  0.00     0.018 C 
HETATM   12  C18 UNK     1      29.429  -3.862  39.439  1.00  0.00     0.069 C 
HETATM   13  H16 UNK     1      31.924  -4.041  38.997  1.00  0.00     0.165 HD
ENDROOT
BRANCH   3  14
HETATM   14  C15 UNK     1      29.809  -7.192  35.998  1.00  0.00     0.029 A 
HETATM   15  C19 UNK     1      30.233  -6.107  35.078  1.00  0.00     0.194 A 
HETATM   16  O6  UNK     1      30.942  -5.181  35.449  1.00  0.00    -0.287 OA
HETATM   17  C22 UNK     1      29.751  -6.202  33.688  1.00  0.00     0.050 A 
HETATM   18  C26 UNK     1      30.095  -5.229  32.746  1.00  0.00     0.042 A 
HETATM   19  C24 UNK     1      28.944  -7.280  33.322  1.00  0.00     0.089 A 
HETATM   20  C28 UNK     1      29.627  -5.341  31.437  1.00  0.00     0.035 A 
HETATM   21 Cl1  UNK     1      30.044  -4.148  30.269  1.00  0.00    -0.084 Cl
HETATM   22  C29 UNK     1      28.820  -6.420  31.070  1.00  0.00     0.026 A 
HETATM   23  C27 UNK     1      28.477  -7.390  32.012  1.00  0.00     0.040 A 
HETATM   24  O4  UNK     1      28.576  -8.264  34.204  1.00  0.00    -0.321 OA
HETATM   25  C20 UNK     1      29.032  -8.161  35.495  1.00  0.00     0.154 A 
ENDBRANCH   3  14
BRANCH   9  26
HETATM   26  C17 UNK     1      28.056  -6.313  38.394  1.00  0.00     0.292 C 
HETATM   27  O5  UNK     1      27.190  -5.679  37.823  1.00  0.00    -0.259 OA
BRANCH  26  28
HETATM   28  O1  UNK     1      27.910  -7.321  39.287  1.00  0.00    -0.312 OA
BRANCH  28  29
HETATM   29  C4  UNK     1      27.498  -8.566  38.729  1.00  0.00     0.132 C 
HETATM   30  C7  UNK     1      26.190  -9.022  39.382  1.00  0.00     0.032 C 
HETATM   31  C10 UNK     1      26.526 -10.301  40.148  1.00  0.00     0.002 C 
HETATM   32  C11 UNK     1      28.032 -10.258  40.342  1.00  0.00     0.002 C 
HETATM   33  C8  UNK     1      28.529  -9.645  39.041  1.00  0.00     0.032 C 
ENDBRANCH  28  29
ENDBRANCH  26  28
ENDBRANCH   9  26
BRANCH   4  34
HETATM   34  C16 UNK     1      34.720  -5.636  35.742  1.00  0.00     0.057 A 
HETATM   35  O2  UNK     1      34.321  -4.343  35.730  1.00  0.00    -0.327 OA
HETATM   36  C25 UNK     1      34.484  -3.911  34.452  1.00  0.00     0.142 A 
HETATM   37  C23 UNK     1      34.980  -4.920  33.661  1.00  0.00     0.027 A 
HETATM   38  C21 UNK     1      35.133  -6.044  34.507  1.00  0.00     0.035 A 
ENDBRANCH   4  34
TORSDOF 5
ENDMDL
MODEL 3
REMARK VINA RESULT:      -9.2      1.586      6.457
REMARK  5 active torsions:
REMARK  status: ('A' for Active; 'I' for Inactive)
REMARK    1  A    between atoms: C17_25  and  O1_2 
REMARK    2  A    between atoms: C4_12  and  O1_2 
REMARK    3  A    between atoms: C1_9  and  C15_23 
REMARK    4  A    between atoms: C16_24  and  C2_10 
REMARK    5  A    between atoms: C12_20  and  C17_25 
ROOT
HETATM    1  O3  UNK     1      30.907  -9.886  35.593  1.00  0.00    -0.293 OA
HETATM    2  N1  UNK     1      28.712  -6.243  33.520  1.00  0.00    -0.362 N 
HETATM    3  C1  UNK     1      30.784  -8.169  33.296  1.00  0.00     0.104 C 
HETATM    4  C2  UNK     1      28.657  -7.407  37.117  1.00  0.00     0.056 C 
HETATM    5  C3  UNK     1      29.911  -8.013  34.538  1.00  0.00     0.024 C 
HETATM    6  C5  UNK     1      28.077  -6.853  35.809  1.00  0.00     0.069 C 
HETATM    7  C6  UNK     1      28.951  -7.068  34.603  1.00  0.00     0.021 C 
HETATM    8  C9  UNK     1      29.254  -8.800  36.925  1.00  0.00     0.095 C 
HETATM    9  C12 UNK     1      30.320  -7.289  32.134  1.00  0.00     0.052 C 
HETATM   10  C13 UNK     1      30.102  -8.958  35.680  1.00  0.00     0.159 C 
HETATM   11  C14 UNK     1      29.344  -6.366  32.293  1.00  0.00     0.018 C 
HETATM   12  C18 UNK     1      28.857  -5.426  31.225  1.00  0.00     0.069 C 
HETATM   13  H16 UNK     1      27.979  -5.549  33.605  1.00  0.00     0.165 HD
ENDROOT
BRANCH   3  14
HETATM   14  C15 UNK     1      32.222  -7.872  33.625  1.00  0.00     0.029 A 
HETATM   15  C19 UNK     1      33.267  -8.819  33.160  1.00  0.00     0.194 A 
HETATM   16  O6  UNK     1      32.992  -9.828  32.522  1.00  0.00    -0.287 OA
HETATM   17  C22 UNK     1      34.658  -8.481  33.509  1.00  0.00     0.050 A 
HETATM   18  C26 UNK     1      35.713  -9.310  33.117  1.00  0.00     0.042 A 
HETATM   19  C24 UNK     1      34.912  -7.319  34.238  1.00  0.00     0.089 A 
HETATM   20  C28 UNK     1      37.022  -8.968  33.459  1.00  0.00     0.035 A 
HETATM   21 Cl1  UNK     1      38.329  -9.982  32.981  1.00  0.00    -0.084 Cl
HETATM   22  C29 UNK     1      37.276  -7.805  34.188  1.00  0.00     0.026 A 
HETATM   23  C27 UNK     1      36.222  -6.980  34.579  1.00  0.00     0.040 A 
HETATM   24  O4  UNK     1      33.916  -6.469  34.648  1.00  0.00    -0.321 OA
HETATM   25  C20 UNK     1      32.625  -6.798  34.316  1.00  0.00     0.154 A 
ENDBRANCH   3  14
BRANCH   9  26
HETATM   26  C17 UNK     1      30.946  -7.537  30.824  1.00  0.00     0.292 C 
HETATM   27  O5  UNK     1      31.800  -6.815  30.345  1.00  0.00    -0.259 OA
BRANCH  26  28
HETATM   28  O1  UNK     1      30.406  -8.663  30.300  1.00  0.00    -0.312 OA
BRANCH  28  29
HETATM   29  C4  UNK     1      29.633  -8.469  29.120  1.00  0.00     0.132 C 
HETATM   30  C7  UNK     1      28.148  -8.681  29.429  1.00  0.00     0.032 C 
HETATM   31  C10 UNK     1      27.725  -9.915  28.634  1.00  0.00     0.002 C 
HETATM   32  C11 UNK     1      29.019 -10.648  28.327  1.00  0.00     0.002 C 
HETATM   33  C8  UNK     1      30.004  -9.515  28.073  1.00  0.00     0.032 C 
ENDBRANCH  28  29
ENDBRANCH  26  28
ENDBRANCH   9  26
BRANCH   4  34
HETATM   34  C16 UNK     1      29.584  -6.403  37.806  1.00  0.00     0.057 A 
HETATM   35  O2  UNK     1      29.011  -5.236  38.181  1.00  0.00    -0.327 OA
HETATM   36  C25 UNK     1      29.996  -4.502  38.764  1.00  0.00     0.142 A 
HETATM   37  C23 UNK     1      31.183  -5.198  38.759  1.00  0.00     0.027 A 
HETATM   38  C21 UNK     1      30.909  -6.438  38.133  1.00  0.00     0.035 A 
ENDBRANCH   4  34
TORSDOF 5
ENDMDL
MODEL 4
REMARK VINA RESULT:      -8.9      2.973      6.013
REMARK  5 active torsions:
REMARK  status: ('A' for Active; 'I' for Inactive)
REMARK    1  A    between atoms: C17_25  and  O1_2 
REMARK    2  A    between atoms: C4_12  and  O1_2 
REMARK    3  A    between atoms: C1_9  and  C15_23 
REMARK    4  A    between atoms: C16_24  and  C2_10 
REMARK    5  A    between atoms: C12_20  and  C17_25 
ROOT
HETATM    1  O3  UNK     1      31.081 -11.703  30.818  1.00  0.00    -0.293 OA
HETATM    2  N1  UNK     1      32.955  -7.784  28.943  1.00  0.00    -0.362 N 
HETATM    3  C1  UNK     1      33.234  -9.807  30.913  1.00  0.00     0.104 C 
HETATM    4  C2  UNK     1      29.472  -9.219  28.633  1.00  0.00     0.056 C 
HETATM    5  C3  UNK     1      32.027  -9.697  29.986  1.00  0.00     0.024 C 
HETATM    6  C5  UNK     1      30.757  -8.531  28.155  1.00  0.00     0.069 C 
HETATM    7  C6  UNK     1      31.933  -8.704  29.078  1.00  0.00     0.021 C 
HETATM    8  C9  UNK     1      29.747 -10.626  29.160  1.00  0.00     0.095 C 
HETATM    9  C12 UNK     1      34.343  -8.814  30.561  1.00  0.00     0.052 C 
HETATM   10  C13 UNK     1      30.959 -10.737  30.063  1.00  0.00     0.159 C 
HETATM   11  C14 UNK     1      34.157  -7.848  29.632  1.00  0.00     0.018 C 
HETATM   12  C18 UNK     1      35.167  -6.800  29.255  1.00  0.00     0.069 C 
HETATM   13  H16 UNK     1      32.850  -7.056  28.247  1.00  0.00     0.165 HD
ENDROOT
BRANCH   3  14
HETATM   14  C15 UNK     1      32.814  -9.624  32.346  1.00  0.00     0.029 A 
HETATM   15  C19 UNK     1      32.201  -8.332  32.747  1.00  0.00     0.194 A 
HETATM   16  O6  UNK     1      32.031  -7.419  31.950  1.00  0.00    -0.287 OA
HETATM   17  C22 UNK     1      31.807  -8.207  34.162  1.00  0.00     0.050 A 
HETATM   18  C26 UNK     1      31.223  -7.030  34.637  1.00  0.00     0.042 A 
HETATM   19  C24 UNK     1      32.025  -9.281  35.025  1.00  0.00     0.089 A 
HETATM   20  C28 UNK     1      30.858  -6.935  35.981  1.00  0.00     0.035 A 
HETATM   21 Cl1  UNK     1      30.137  -5.490  36.576  1.00  0.00    -0.084 Cl
HETATM   22  C29 UNK     1      31.076  -8.010  36.845  1.00  0.00     0.026 A 
HETATM   23  C27 UNK     1      31.660  -9.183  36.368  1.00  0.00     0.040 A 
HETATM   24  O4  UNK     1      32.594 -10.459  34.613  1.00  0.00    -0.321 OA
HETATM   25  C20 UNK     1      32.956 -10.561  33.293  1.00  0.00     0.154 A 
ENDBRANCH   3  14
BRANCH   9  26
HETATM   26  C17 UNK     1      35.637  -8.995  31.241  1.00  0.00     0.292 C 
HETATM   27  O5  UNK     1      36.626  -9.434  30.687  1.00  0.00    -0.259 OA
BRANCH  26  28
HETATM   28  O1  UNK     1      35.502  -8.596  32.528  1.00  0.00    -0.312 OA
BRANCH  28  29
HETATM   29  C4  UNK     1      36.268  -7.450  32.888  1.00  0.00     0.132 C 
HETATM   30  C7  UNK     1      36.892  -7.655  34.272  1.00  0.00     0.032 C 
HETATM   31  C10 UNK     1      36.245  -6.612  35.183  1.00  0.00     0.002 C 
HETATM   32  C11 UNK     1      34.962  -6.214  34.474  1.00  0.00     0.002 C 
HETATM   33  C8  UNK     1      35.361  -6.230  33.005  1.00  0.00     0.032 C 
ENDBRANCH  28  29
ENDBRANCH  26  28
ENDBRANCH   9  26
BRANCH   4  34
HETATM   34  C16 UNK     1      28.659  -8.329  29.577  1.00  0.00     0.057 A 
HETATM   35  O2  UNK     1      29.023  -7.027  29.615  1.00  0.00    -0.327 OA
HETATM   36  C25 UNK     1      28.186  -6.427  30.502  1.00  0.00     0.142 A 
HETATM   37  C23 UNK     1      27.300  -7.342  31.022  1.00  0.00     0.027 A 
HETATM   38  C21 UNK     1      27.612  -8.582  30.415  1.00  0.00     0.035 A 
ENDBRANCH   4  34
TORSDOF 5
ENDMDL
MODEL 5
REMARK VINA RESULT:      -8.9      2.922      6.991
REMARK  5 active torsions:
REMARK  status: ('A' for Active; 'I' for Inactive)
REMARK    1  A    between atoms: C17_25  and  O1_2 
REMARK    2  A    between atoms: C4_12  and  O1_2 
REMARK    3  A    between atoms: C1_9  and  C15_23 
REMARK    4  A    between atoms: C16_24  and  C2_10 
REMARK    5  A    between atoms: C12_20  and  C17_25 
ROOT
HETATM    1  O3  UNK     1      28.469  -6.645  34.979  1.00  0.00    -0.293 OA
HETATM    2  N1  UNK     1      32.061  -6.289  38.037  1.00  0.00    -0.362 N 
HETATM    3  C1  UNK     1      31.311  -6.800  35.348  1.00  0.00     0.104 C 
HETATM    4  C2  UNK     1      28.353  -6.682  38.656  1.00  0.00     0.056 C 
HETATM    5  C3  UNK     1      30.305  -6.569  36.473  1.00  0.00     0.024 C 
HETATM    6  C5  UNK     1      29.768  -6.140  38.893  1.00  0.00     0.069 C 
HETATM    7  C6  UNK     1      30.713  -6.349  37.740  1.00  0.00     0.021 C 
HETATM    8  C9  UNK     1      27.841  -6.335  37.259  1.00  0.00     0.095 C 
HETATM    9  C12 UNK     1      32.757  -6.568  35.792  1.00  0.00     0.052 C 
HETATM   10  C13 UNK     1      28.848  -6.544  36.146  1.00  0.00     0.159 C 
HETATM   11  C14 UNK     1      33.071  -6.353  37.090  1.00  0.00     0.018 C 
HETATM   12  C18 UNK     1      34.464  -6.164  37.625  1.00  0.00     0.069 C 
HETATM   13  H16 UNK     1      32.328  -6.117  38.999  1.00  0.00     0.165 HD
ENDROOT
BRANCH   3  14
HETATM   14  C15 UNK     1      31.160  -8.187  34.785  1.00  0.00     0.029 A 
HETATM   15  C19 UNK     1      30.879  -8.337  33.335  1.00  0.00     0.194 A 
HETATM   16  O6  UNK     1      30.767  -7.372  32.591  1.00  0.00    -0.287 OA
HETATM   17  C22 UNK     1      30.741  -9.718  32.836  1.00  0.00     0.050 A 
HETATM   18  C26 UNK     1      30.475  -9.964  31.486  1.00  0.00     0.042 A 
HETATM   19  C24 UNK     1      30.878 -10.780  33.731  1.00  0.00     0.089 A 
HETATM   20  C28 UNK     1      30.349 -11.280  31.038  1.00  0.00     0.035 A 
HETATM   21 Cl1  UNK     1      30.022 -11.594  29.378  1.00  0.00    -0.084 Cl
HETATM   22  C29 UNK     1      30.487 -12.343  31.933  1.00  0.00     0.026 A 
HETATM   23  C27 UNK     1      30.751 -12.094  33.279  1.00  0.00     0.040 A 
HETATM   24  O4  UNK     1      31.139 -10.596  35.065  1.00  0.00    -0.321 OA
HETATM   25  C20 UNK     1      31.265  -9.305  35.515  1.00  0.00     0.154 A 
ENDBRANCH   3  14
BRANCH   9  26
HETATM   26  C17 UNK     1      33.778  -6.535  34.731  1.00  0.00     0.292 C 
HETATM   27  O5  UNK     1      33.969  -5.568  34.018  1.00  0.00    -0.259 OA
BRANCH  26  28
HETATM   28  O1  UNK     1      34.419  -7.728  34.719  1.00  0.00    -0.312 OA
BRANCH  28  29
HETATM   29  C4  UNK     1      34.614  -8.295  33.427  1.00  0.00     0.132 C 
HETATM   30  C7  UNK     1      34.444  -9.816  33.494  1.00  0.00     0.032 C 
HETATM   31  C10 UNK     1      35.814 -10.408  33.167  1.00  0.00     0.002 C 
HETATM   32  C11 UNK     1      36.800  -9.282  33.427  1.00  0.00     0.002 C 
HETATM   33  C8  UNK     1      36.044  -8.047  32.958  1.00  0.00     0.032 C 
ENDBRANCH  28  29
ENDBRANCH  26  28
ENDBRANCH   9  26
BRANCH   4  34
HETATM   34  C16 UNK     1      28.233  -8.161  39.032  1.00  0.00     0.057 A 
HETATM   35  O2  UNK     1      27.165  -8.488  39.796  1.00  0.00    -0.327 OA
HETATM   36  C25 UNK     1      27.251  -9.827  40.010  1.00  0.00     0.142 A 
HETATM   37  C23 UNK     1      28.362 -10.345  39.388  1.00  0.00     0.027 A 
HETATM   38  C21 UNK     1      29.000  -9.254  38.750  1.00  0.00     0.035 A 
ENDBRANCH   4  34
TORSDOF 5
ENDMDL
MODEL 6
REMARK VINA RESULT:      -8.9      3.041      5.621
REMARK  5 active torsions:
REMARK  status: ('A' for Active; 'I' for Inactive)
REMARK    1  A    between atoms: C17_25  and  O1_2 
REMARK    2  A    between atoms: C4_12  and  O1_2 
REMARK    3  A    between atoms: C1_9  and  C15_23 
REMARK    4  A    between atoms: C16_24  and  C2_10 
REMARK    5  A    between atoms: C12_20  and  C17_25 
ROOT
HETATM    1  O3  UNK     1      33.374 -10.422  34.187  1.00  0.00    -0.293 OA
HETATM    2  N1  UNK     1      34.680  -6.015  33.064  1.00  0.00    -0.362 N 
HETATM    3  C1  UNK     1      33.436  -7.670  35.004  1.00  0.00     0.104 C 
HETATM    4  C2  UNK     1      34.322  -9.089  30.892  1.00  0.00     0.056 C 
HETATM    5  C3  UNK     1      33.921  -8.180  33.650  1.00  0.00     0.024 C 
HETATM    6  C5  UNK     1      34.963  -7.789  31.394  1.00  0.00     0.069 C 
HETATM    7  C6  UNK     1      34.489  -7.348  32.753  1.00  0.00     0.021 C 
HETATM    8  C9  UNK     1      34.260 -10.149  31.990  1.00  0.00     0.095 C 
HETATM    9  C12 UNK     1      33.835  -6.217  35.265  1.00  0.00     0.052 C 
HETATM   10  C13 UNK     1      33.799  -9.636  33.339  1.00  0.00     0.159 C 
HETATM   11  C14 UNK     1      34.403  -5.457  34.301  1.00  0.00     0.018 C 
HETATM   12  C18 UNK     1      34.784  -4.009  34.450  1.00  0.00     0.069 C 
HETATM   13  H16 UNK     1      35.114  -5.423  32.366  1.00  0.00     0.165 HD
ENDROOT
BRANCH   3  14
HETATM   14  C15 UNK     1      31.944  -7.825  35.120  1.00  0.00     0.029 A 
HETATM   15  C19 UNK     1      31.395  -8.559  36.287  1.00  0.00     0.194 A 
HETATM   16  O6  UNK     1      32.116  -9.039  37.151  1.00  0.00    -0.287 OA
HETATM   17  C22 UNK     1      29.927  -8.680  36.351  1.00  0.00     0.050 A 
HETATM   18  C26 UNK     1      29.313  -9.354  37.411  1.00  0.00     0.042 A 
HETATM   19  C24 UNK     1      29.154  -8.113  35.338  1.00  0.00     0.089 A 
HETATM   20  C28 UNK     1      27.922  -9.455  37.450  1.00  0.00     0.035 A 
HETATM   21 Cl1  UNK     1      27.156 -10.282  38.751  1.00  0.00    -0.084 Cl
HETATM   22  C29 UNK     1      27.148  -8.887  36.436  1.00  0.00     0.026 A 
HETATM   23  C27 UNK     1      27.763  -8.216  35.379  1.00  0.00     0.040 A 
HETATM   24  O4  UNK     1      29.702  -7.441  34.275  1.00  0.00    -0.321 OA
HETATM   25  C20 UNK     1      31.071  -7.336  34.229  1.00  0.00     0.154 A 
ENDBRANCH   3  14
BRANCH   9  26
HETATM   26  C17 UNK     1      33.622  -5.706  36.630  1.00  0.00     0.292 C 
HETATM   27  O5  UNK     1      34.377  -5.938  37.555  1.00  0.00    -0.259 OA
BRANCH  26  28
HETATM   28  O1  UNK     1      32.485  -4.971  36.637  1.00  0.00    -0.312 OA
BRANCH  28  29
HETATM   29  C4  UNK     1      31.933  -4.726  37.928  1.00  0.00     0.132 C 
HETATM   30  C7  UNK     1      31.524  -6.050  38.580  1.00  0.00     0.032 C 
HETATM   31  C10 UNK     1      30.003  -6.000  38.715  1.00  0.00     0.002 C 
HETATM   32  C11 UNK     1      29.554  -4.946  37.717  1.00  0.00     0.002 C 
HETATM   33  C8  UNK     1      30.656  -3.900  37.802  1.00  0.00     0.032 C 
ENDBRANCH  28  29
ENDBRANCH  26  28
ENDBRANCH   9  26
BRANCH   4  34
HETATM   34  C16 UNK     1      32.995  -8.835  30.172  1.00  0.00     0.057 A 
HETATM   35  O2  UNK     1      32.935  -9.254  28.887  1.00  0.00    -0.327 OA
HETATM   36  C25 UNK     1      31.689  -8.936  28.445  1.00  0.00     0.142 A 
HETATM   37  C23 UNK     1      30.967  -8.321  29.440  1.00  0.00     0.027 A 
HETATM   38  C21 UNK     1      31.822  -8.258  30.566  1.00  0.00     0.035 A 
ENDBRANCH   4  34
TORSDOF 5
ENDMDL
MODEL 7
REMARK VINA RESULT:      -8.8      3.168      5.742
REMARK  5 active torsions:
REMARK  status: ('A' for Active; 'I' for Inactive)
REMARK    1  A    between atoms: C17_25  and  O1_2 
REMARK    2  A    between atoms: C4_12  and  O1_2 
REMARK    3  A    between atoms: C1_9  and  C15_23 
REMARK    4  A    between atoms: C16_24  and  C2_10 
REMARK    5  A    between atoms: C12_20  and  C17_25 
ROOT
HETATM    1  O3  UNK     1      32.240 -11.459  34.182  1.00  0.00    -0.293 OA
HETATM    2  N1  UNK     1      34.601  -8.316  31.549  1.00  0.00    -0.362 N 
HETATM    3  C1  UNK     1      33.438  -8.852  34.081  1.00  0.00     0.104 C 
HETATM    4  C2  UNK     1      32.667 -11.400  30.528  1.00  0.00     0.056 C 
HETATM    5  C3  UNK     1      33.344  -9.806  32.893  1.00  0.00     0.024 C 
HETATM    6  C5  UNK     1      33.816 -10.385  30.491  1.00  0.00     0.069 C 
HETATM    7  C6  UNK     1      33.898  -9.496  31.703  1.00  0.00     0.021 C 
HETATM    8  C9  UNK     1      32.547 -12.068  31.897  1.00  0.00     0.095 C 
HETATM    9  C12 UNK     1      34.356  -7.659  33.809  1.00  0.00     0.052 C 
HETATM   10  C13 UNK     1      32.662 -11.123  33.075  1.00  0.00     0.159 C 
HETATM   11  C14 UNK     1      34.868  -7.428  32.579  1.00  0.00     0.018 C 
HETATM   12  C18 UNK     1      35.737  -6.258  32.206  1.00  0.00     0.069 C 
HETATM   13  H16 UNK     1      35.006  -8.121  30.641  1.00  0.00     0.165 HD
ENDROOT
BRANCH   3  14
HETATM   14  C15 UNK     1      32.069  -8.370  34.476  1.00  0.00     0.029 A 
HETATM   15  C19 UNK     1      31.638  -8.535  35.888  1.00  0.00     0.194 A 
HETATM   16  O6  UNK     1      32.360  -9.049  36.732  1.00  0.00    -0.287 OA
HETATM   17  C22 UNK     1      30.288  -8.045  36.221  1.00  0.00     0.050 A 
HETATM   18  C26 UNK     1      29.791  -8.155  37.523  1.00  0.00     0.042 A 
HETATM   19  C24 UNK     1      29.509  -7.468  35.218  1.00  0.00     0.089 A 
HETATM   20  C28 UNK     1      28.511  -7.684  37.813  1.00  0.00     0.035 A 
HETATM   21 Cl1  UNK     1      27.889  -7.814  39.413  1.00  0.00    -0.084 Cl
HETATM   22  C29 UNK     1      27.731  -7.106  36.810  1.00  0.00     0.026 A 
HETATM   23  C27 UNK     1      28.228  -6.998  35.512  1.00  0.00     0.040 A 
HETATM   24  O4  UNK     1      29.946  -7.334  33.925  1.00  0.00    -0.321 OA
HETATM   25  C20 UNK     1      31.205  -7.795  33.629  1.00  0.00     0.154 A 
ENDBRANCH   3  14
BRANCH   9  26
HETATM   26  C17 UNK     1      34.698  -6.811  34.963  1.00  0.00     0.292 C 
HETATM   27  O5  UNK     1      35.677  -6.996  35.661  1.00  0.00    -0.259 OA
BRANCH  26  28
HETATM   28  O1  UNK     1      33.757  -5.843  35.075  1.00  0.00    -0.312 OA
BRANCH  28  29
HETATM   29  C4  UNK     1      33.844  -5.050  36.255  1.00  0.00     0.132 C 
HETATM   30  C7  UNK     1      33.475  -5.893  37.479  1.00  0.00     0.032 C 
HETATM   31  C10 UNK     1      32.188  -5.285  38.035  1.00  0.00     0.002 C 
HETATM   32  C11 UNK     1      31.598  -4.491  36.882  1.00  0.00     0.002 C 
HETATM   33  C8  UNK     1      32.828  -3.913  36.197  1.00  0.00     0.032 C 
ENDBRANCH  28  29
ENDBRANCH  26  28
ENDBRANCH   9  26
BRANCH   4  34
HETATM   34  C16 UNK     1      31.361 -10.811  29.988  1.00  0.00     0.057 A 
HETATM   35  O2  UNK     1      31.219 -10.833  28.643  1.00  0.00    -0.327 OA
HETATM   36  C25 UNK     1      30.010 -10.271  28.381  1.00  0.00     0.142 A 
HETATM   37  C23 UNK     1      29.390  -9.895  29.551  1.00  0.00     0.027 A 
HETATM   38  C21 UNK     1      30.276 -10.250  30.597  1.00  0.00     0.035 A 
ENDBRANCH   4  34
TORSDOF 5
ENDMDL
MODEL 8
REMARK VINA RESULT:      -8.8      1.900      2.714
REMARK  5 active torsions:
REMARK  status: ('A' for Active; 'I' for Inactive)
REMARK    1  A    between atoms: C17_25  and  O1_2 
REMARK    2  A    between atoms: C4_12  and  O1_2 
REMARK    3  A    between atoms: C1_9  and  C15_23 
REMARK    4  A    between atoms: C16_24  and  C2_10 
REMARK    5  A    between atoms: C12_20  and  C17_25 
ROOT
HETATM    1  O3  UNK     1      32.203  -6.690  31.505  1.00  0.00    -0.293 OA
HETATM    2  N1  UNK     1      28.188  -8.053  33.605  1.00  0.00    -0.362 N 
HETATM    3  C1  UNK     1      31.019  -7.985  33.777  1.00  0.00     0.104 C 
HETATM    4  C2  UNK     1      28.846  -7.005  30.032  1.00  0.00     0.056 C 
HETATM    5  C3  UNK     1      30.238  -7.478  32.568  1.00  0.00     0.024 C 
HETATM    6  C5  UNK     1      28.070  -7.088  31.353  1.00  0.00     0.069 C 
HETATM    7  C6  UNK     1      28.891  -7.550  32.527  1.00  0.00     0.021 C 
HETATM    8  C9  UNK     1      30.219  -6.362  30.223  1.00  0.00     0.095 C 
HETATM    9  C12 UNK     1      30.112  -8.383  34.943  1.00  0.00     0.052 C 
HETATM   10  C13 UNK     1      30.984  -6.851  31.436  1.00  0.00     0.159 C 
HETATM   11  C14 UNK     1      28.766  -8.425  34.807  1.00  0.00     0.018 C 
HETATM   12  C18 UNK     1      27.799  -8.850  35.879  1.00  0.00     0.069 C 
HETATM   13  H16 UNK     1      27.177  -8.086  33.537  1.00  0.00     0.165 HD
ENDROOT
BRANCH   3  14
HETATM   14  C15 UNK     1      31.895  -9.144  33.387  1.00  0.00     0.029 A 
HETATM   15  C19 UNK     1      33.360  -9.031  33.601  1.00  0.00     0.194 A 
HETATM   16  O6  UNK     1      33.871  -8.028  34.081  1.00  0.00    -0.287 OA
HETATM   17  C22 UNK     1      34.171 -10.195  33.201  1.00  0.00     0.050 A 
HETATM   18  C26 UNK     1      35.560 -10.185  33.362  1.00  0.00     0.042 A 
HETATM   19  C24 UNK     1      33.535 -11.311  32.658  1.00  0.00     0.089 A 
HETATM   20  C28 UNK     1      36.306 -11.299  32.977  1.00  0.00     0.035 A 
HETATM   21 Cl1  UNK     1      38.016 -11.298  33.171  1.00  0.00    -0.084 Cl
HETATM   22  C29 UNK     1      35.670 -12.417  32.434  1.00  0.00     0.026 A 
HETATM   23  C27 UNK     1      34.284 -12.424  32.274  1.00  0.00     0.040 A 
HETATM   24  O4  UNK     1      32.177 -11.376  32.478  1.00  0.00    -0.321 OA
HETATM   25  C20 UNK     1      31.434 -10.284  32.854  1.00  0.00     0.154 A 
ENDBRANCH   3  14
BRANCH   9  26
HETATM   26  C17 UNK     1      30.770  -8.661  36.230  1.00  0.00     0.292 C 
HETATM   27  O5  UNK     1      30.786  -9.762  36.748  1.00  0.00    -0.259 OA
BRANCH  26  28
HETATM   28  O1  UNK     1      31.317  -7.509  36.687  1.00  0.00    -0.312 OA
BRANCH  28  29
HETATM   29  C4  UNK     1      31.124  -7.259  38.076  1.00  0.00     0.132 C 
HETATM   30  C7  UNK     1      29.651  -6.943  38.349  1.00  0.00     0.032 C 
HETATM   31  C10 UNK     1      29.613  -5.490  38.821  1.00  0.00     0.002 C 
HETATM   32  C11 UNK     1      30.915  -4.883  38.329  1.00  0.00     0.002 C 
HETATM   33  C8  UNK     1      31.911  -6.022  38.498  1.00  0.00     0.032 C 
ENDBRANCH  28  29
ENDBRANCH  26  28
ENDBRANCH   9  26
BRANCH   4  34
HETATM   34  C16 UNK     1      28.865  -8.344  29.290  1.00  0.00     0.057 A 
HETATM   35  O2  UNK     1      29.976  -8.595  28.560  1.00  0.00    -0.327 OA
HETATM   36  C25 UNK     1      29.786  -9.816  27.994  1.00  0.00     0.142 A 
HETATM   37  C23 UNK     1      28.566 -10.334  28.361  1.00  0.00     0.027 A 
HETATM   38  C21 UNK     1      27.968  -9.370  29.208  1.00  0.00     0.035 A 
ENDBRANCH   4  34
TORSDOF 5
ENDMDL
MODEL 9
REMARK VINA RESULT:      -8.8      2.802      5.355
REMARK  5 active torsions:
REMARK  status: ('A' for Active; 'I' for Inactive)
REMARK    1  A    between atoms: C17_25  and  O1_2 
REMARK    2  A    between atoms: C4_12  and  O1_2 
REMARK    3  A    between atoms: C1_9  and  C15_23 
REMARK    4  A    between atoms: C16_24  and  C2_10 
REMARK    5  A    between atoms: C12_20  and  C17_25 
ROOT
HETATM    1  O3  UNK     1      32.644 -11.082  32.930  1.00  0.00    -0.293 OA
HETATM    2  N1  UNK     1      35.024  -7.798  35.366  1.00  0.00    -0.362 N 
HETATM    3  C1  UNK     1      32.542  -9.131  35.033  1.00  0.00     0.104 C 
HETATM    4  C2  UNK     1      35.820  -9.443  32.056  1.00  0.00     0.056 C 
HETATM    5  C3  UNK     1      33.749  -9.364  34.129  1.00  0.00     0.024 C 
HETATM    6  C5  UNK     1      36.116  -8.859  33.444  1.00  0.00     0.069 C 
HETATM    7  C6  UNK     1      34.902  -8.690  34.317  1.00  0.00     0.021 C 
HETATM    8  C9  UNK     1      34.843 -10.615  32.134  1.00  0.00     0.095 C 
HETATM    9  C12 UNK     1      32.861  -8.229  36.226  1.00  0.00     0.052 C 
HETATM   10  C13 UNK     1      33.656 -10.391  33.048  1.00  0.00     0.159 C 
HETATM   11  C14 UNK     1      34.051  -7.592  36.330  1.00  0.00     0.018 C 
HETATM   12  C18 UNK     1      34.436  -6.649  37.438  1.00  0.00     0.069 C 
HETATM   13  H16 UNK     1      35.907  -7.314  35.477  1.00  0.00     0.165 HD
ENDROOT
BRANCH   3  14
HETATM   14  C15 UNK     1      31.398  -8.556  34.243  1.00  0.00     0.029 A 
HETATM   15  C19 UNK     1      31.623  -7.306  33.476  1.00  0.00     0.194 A 
HETATM   16  O6  UNK     1      32.704  -6.733  33.468  1.00  0.00    -0.287 OA
HETATM   17  C22 UNK     1      30.469  -6.786  32.719  1.00  0.00     0.050 A 
HETATM   18  C26 UNK     1      30.580  -5.615  31.965  1.00  0.00     0.042 A 
HETATM   19  C24 UNK     1      29.260  -7.481  32.764  1.00  0.00     0.089 A 
HETATM   20  C28 UNK     1      29.474  -5.143  31.257  1.00  0.00     0.035 A 
HETATM   21 Cl1  UNK     1      29.599  -3.701  30.326  1.00  0.00    -0.084 Cl
HETATM   22  C29 UNK     1      28.263  -5.838  31.302  1.00  0.00     0.026 A 
HETATM   23  C27 UNK     1      28.155  -7.007  32.056  1.00  0.00     0.040 A 
HETATM   24  O4  UNK     1      29.094  -8.635  33.487  1.00  0.00    -0.321 OA
HETATM   25  C20 UNK     1      30.177  -9.106  34.186  1.00  0.00     0.154 A 
ENDBRANCH   3  14
BRANCH   9  26
HETATM   26  C17 UNK     1      31.836  -8.133  37.279  1.00  0.00     0.292 C 
HETATM   27  O5  UNK     1      31.634  -9.010  38.096  1.00  0.00    -0.259 OA
BRANCH  26  28
HETATM   28  O1  UNK     1      31.207  -6.939  37.154  1.00  0.00    -0.312 OA
BRANCH  28  29
HETATM   29  C4  UNK     1      30.912  -6.281  38.382  1.00  0.00     0.132 C 
HETATM   30  C7  UNK     1      29.400  -6.283  38.625  1.00  0.00     0.032 C 
HETATM   31  C10 UNK     1      28.964  -4.819  38.571  1.00  0.00     0.002 C 
HETATM   32  C11 UNK     1      30.074  -4.106  37.818  1.00  0.00     0.002 C 
HETATM   33  C8  UNK     1      31.330  -4.816  38.303  1.00  0.00     0.032 C 
ENDBRANCH  28  29
ENDBRANCH  26  28
ENDBRANCH   9  26
BRANCH   4  34
HETATM   34  C16 UNK     1      35.439  -8.359  31.045  1.00  0.00     0.057 A 
HETATM   35  O2  UNK     1      35.246  -8.783  29.775  1.00  0.00    -0.327 OA
HETATM   36  C25 UNK     1      34.922  -7.677  29.054  1.00  0.00     0.142 A 
HETATM   37  C23 UNK     1      34.910  -6.562  29.859  1.00  0.00     0.027 A 
HETATM   38  C21 UNK     1      35.248  -7.012  31.158  1.00  0.00     0.035 A 
ENDBRANCH   4  34
TORSDOF 5
ENDMDL
MODEL 10
REMARK VINA RESULT:      -8.8      1.618      6.262
REMARK  5 active torsions:
REMARK  status: ('A' for Active; 'I' for Inactive)
REMARK    1  A    between atoms: C17_25  and  O1_2 
REMARK    2  A    between atoms: C4_12  and  O1_2 
REMARK    3  A    between atoms: C1_9  and  C15_23 
REMARK    4  A    between atoms: C16_24  and  C2_10 
REMARK    5  A    between atoms: C12_20  and  C17_25 
ROOT
HETATM    1  O3  UNK     1      31.053  -9.968  36.419  1.00  0.00    -0.293 OA
HETATM    2  N1  UNK     1      27.933  -7.118  34.291  1.00  0.00    -0.362 N 
HETATM    3  C1  UNK     1      30.223  -8.759  33.951  1.00  0.00     0.104 C 
HETATM    4  C2  UNK     1      28.735  -7.562  37.958  1.00  0.00     0.056 C 
HETATM    5  C3  UNK     1      29.579  -8.484  35.307  1.00  0.00     0.024 C 
HETATM    6  C5  UNK     1      27.840  -7.353  36.730  1.00  0.00     0.069 C 
HETATM    7  C6  UNK     1      28.502  -7.679  35.418  1.00  0.00     0.021 C 
HETATM    8  C9  UNK     1      29.512  -8.874  37.874  1.00  0.00     0.095 C 
HETATM    9  C12 UNK     1      29.412  -8.190  32.786  1.00  0.00     0.052 C 
HETATM   10  C13 UNK     1      30.133  -9.156  36.521  1.00  0.00     0.159 C 
HETATM   11  C14 UNK     1      28.341  -7.391  32.994  1.00  0.00     0.018 C 
HETATM   12  C18 UNK     1      27.514  -6.748  31.914  1.00  0.00     0.069 C 
HETATM   13  H16 UNK     1      27.122  -6.524  34.414  1.00  0.00     0.165 HD
ENDROOT
BRANCH   3  14
HETATM   14  C15 UNK     1      31.626  -8.216  33.917  1.00  0.00     0.029 A 
HETATM   15  C19 UNK     1      32.741  -9.151  33.622  1.00  0.00     0.194 A 
HETATM   16  O6  UNK     1      32.553 -10.342  33.409  1.00  0.00    -0.287 OA
HETATM   17  C22 UNK     1      34.095  -8.568  33.600  1.00  0.00     0.050 A 
HETATM   18  C26 UNK     1      35.211  -9.366  33.333  1.00  0.00     0.042 A 
HETATM   19  C24 UNK     1      34.250  -7.204  33.851  1.00  0.00     0.089 A 
HETATM   20  C28 UNK     1      36.482  -8.790  33.317  1.00  0.00     0.035 A 
HETATM   21 Cl1  UNK     1      37.863  -9.764  32.989  1.00  0.00    -0.084 Cl
HETATM   22  C29 UNK     1      36.638  -7.425  33.567  1.00  0.00     0.026 A 
HETATM   23  C27 UNK     1      35.523  -6.631  33.835  1.00  0.00     0.040 A 
HETATM   24  O4  UNK     1      33.191  -6.374  34.118  1.00  0.00    -0.321 OA
HETATM   25  C20 UNK     1      31.937  -6.932  34.136  1.00  0.00     0.154 A 
ENDBRANCH   3  14
BRANCH   9  26
HETATM   26  C17 UNK     1      29.820  -8.601  31.432  1.00  0.00     0.292 C 
HETATM   27  O5  UNK     1      29.392  -9.595  30.878  1.00  0.00    -0.259 OA
BRANCH  26  28
HETATM   28  O1  UNK     1      30.713  -7.697  30.963  1.00  0.00    -0.312 OA
BRANCH  28  29
HETATM   29  C4  UNK     1      31.415  -8.095  29.789  1.00  0.00     0.132 C 
HETATM   30  C7  UNK     1      32.361  -9.254  30.115  1.00  0.00     0.032 C 
HETATM   31  C10 UNK     1      33.775  -8.716  29.903  1.00  0.00     0.002 C 
HETATM   32  C11 UNK     1      33.634  -7.205  29.974  1.00  0.00     0.002 C 
HETATM   33  C8  UNK     1      32.296  -6.952  29.294  1.00  0.00     0.032 C 
ENDBRANCH  28  29
ENDBRANCH  26  28
ENDBRANCH   9  26
BRANCH   4  34
HETATM   34  C16 UNK     1      29.590  -6.329  38.264  1.00  0.00     0.057 A 
HETATM   35  O2  UNK     1      28.932  -5.277  38.801  1.00  0.00    -0.327 OA
HETATM   36  C25 UNK     1      29.865  -4.306  38.990  1.00  0.00     0.142 A 
HETATM   37  C23 UNK     1      31.102  -4.740  38.576  1.00  0.00     0.027 A 
HETATM   38  C21 UNK     1      30.919  -6.061  38.103  1.00  0.00     0.035 A 
ENDBRANCH   4  34
TORSDOF 5
ENDMDL
