MODEL 1
REMARK VINA RESULT:      -9.9      0.000      0.000
REMARK  9 active torsions:
REMARK  status: ('A' for Active; 'I' for Inactive)
REMARK    1  A    between atoms: C1_13  and  O1_5 
REMARK    2  A    between atoms: C8_20  and  O1_5 
REMARK    3  A    between atoms: C15_27  and  O3_7 
REMARK    4  A    between atoms: C9_21  and  O3_7 
REMARK    5  A    between atoms: C12_24  and  O4_8 
REMARK    6  A    between atoms: C19_31  and  O4_8 
REMARK    7  A    between atoms: C5_17  and  N1_12 
REMARK       I    between atoms: C8_20  and  N1_12 
REMARK    8  A    between atoms: C15_27  and  C5_17 
REMARK    9  A    between atoms: C14_26  and  C18_30 
ROOT
HETATM    1  O2  UNK     1      16.237   7.733  32.306  1.00  0.00    -0.302 OA
HETATM    2  O6  UNK     1      19.345   8.923  34.653  1.00  0.00    -0.284 OA
HETATM    3  C6  UNK     1      18.568   7.501  32.941  1.00  0.00     0.051 A 
HETATM    4  C7  UNK     1      17.465   7.140  32.171  1.00  0.00     0.093 A 
HETATM    5  C9  UNK     1      18.810   5.494  31.024  1.00  0.00     0.082 A 
HETATM    6  C10 UNK     1      17.586   6.135  31.210  1.00  0.00     0.075 A 
HETATM    7  C11 UNK     1      18.415   8.564  33.946  1.00  0.00     0.221 A 
HETATM    8  C12 UNK     1      17.067   9.172  34.055  1.00  0.00     0.165 A 
HETATM    9  C13 UNK     1      19.797   6.861  32.758  1.00  0.00     0.021 A 
HETATM   10  C14 UNK     1      16.083   8.736  33.252  1.00  0.00     0.197 A 
HETATM   11  C17 UNK     1      19.914   5.857  31.797  1.00  0.00     0.038 A 
ENDROOT
BRANCH   5  12
HETATM   12  O3  UNK     1      18.930   4.514  30.087  1.00  0.00    -0.277 OA
BRANCH  12  13
HETATM   13  C15 UNK     1      18.405   3.270  30.474  1.00  0.00     0.286 C 
HETATM   14  O7  UNK     1      17.538   3.117  31.328  1.00  0.00    -0.263 OA
BRANCH  13  15
HETATM   15  C5  UNK     1      19.022   2.105  29.709  1.00  0.00     0.183 C 
HETATM   16  C16 UNK     1      17.951   1.363  28.925  1.00  0.00     0.043 C 
BRANCH  15  17
HETATM   17  N1  UNK     1      19.724   1.199  30.580  1.00  0.00    -0.323 N 
HETATM   18  C8  UNK     1      20.529   0.169  30.133  1.00  0.00     0.362 C 
HETATM   19  O5  UNK     1      20.749  -0.106  28.958  1.00  0.00    -0.238 OA
HETATM   20  H11 UNK     1      19.672   1.353  31.583  1.00  0.00     0.165 HD
BRANCH  18  21
HETATM   21  O1  UNK     1      21.052  -0.507  31.199  1.00  0.00    -0.294 OA
BRANCH  21  22
HETATM   22  C1  UNK     1      20.369  -1.708  31.573  1.00  0.00     0.061 C 
HETATM   23  C2  UNK     1      20.155  -2.556  30.320  1.00  0.00     0.046 C 
HETATM   24  C3  UNK     1      21.224  -2.455  32.597  1.00  0.00     0.046 C 
HETATM   25  C4  UNK     1      19.028  -1.305  32.185  1.00  0.00     0.046 C 
ENDBRANCH  21  22
ENDBRANCH  18  21
ENDBRANCH  15  17
ENDBRANCH  13  15
ENDBRANCH  12  13
ENDBRANCH   5  12
BRANCH  10  26
HETATM   26  C18 UNK     1      14.687   9.285  33.283  1.00  0.00     0.442 C 
HETATM   27  F1  UNK     1      14.619  10.463  32.630  1.00  0.00    -0.164 F 
HETATM   28  F2  UNK     1      13.821   8.435  32.697  1.00  0.00    -0.164 F 
HETATM   29  F3  UNK     1      14.275   9.489  34.550  1.00  0.00    -0.164 F 
ENDBRANCH  10  26
BRANCH   8  30
HETATM   30  O4  UNK     1      16.879  10.171  34.985  1.00  0.00    -0.304 OA
BRANCH  30  31
HETATM   31  C19 UNK     1      17.023  11.458  34.549  1.00  0.00     0.076 A 
HETATM   32  C20 UNK     1      16.003  12.385  34.764  1.00  0.00     0.039 A 
HETATM   33  C22 UNK     1      16.151  13.700  34.322  1.00  0.00     0.026 A 
HETATM   34  C24 UNK     1      17.318  14.087  33.663  1.00  0.00     0.034 A 
HETATM   35  C23 UNK     1      18.337  13.160  33.448  1.00  0.00     0.026 A 
HETATM   36 Cl1  UNK     1      17.498  15.708  33.117  1.00  0.00    -0.084 Cl
HETATM   37  C21 UNK     1      18.190  11.845  33.890  1.00  0.00     0.039 A 
ENDBRANCH  30  31
ENDBRANCH   8  30
TORSDOF 9
ENDMDL
MODEL 2
REMARK VINA RESULT:      -9.6      5.142      7.878
REMARK  9 active torsions:
REMARK  status: ('A' for Active; 'I' for Inactive)
REMARK    1  A    between atoms: C1_13  and  O1_5 
REMARK    2  A    between atoms: C8_20  and  O1_5 
REMARK    3  A    between atoms: C15_27  and  O3_7 
REMARK    4  A    between atoms: C9_21  and  O3_7 
REMARK    5  A    between atoms: C12_24  and  O4_8 
REMARK    6  A    between atoms: C19_31  and  O4_8 
REMARK    7  A    between atoms: C5_17  and  N1_12 
REMARK       I    between atoms: C8_20  and  N1_12 
REMARK    8  A    between atoms: C15_27  and  C5_17 
REMARK    9  A    between atoms: C14_26  and  C18_30 
ROOT
HETATM    1  O2  UNK     1      18.811   0.955  31.325  1.00  0.00    -0.302 OA
HETATM    2  O6  UNK     1      17.620   3.658  34.128  1.00  0.00    -0.284 OA
HETATM    3  C6  UNK     1      18.340   1.464  33.650  1.00  0.00     0.051 A 
HETATM    4  C7  UNK     1      18.738   0.588  32.643  1.00  0.00     0.093 A 
HETATM    5  C9  UNK     1      19.035  -1.157  34.285  1.00  0.00     0.082 A 
HETATM    6  C10 UNK     1      19.087  -0.725  32.961  1.00  0.00     0.075 A 
HETATM    7  C11 UNK     1      17.978   2.844  33.289  1.00  0.00     0.221 A 
HETATM    8  C12 UNK     1      18.071   3.190  31.851  1.00  0.00     0.165 A 
HETATM    9  C13 UNK     1      18.286   1.035  34.979  1.00  0.00     0.021 A 
HETATM   10  C14 UNK     1      18.471   2.253  30.975  1.00  0.00     0.197 A 
HETATM   11  C17 UNK     1      18.636  -0.279  35.293  1.00  0.00     0.038 A 
ENDROOT
BRANCH   5  12
HETATM   12  O3  UNK     1      19.375  -2.438  34.597  1.00  0.00    -0.277 OA
BRANCH  12  13
HETATM   13  C15 UNK     1      20.293  -2.558  35.653  1.00  0.00     0.286 C 
HETATM   14  O7  UNK     1      21.429  -2.096  35.642  1.00  0.00    -0.263 OA
BRANCH  13  15
HETATM   15  C5  UNK     1      19.728  -3.324  36.842  1.00  0.00     0.183 C 
HETATM   16  C16 UNK     1      19.097  -2.363  37.837  1.00  0.00     0.043 C 
BRANCH  15  17
HETATM   17  N1  UNK     1      20.730  -4.130  37.491  1.00  0.00    -0.323 N 
HETATM   18  C8  UNK     1      21.065  -5.410  37.092  1.00  0.00     0.362 C 
HETATM   19  O5  UNK     1      20.564  -6.019  36.153  1.00  0.00    -0.238 OA
HETATM   20  H11 UNK     1      21.262  -3.721  38.253  1.00  0.00     0.165 HD
BRANCH  18  21
HETATM   21  O1  UNK     1      22.046  -5.906  37.905  1.00  0.00    -0.294 OA
BRANCH  21  22
HETATM   22  C1  UNK     1      21.685  -7.043  38.696  1.00  0.00     0.061 C 
HETATM   23  C2  UNK     1      20.282  -6.819  39.260  1.00  0.00     0.046 C 
HETATM   24  C3  UNK     1      21.722  -8.286  37.807  1.00  0.00     0.046 C 
HETATM   25  C4  UNK     1      22.706  -7.161  39.826  1.00  0.00     0.046 C 
ENDBRANCH  21  22
ENDBRANCH  18  21
ENDBRANCH  15  17
ENDBRANCH  13  15
ENDBRANCH  12  13
ENDBRANCH   5  12
BRANCH  10  26
HETATM   26  C18 UNK     1      18.598   2.502  29.501  1.00  0.00     0.442 C 
HETATM   27  F1  UNK     1      19.036   3.754  29.261  1.00  0.00    -0.164 F 
HETATM   28  F2  UNK     1      19.471   1.642  28.940  1.00  0.00    -0.164 F 
HETATM   29  F3  UNK     1      17.411   2.352  28.880  1.00  0.00    -0.164 F 
ENDBRANCH  10  26
BRANCH   8  30
HETATM   30  O4  UNK     1      17.741   4.471  31.469  1.00  0.00    -0.304 OA
BRANCH  30  31
HETATM   31  C19 UNK     1      18.338   5.494  32.149  1.00  0.00     0.076 A 
HETATM   32  C20 UNK     1      17.557   6.446  32.804  1.00  0.00     0.039 A 
HETATM   33  C22 UNK     1      18.167   7.489  33.502  1.00  0.00     0.026 A 
HETATM   34  C24 UNK     1      19.558   7.580  33.544  1.00  0.00     0.034 A 
HETATM   35  C23 UNK     1      20.339   6.628  32.889  1.00  0.00     0.026 A 
HETATM   36 Cl1  UNK     1      20.309   8.868  34.403  1.00  0.00    -0.084 Cl
HETATM   37  C21 UNK     1      19.730   5.585  32.192  1.00  0.00     0.039 A 
ENDBRANCH  30  31
ENDBRANCH   8  30
TORSDOF 9
ENDMDL
MODEL 3
REMARK VINA RESULT:      -9.4     15.979     19.811
REMARK  9 active torsions:
REMARK  status: ('A' for Active; 'I' for Inactive)
REMARK    1  A    between atoms: C1_13  and  O1_5 
REMARK    2  A    between atoms: C8_20  and  O1_5 
REMARK    3  A    between atoms: C15_27  and  O3_7 
REMARK    4  A    between atoms: C9_21  and  O3_7 
REMARK    5  A    between atoms: C12_24  and  O4_8 
REMARK    6  A    between atoms: C19_31  and  O4_8 
REMARK    7  A    between atoms: C5_17  and  N1_12 
REMARK       I    between atoms: C8_20  and  N1_12 
REMARK    8  A    between atoms: C15_27  and  C5_17 
REMARK    9  A    between atoms: C14_26  and  C18_30 
ROOT
HETATM    1  O2  UNK     1      29.438  -6.456  38.608  1.00  0.00    -0.302 OA
HETATM    2  O6  UNK     1      31.204 -10.107  38.233  1.00  0.00    -0.284 OA
HETATM    3  C6  UNK     1      29.233  -8.874  38.626  1.00  0.00     0.051 A 
HETATM    4  C7  UNK     1      28.691  -7.597  38.744  1.00  0.00     0.093 A 
HETATM    5  C9  UNK     1      26.517  -8.563  39.157  1.00  0.00     0.082 A 
HETATM    6  C10 UNK     1      27.330  -7.440  39.010  1.00  0.00     0.075 A 
HETATM    7  C11 UNK     1      30.670  -9.012  38.345  1.00  0.00     0.221 A 
HETATM    8  C12 UNK     1      31.435  -7.750  38.209  1.00  0.00     0.165 A 
HETATM    9  C13 UNK     1      28.422 -10.003  38.774  1.00  0.00     0.021 A 
HETATM   10  C14 UNK     1      30.794  -6.576  38.343  1.00  0.00     0.197 A 
HETATM   11  C17 UNK     1      27.061  -9.842  39.039  1.00  0.00     0.038 A 
ENDROOT
BRANCH   5  12
HETATM   12  O3  UNK     1      25.188  -8.412  39.416  1.00  0.00    -0.277 OA
BRANCH  12  13
HETATM   13  C15 UNK     1      24.385  -8.265  38.273  1.00  0.00     0.286 C 
HETATM   14  O7  UNK     1      24.703  -8.635  37.148  1.00  0.00    -0.263 OA
BRANCH  13  15
HETATM   15  C5  UNK     1      23.049  -7.596  38.573  1.00  0.00     0.183 C 
HETATM   16  C16 UNK     1      22.622  -7.891  40.003  1.00  0.00     0.043 C 
BRANCH  15  17
HETATM   17  N1  UNK     1      22.022  -8.003  37.649  1.00  0.00    -0.323 N 
HETATM   18  C8  UNK     1      21.265  -7.121  36.903  1.00  0.00     0.362 C 
HETATM   19  O5  UNK     1      21.362  -5.899  36.926  1.00  0.00    -0.238 OA
HETATM   20  H11 UNK     1      21.877  -8.996  37.493  1.00  0.00     0.165 HD
BRANCH  18  21
HETATM   21  O1  UNK     1      20.379  -7.814  36.125  1.00  0.00    -0.294 OA
BRANCH  21  22
HETATM   22  C1  UNK     1      19.064  -7.973  36.666  1.00  0.00     0.061 C 
HETATM   23  C2  UNK     1      18.956  -7.134  37.938  1.00  0.00     0.046 C 
HETATM   24  C3  UNK     1      18.049  -7.509  35.620  1.00  0.00     0.046 C 
HETATM   25  C4  UNK     1      18.871  -9.455  36.981  1.00  0.00     0.046 C 
ENDBRANCH  21  22
ENDBRANCH  18  21
ENDBRANCH  15  17
ENDBRANCH  13  15
ENDBRANCH  12  13
ENDBRANCH   5  12
BRANCH  10  26
HETATM   26  C18 UNK     1      31.476  -5.246  38.224  1.00  0.00     0.442 C 
HETATM   27  F1  UNK     1      30.698  -4.261  38.716  1.00  0.00    -0.164 F 
HETATM   28  F2  UNK     1      32.639  -5.236  38.905  1.00  0.00    -0.164 F 
HETATM   29  F3  UNK     1      31.748  -4.954  36.936  1.00  0.00    -0.164 F 
ENDBRANCH  10  26
BRANCH   8  30
HETATM   30  O4  UNK     1      32.785  -7.833  37.947  1.00  0.00    -0.304 OA
BRANCH  30  31
HETATM   31  C19 UNK     1      33.171  -7.706  36.642  1.00  0.00     0.076 A 
HETATM   32  C20 UNK     1      34.326  -6.994  36.323  1.00  0.00     0.039 A 
HETATM   33  C22 UNK     1      34.722  -6.867  34.991  1.00  0.00     0.026 A 
HETATM   34  C24 UNK     1      33.962  -7.452  33.978  1.00  0.00     0.034 A 
HETATM   35  C23 UNK     1      32.806  -8.164  34.298  1.00  0.00     0.026 A 
HETATM   36 Cl1  UNK     1      34.450  -7.293  32.337  1.00  0.00    -0.084 Cl
HETATM   37  C21 UNK     1      32.410  -8.291  35.629  1.00  0.00     0.039 A 
ENDBRANCH  30  31
ENDBRANCH   8  30
TORSDOF 9
ENDMDL
MODEL 4
REMARK VINA RESULT:      -9.3      1.947      2.768
REMARK  9 active torsions:
REMARK  status: ('A' for Active; 'I' for Inactive)
REMARK    1  A    between atoms: C1_13  and  O1_5 
REMARK    2  A    between atoms: C8_20  and  O1_5 
REMARK    3  A    between atoms: C15_27  and  O3_7 
REMARK    4  A    between atoms: C9_21  and  O3_7 
REMARK    5  A    between atoms: C12_24  and  O4_8 
REMARK    6  A    between atoms: C19_31  and  O4_8 
REMARK    7  A    between atoms: C5_17  and  N1_12 
REMARK       I    between atoms: C8_20  and  N1_12 
REMARK    8  A    between atoms: C15_27  and  C5_17 
REMARK    9  A    between atoms: C14_26  and  C18_30 
ROOT
HETATM    1  O2  UNK     1      16.230   6.759  32.342  1.00  0.00    -0.302 OA
HETATM    2  O6  UNK     1      19.228   8.331  34.605  1.00  0.00    -0.284 OA
HETATM    3  C6  UNK     1      18.584   6.804  32.929  1.00  0.00     0.051 A 
HETATM    4  C7  UNK     1      17.515   6.308  32.187  1.00  0.00     0.093 A 
HETATM    5  C9  UNK     1      19.016   4.810  31.033  1.00  0.00     0.082 A 
HETATM    6  C10 UNK     1      17.730   5.309  31.237  1.00  0.00     0.075 A 
HETATM    7  C11 UNK     1      18.331   7.857  33.924  1.00  0.00     0.221 A 
HETATM    8  C12 UNK     1      16.925   8.310  34.054  1.00  0.00     0.165 A 
HETATM    9  C13 UNK     1      19.875   6.307  32.727  1.00  0.00     0.021 A 
HETATM   10  C14 UNK     1      15.981   7.752  33.278  1.00  0.00     0.197 A 
HETATM   11  C17 UNK     1      20.086   5.308  31.776  1.00  0.00     0.038 A 
ENDROOT
BRANCH   5  12
HETATM   12  O3  UNK     1      19.228   3.836  30.105  1.00  0.00    -0.277 OA
BRANCH  12  13
HETATM   13  C15 UNK     1      18.512   2.648  30.332  1.00  0.00     0.286 C 
HETATM   14  O7  UNK     1      17.505   2.316  29.717  1.00  0.00    -0.263 OA
BRANCH  13  15
HETATM   15  C5  UNK     1      19.126   1.792  31.433  1.00  0.00     0.183 C 
HETATM   16  C16 UNK     1      19.879   0.617  30.828  1.00  0.00     0.043 C 
BRANCH  15  17
HETATM   17  N1  UNK     1      18.135   1.324  32.368  1.00  0.00    -0.323 N 
HETATM   18  C8  UNK     1      17.877   1.929  33.583  1.00  0.00     0.362 C 
HETATM   19  O5  UNK     1      18.445   2.924  34.020  1.00  0.00    -0.238 OA
HETATM   20  H11 UNK     1      17.552   0.535  32.102  1.00  0.00     0.165 HD
BRANCH  18  21
HETATM   21  O1  UNK     1      16.886   1.251  34.237  1.00  0.00    -0.294 OA
BRANCH  21  22
HETATM   22  C1  UNK     1      17.311   0.406  35.311  1.00  0.00     0.061 C 
HETATM   23  C2  UNK     1      18.742  -0.053  35.033  1.00  0.00     0.046 C 
HETATM   24  C3  UNK     1      17.239   1.203  36.614  1.00  0.00     0.046 C 
HETATM   25  C4  UNK     1      16.363  -0.790  35.360  1.00  0.00     0.046 C 
ENDBRANCH  21  22
ENDBRANCH  18  21
ENDBRANCH  15  17
ENDBRANCH  13  15
ENDBRANCH  12  13
ENDBRANCH   5  12
BRANCH  10  26
HETATM   26  C18 UNK     1      14.533   8.139  33.333  1.00  0.00     0.442 C 
HETATM   27  F1  UNK     1      14.307   9.260  32.619  1.00  0.00    -0.164 F 
HETATM   28  F2  UNK     1      13.753   7.161  32.829  1.00  0.00    -0.164 F 
HETATM   29  F3  UNK     1      14.140   8.369  34.602  1.00  0.00    -0.164 F 
ENDBRANCH  10  26
BRANCH   8  30
HETATM   30  O4  UNK     1      16.642   9.294  34.975  1.00  0.00    -0.304 OA
BRANCH  30  31
HETATM   31  C19 UNK     1      16.753  10.588  34.552  1.00  0.00     0.076 A 
HETATM   32  C20 UNK     1      17.998  11.098  34.184  1.00  0.00     0.039 A 
HETATM   33  C22 UNK     1      18.112  12.418  33.749  1.00  0.00     0.026 A 
HETATM   34  C24 UNK     1      16.979  13.230  33.682  1.00  0.00     0.034 A 
HETATM   35  C23 UNK     1      15.734  12.721  34.049  1.00  0.00     0.026 A 
HETATM   36 Cl1  UNK     1      17.120  14.859  33.146  1.00  0.00    -0.084 Cl
HETATM   37  C21 UNK     1      15.621  11.400  34.485  1.00  0.00     0.039 A 
ENDBRANCH  30  31
ENDBRANCH   8  30
TORSDOF 9
ENDMDL
MODEL 5
REMARK VINA RESULT:      -9.1     17.532     20.899
REMARK  9 active torsions:
REMARK  status: ('A' for Active; 'I' for Inactive)
REMARK    1  A    between atoms: C1_13  and  O1_5 
REMARK    2  A    between atoms: C8_20  and  O1_5 
REMARK    3  A    between atoms: C15_27  and  O3_7 
REMARK    4  A    between atoms: C9_21  and  O3_7 
REMARK    5  A    between atoms: C12_24  and  O4_8 
REMARK    6  A    between atoms: C19_31  and  O4_8 
REMARK    7  A    between atoms: C5_17  and  N1_12 
REMARK       I    between atoms: C8_20  and  N1_12 
REMARK    8  A    between atoms: C15_27  and  C5_17 
REMARK    9  A    between atoms: C14_26  and  C18_30 
ROOT
HETATM    1  O2  UNK     1      34.200  -7.882  32.020  1.00  0.00    -0.302 OA
HETATM    2  O6  UNK     1      32.572  -9.538  35.365  1.00  0.00    -0.284 OA
HETATM    3  C6  UNK     1      32.697  -9.509  33.011  1.00  0.00     0.051 A 
HETATM    4  C7  UNK     1      33.289  -8.900  31.907  1.00  0.00     0.093 A 
HETATM    5  C9  UNK     1      32.042 -10.356  30.440  1.00  0.00     0.082 A 
HETATM    6  C10 UNK     1      32.962  -9.323  30.619  1.00  0.00     0.075 A 
HETATM    7  C11 UNK     1      33.059  -9.044  34.358  1.00  0.00     0.221 A 
HETATM    8  C12 UNK     1      34.046  -7.940  34.426  1.00  0.00     0.165 A 
HETATM    9  C13 UNK     1      31.774 -10.544  32.836  1.00  0.00     0.021 A 
HETATM   10  C14 UNK     1      34.548  -7.436  33.286  1.00  0.00     0.197 A 
HETATM   11  C17 UNK     1      31.449 -10.965  31.546  1.00  0.00     0.038 A 
ENDROOT
BRANCH   5  12
HETATM   12  O3  UNK     1      31.722 -10.771  29.183  1.00  0.00    -0.277 OA
BRANCH  12  13
HETATM   13  C15 UNK     1      30.932  -9.868  28.453  1.00  0.00     0.286 C 
HETATM   14  O7  UNK     1      31.290  -9.306  27.424  1.00  0.00    -0.263 OA
BRANCH  13  15
HETATM   15  C5  UNK     1      29.555  -9.656  29.071  1.00  0.00     0.183 C 
HETATM   16  C16 UNK     1      28.470 -10.127  28.115  1.00  0.00     0.043 C 
BRANCH  15  17
HETATM   17  N1  UNK     1      29.335  -8.281  29.441  1.00  0.00    -0.323 N 
HETATM   18  C8  UNK     1      28.530  -7.886  30.491  1.00  0.00     0.362 C 
HETATM   19  O5  UNK     1      27.906  -8.636  31.234  1.00  0.00    -0.238 OA
HETATM   20  H11 UNK     1      29.841  -7.558  28.938  1.00  0.00     0.165 HD
BRANCH  18  21
HETATM   21  O1  UNK     1      28.527  -6.522  30.585  1.00  0.00    -0.294 OA
BRANCH  21  22
HETATM   22  C1  UNK     1      29.071  -5.978  31.792  1.00  0.00     0.061 C 
HETATM   23  C2  UNK     1      27.965  -5.928  32.846  1.00  0.00     0.046 C 
HETATM   24  C3  UNK     1      30.222  -6.873  32.253  1.00  0.00     0.046 C 
HETATM   25  C4  UNK     1      29.578  -4.572  31.477  1.00  0.00     0.046 C 
ENDBRANCH  21  22
ENDBRANCH  18  21
ENDBRANCH  15  17
ENDBRANCH  13  15
ENDBRANCH  12  13
ENDBRANCH   5  12
BRANCH  10  26
HETATM   26  C18 UNK     1      35.551  -6.322  33.247  1.00  0.00     0.442 C 
HETATM   27  F1  UNK     1      35.047  -5.202  33.804  1.00  0.00    -0.164 F 
HETATM   28  F2  UNK     1      36.668  -6.654  33.923  1.00  0.00    -0.164 F 
HETATM   29  F3  UNK     1      35.904  -6.031  31.979  1.00  0.00    -0.164 F 
ENDBRANCH  10  26
BRANCH   8  30
HETATM   30  O4  UNK     1      34.414  -7.473  35.669  1.00  0.00    -0.304 OA
BRANCH  30  31
HETATM   31  C19 UNK     1      33.466  -6.794  36.381  1.00  0.00     0.076 A 
HETATM   32  C20 UNK     1      33.197  -7.149  37.702  1.00  0.00     0.039 A 
HETATM   33  C22 UNK     1      32.231  -6.454  38.430  1.00  0.00     0.026 A 
HETATM   34  C24 UNK     1      31.533  -5.403  37.835  1.00  0.00     0.034 A 
HETATM   35  C23 UNK     1      31.802  -5.047  36.514  1.00  0.00     0.026 A 
HETATM   36 Cl1  UNK     1      30.341  -4.548  38.733  1.00  0.00    -0.084 Cl
HETATM   37  C21 UNK     1      32.767  -5.742  35.786  1.00  0.00     0.039 A 
ENDBRANCH  30  31
ENDBRANCH   8  30
TORSDOF 9
ENDMDL
MODEL 6
REMARK VINA RESULT:      -9.1      9.242     13.066
REMARK  9 active torsions:
REMARK  status: ('A' for Active; 'I' for Inactive)
REMARK    1  A    between atoms: C1_13  and  O1_5 
REMARK    2  A    between atoms: C8_20  and  O1_5 
REMARK    3  A    between atoms: C15_27  and  O3_7 
REMARK    4  A    between atoms: C9_21  and  O3_7 
REMARK    5  A    between atoms: C12_24  and  O4_8 
REMARK    6  A    between atoms: C19_31  and  O4_8 
REMARK    7  A    between atoms: C5_17  and  N1_12 
REMARK       I    between atoms: C8_20  and  N1_12 
REMARK    8  A    between atoms: C15_27  and  C5_17 
REMARK    9  A    between atoms: C14_26  and  C18_30 
ROOT
HETATM    1  O2  UNK     1      20.381  -4.528  34.445  1.00  0.00    -0.302 OA
HETATM    2  O6  UNK     1      19.521  -2.494  37.867  1.00  0.00    -0.284 OA
HETATM    3  C6  UNK     1      19.892  -4.574  36.822  1.00  0.00     0.051 A 
HETATM    4  C7  UNK     1      20.188  -5.210  35.618  1.00  0.00     0.093 A 
HETATM    5  C9  UNK     1      20.117  -7.349  36.736  1.00  0.00     0.082 A 
HETATM    6  C10 UNK     1      20.301  -6.600  35.574  1.00  0.00     0.075 A 
HETATM    7  C11 UNK     1      19.779  -3.108  36.842  1.00  0.00     0.221 A 
HETATM    8  C12 UNK     1      19.994  -2.418  35.548  1.00  0.00     0.165 A 
HETATM    9  C13 UNK     1      19.707  -5.321  37.988  1.00  0.00     0.021 A 
HETATM   10  C14 UNK     1      20.275  -3.145  34.454  1.00  0.00     0.197 A 
HETATM   11  C17 UNK     1      19.821  -6.711  37.941  1.00  0.00     0.038 A 
ENDROOT
BRANCH   5  12
HETATM   12  O3  UNK     1      20.227  -8.706  36.695  1.00  0.00    -0.277 OA
BRANCH  12  13
HETATM   13  C15 UNK     1      21.276  -9.229  37.469  1.00  0.00     0.286 C 
HETATM   14  O7  UNK     1      21.139  -9.710  38.589  1.00  0.00    -0.263 OA
BRANCH  13  15
HETATM   15  C5  UNK     1      22.625  -9.148  36.767  1.00  0.00     0.183 C 
HETATM   16  C16 UNK     1      22.786 -10.309  35.798  1.00  0.00     0.043 C 
BRANCH  15  17
HETATM   17  N1  UNK     1      23.720  -9.121  37.703  1.00  0.00    -0.323 N 
HETATM   18  C8  UNK     1      24.110  -7.994  38.399  1.00  0.00     0.362 C 
HETATM   19  O5  UNK     1      23.588  -6.887  38.316  1.00  0.00    -0.238 OA
HETATM   20  H11 UNK     1      24.204  -9.990  37.907  1.00  0.00     0.165 HD
BRANCH  18  21
HETATM   21  O1  UNK     1      25.174  -8.291  39.204  1.00  0.00    -0.294 OA
BRANCH  21  22
HETATM   22  C1  UNK     1      26.466  -7.975  38.674  1.00  0.00     0.061 C 
HETATM   23  C2  UNK     1      26.559  -8.532  37.254  1.00  0.00     0.046 C 
HETATM   24  C3  UNK     1      26.633  -6.455  38.675  1.00  0.00     0.046 C 
HETATM   25  C4  UNK     1      27.508  -8.631  39.578  1.00  0.00     0.046 C 
ENDBRANCH  21  22
ENDBRANCH  18  21
ENDBRANCH  15  17
ENDBRANCH  13  15
ENDBRANCH  12  13
ENDBRANCH   5  12
BRANCH  10  26
HETATM   26  C18 UNK     1      20.510  -2.543  33.100  1.00  0.00     0.442 C 
HETATM   27  F1  UNK     1      19.443  -1.821  32.704  1.00  0.00    -0.164 F 
HETATM   28  F2  UNK     1      21.582  -1.727  33.114  1.00  0.00    -0.164 F 
HETATM   29  F3  UNK     1      20.729  -3.500  32.176  1.00  0.00    -0.164 F 
ENDBRANCH  10  26
BRANCH   8  30
HETATM   30  O4  UNK     1      19.897  -1.043  35.520  1.00  0.00    -0.304 OA
BRANCH  30  31
HETATM   31  C19 UNK     1      18.674  -0.504  35.802  1.00  0.00     0.076 A 
HETATM   32  C20 UNK     1      17.545  -0.933  35.105  1.00  0.00     0.039 A 
HETATM   33  C22 UNK     1      16.296  -0.385  35.394  1.00  0.00     0.026 A 
HETATM   34  C24 UNK     1      16.175   0.595  36.381  1.00  0.00     0.034 A 
HETATM   35  C23 UNK     1      17.305   1.025  37.077  1.00  0.00     0.026 A 
HETATM   36 Cl1  UNK     1      14.634   1.272  36.735  1.00  0.00    -0.084 Cl
HETATM   37  C21 UNK     1      18.554   0.476  36.788  1.00  0.00     0.039 A 
ENDBRANCH  30  31
ENDBRANCH   8  30
TORSDOF 9
ENDMDL
MODEL 7
REMARK VINA RESULT:      -9.1      6.347      9.856
REMARK  9 active torsions:
REMARK  status: ('A' for Active; 'I' for Inactive)
REMARK    1  A    between atoms: C1_13  and  O1_5 
REMARK    2  A    between atoms: C8_20  and  O1_5 
REMARK    3  A    between atoms: C15_27  and  O3_7 
REMARK    4  A    between atoms: C9_21  and  O3_7 
REMARK    5  A    between atoms: C12_24  and  O4_8 
REMARK    6  A    between atoms: C19_31  and  O4_8 
REMARK    7  A    between atoms: C5_17  and  N1_12 
REMARK       I    between atoms: C8_20  and  N1_12 
REMARK    8  A    between atoms: C15_27  and  C5_17 
REMARK    9  A    between atoms: C14_26  and  C18_30 
ROOT
HETATM    1  O2  UNK     1      19.749  -1.129  33.207  1.00  0.00    -0.302 OA
HETATM    2  O6  UNK     1      17.002   1.147  35.171  1.00  0.00    -0.284 OA
HETATM    3  C6  UNK     1      18.534  -0.644  35.250  1.00  0.00     0.051 A 
HETATM    4  C7  UNK     1      19.461  -1.385  34.522  1.00  0.00     0.093 A 
HETATM    5  C9  UNK     1      19.896  -2.746  36.469  1.00  0.00     0.082 A 
HETATM    6  C10 UNK     1      20.144  -2.438  35.131  1.00  0.00     0.075 A 
HETATM    7  C11 UNK     1      17.828   0.462  34.585  1.00  0.00     0.221 A 
HETATM    8  C12 UNK     1      18.172   0.696  33.162  1.00  0.00     0.165 A 
HETATM    9  C13 UNK     1      18.282  -0.949  36.591  1.00  0.00     0.021 A 
HETATM   10  C14 UNK     1      19.088  -0.089  32.570  1.00  0.00     0.197 A 
HETATM   11  C17 UNK     1      18.967  -2.002  37.197  1.00  0.00     0.038 A 
ENDROOT
BRANCH   5  12
HETATM   12  O3  UNK     1      20.562  -3.772  37.065  1.00  0.00    -0.277 OA
BRANCH  12  13
HETATM   13  C15 UNK     1      19.893  -5.007  37.020  1.00  0.00     0.286 C 
HETATM   14  O7  UNK     1      18.801  -5.186  36.490  1.00  0.00    -0.263 OA
BRANCH  13  15
HETATM   15  C5  UNK     1      20.673  -6.126  37.698  1.00  0.00     0.183 C 
HETATM   16  C16 UNK     1      21.938  -5.574  38.336  1.00  0.00     0.043 C 
BRANCH  15  17
HETATM   17  N1  UNK     1      20.996  -7.190  36.783  1.00  0.00    -0.323 N 
HETATM   18  C8  UNK     1      20.176  -8.276  36.545  1.00  0.00     0.362 C 
HETATM   19  O5  UNK     1      19.086  -8.476  37.070  1.00  0.00    -0.238 OA
HETATM   20  H11 UNK     1      21.851  -7.118  36.239  1.00  0.00     0.165 HD
BRANCH  18  21
HETATM   21  O1  UNK     1      20.761  -9.107  35.630  1.00  0.00    -0.294 OA
BRANCH  21  22
HETATM   22  C1  UNK     1      21.582 -10.149  36.167  1.00  0.00     0.061 C 
HETATM   23  C2  UNK     1      22.943  -9.557  36.533  1.00  0.00     0.046 C 
HETATM   24  C3  UNK     1      20.889 -10.725  37.402  1.00  0.00     0.046 C 
HETATM   25  C4  UNK     1      21.733 -11.219  35.088  1.00  0.00     0.046 C 
ENDBRANCH  21  22
ENDBRANCH  18  21
ENDBRANCH  15  17
ENDBRANCH  13  15
ENDBRANCH  12  13
ENDBRANCH   5  12
BRANCH  10  26
HETATM   26  C18 UNK     1      19.506   0.066  31.138  1.00  0.00     0.442 C 
HETATM   27  F1  UNK     1      18.482   0.515  30.384  1.00  0.00    -0.164 F 
HETATM   28  F2  UNK     1      20.522   0.945  31.024  1.00  0.00    -0.164 F 
HETATM   29  F3  UNK     1      19.916  -1.110  30.623  1.00  0.00    -0.164 F 
ENDBRANCH  10  26
BRANCH   8  30
HETATM   30  O4  UNK     1      17.534   1.721  32.499  1.00  0.00    -0.304 OA
BRANCH  30  31
HETATM   31  C19 UNK     1      18.097   2.963  32.591  1.00  0.00     0.076 A 
HETATM   32  C20 UNK     1      18.294   3.549  33.841  1.00  0.00     0.039 A 
HETATM   33  C22 UNK     1      18.872   4.815  33.935  1.00  0.00     0.026 A 
HETATM   34  C24 UNK     1      19.251   5.497  32.778  1.00  0.00     0.034 A 
HETATM   35  C23 UNK     1      19.053   4.911  31.528  1.00  0.00     0.026 A 
HETATM   36 Cl1  UNK     1      19.961   7.059  32.895  1.00  0.00    -0.084 Cl
HETATM   37  C21 UNK     1      18.476   3.644  31.434  1.00  0.00     0.039 A 
ENDBRANCH  30  31
ENDBRANCH   8  30
TORSDOF 9
ENDMDL
MODEL 8
REMARK VINA RESULT:      -9.0     17.971     19.689
REMARK  9 active torsions:
REMARK  status: ('A' for Active; 'I' for Inactive)
REMARK    1  A    between atoms: C1_13  and  O1_5 
REMARK    2  A    between atoms: C8_20  and  O1_5 
REMARK    3  A    between atoms: C15_27  and  O3_7 
REMARK    4  A    between atoms: C9_21  and  O3_7 
REMARK    5  A    between atoms: C12_24  and  O4_8 
REMARK    6  A    between atoms: C19_31  and  O4_8 
REMARK    7  A    between atoms: C5_17  and  N1_12 
REMARK       I    between atoms: C8_20  and  N1_12 
REMARK    8  A    between atoms: C15_27  and  C5_17 
REMARK    9  A    between atoms: C14_26  and  C18_30 
ROOT
HETATM    1  O2  UNK     1      31.306  -6.489  33.158  1.00  0.00    -0.302 OA
HETATM    2  O6  UNK     1      27.612  -6.565  34.869  1.00  0.00    -0.284 OA
HETATM    3  C6  UNK     1      28.923  -6.892  32.938  1.00  0.00     0.051 A 
HETATM    4  C7  UNK     1      30.212  -6.845  32.412  1.00  0.00     0.093 A 
HETATM    5  C9  UNK     1      29.358  -7.543  30.264  1.00  0.00     0.082 A 
HETATM    6  C10 UNK     1      30.431  -7.171  31.074  1.00  0.00     0.075 A 
HETATM    7  C11 UNK     1      28.719  -6.544  34.352  1.00  0.00     0.221 A 
HETATM    8  C12 UNK     1      29.933  -6.164  35.114  1.00  0.00     0.165 A 
HETATM    9  C13 UNK     1      27.845  -7.263  32.130  1.00  0.00     0.021 A 
HETATM   10  C14 UNK     1      31.124  -6.159  34.493  1.00  0.00     0.197 A 
HETATM   11  C17 UNK     1      28.067  -7.589  30.792  1.00  0.00     0.038 A 
ENDROOT
BRANCH   5  12
HETATM   12  O3  UNK     1      29.570  -7.862  28.958  1.00  0.00    -0.277 OA
BRANCH  12  13
HETATM   13  C15 UNK     1      30.416  -8.965  28.757  1.00  0.00     0.286 C 
HETATM   14  O7  UNK     1      31.627  -8.889  28.576  1.00  0.00    -0.263 OA
BRANCH  13  15
HETATM   15  C5  UNK     1      29.671 -10.294  28.794  1.00  0.00     0.183 C 
HETATM   16  C16 UNK     1      28.273 -10.130  28.218  1.00  0.00     0.043 C 
BRANCH  15  17
HETATM   17  N1  UNK     1      29.604 -10.838  30.125  1.00  0.00    -0.323 N 
HETATM   18  C8  UNK     1      30.583 -11.639  30.680  1.00  0.00     0.362 C 
HETATM   19  O5  UNK     1      31.620 -11.987  30.125  1.00  0.00    -0.238 OA
HETATM   20  H11 UNK     1      28.818 -10.579  30.715  1.00  0.00     0.165 HD
BRANCH  18  21
HETATM   21  O1  UNK     1      30.228 -11.992  31.952  1.00  0.00    -0.294 OA
BRANCH  21  22
HETATM   22  C1  UNK     1      30.779 -11.190  33.001  1.00  0.00     0.061 C 
HETATM   23  C2  UNK     1      31.831 -10.258  32.399  1.00  0.00     0.046 C 
HETATM   24  C3  UNK     1      29.648 -10.390  33.647  1.00  0.00     0.046 C 
HETATM   25  C4  UNK     1      31.418 -12.134  34.017  1.00  0.00     0.046 C 
ENDBRANCH  21  22
ENDBRANCH  18  21
ENDBRANCH  15  17
ENDBRANCH  13  15
ENDBRANCH  12  13
ENDBRANCH   5  12
BRANCH  10  26
HETATM   26  C18 UNK     1      32.409  -5.791  35.173  1.00  0.00     0.442 C 
HETATM   27  F1  UNK     1      32.670  -6.631  36.195  1.00  0.00    -0.164 F 
HETATM   28  F2  UNK     1      33.445  -5.849  34.313  1.00  0.00    -0.164 F 
HETATM   29  F3  UNK     1      32.353  -4.539  35.670  1.00  0.00    -0.164 F 
ENDBRANCH  10  26
BRANCH   8  30
HETATM   30  O4  UNK     1      29.788  -5.830  36.443  1.00  0.00    -0.304 OA
BRANCH  30  31
HETATM   31  C19 UNK     1      29.352  -6.814  37.285  1.00  0.00     0.076 A 
HETATM   32  C20 UNK     1      28.370  -6.535  38.235  1.00  0.00     0.039 A 
HETATM   33  C22 UNK     1      27.923  -7.540  39.093  1.00  0.00     0.026 A 
HETATM   34  C24 UNK     1      28.460  -8.825  39.001  1.00  0.00     0.034 A 
HETATM   35  C23 UNK     1      29.442  -9.104  38.051  1.00  0.00     0.026 A 
HETATM   36 Cl1  UNK     1      27.909 -10.063  40.061  1.00  0.00    -0.084 Cl
HETATM   37  C21 UNK     1      29.889  -8.099  37.193  1.00  0.00     0.039 A 
ENDBRANCH  30  31
ENDBRANCH   8  30
TORSDOF 9
ENDMDL
MODEL 9
REMARK VINA RESULT:      -9.0      5.181      7.322
REMARK  9 active torsions:
REMARK  status: ('A' for Active; 'I' for Inactive)
REMARK    1  A    between atoms: C1_13  and  O1_5 
REMARK    2  A    between atoms: C8_20  and  O1_5 
REMARK    3  A    between atoms: C15_27  and  O3_7 
REMARK    4  A    between atoms: C9_21  and  O3_7 
REMARK    5  A    between atoms: C12_24  and  O4_8 
REMARK    6  A    between atoms: C19_31  and  O4_8 
REMARK    7  A    between atoms: C5_17  and  N1_12 
REMARK       I    between atoms: C8_20  and  N1_12 
REMARK    8  A    between atoms: C15_27  and  C5_17 
REMARK    9  A    between atoms: C14_26  and  C18_30 
ROOT
HETATM    1  O2  UNK     1      18.237   1.508  32.074  1.00  0.00    -0.302 OA
HETATM    2  O6  UNK     1      18.727   4.751  34.489  1.00  0.00    -0.284 OA
HETATM    3  C6  UNK     1      18.341   2.431  34.316  1.00  0.00     0.051 A 
HETATM    4  C7  UNK     1      18.181   1.364  33.436  1.00  0.00     0.093 A 
HETATM    5  C9  UNK     1      17.888  -0.131  35.309  1.00  0.00     0.082 A 
HETATM    6  C10 UNK     1      17.954   0.080  33.932  1.00  0.00     0.075 A 
HETATM    7  C11 UNK     1      18.580   3.775  33.767  1.00  0.00     0.221 A 
HETATM    8  C12 UNK     1      18.629   3.879  32.289  1.00  0.00     0.165 A 
HETATM    9  C13 UNK     1      18.276   2.224  35.696  1.00  0.00     0.021 A 
HETATM   10  C14 UNK     1      18.460   2.772  31.547  1.00  0.00     0.197 A 
HETATM   11  C17 UNK     1      18.050   0.939  36.190  1.00  0.00     0.038 A 
ENDROOT
BRANCH   5  12
HETATM   12  O3  UNK     1      17.668  -1.384  35.795  1.00  0.00    -0.277 OA
BRANCH  12  13
HETATM   13  C15 UNK     1      18.398  -1.697  36.954  1.00  0.00     0.286 C 
HETATM   14  O7  UNK     1      18.124  -1.291  38.078  1.00  0.00    -0.263 OA
BRANCH  13  15
HETATM   15  C5  UNK     1      19.583  -2.614  36.675  1.00  0.00     0.183 C 
HETATM   16  C16 UNK     1      20.199  -2.283  35.325  1.00  0.00     0.043 C 
BRANCH  15  17
HETATM   17  N1  UNK     1      19.213  -4.005  36.730  1.00  0.00    -0.323 N 
HETATM   18  C8  UNK     1      20.112  -5.032  36.938  1.00  0.00     0.362 C 
HETATM   19  O5  UNK     1      21.321  -4.902  37.100  1.00  0.00    -0.238 OA
HETATM   20  H11 UNK     1      18.229  -4.247  36.666  1.00  0.00     0.165 HD
BRANCH  18  21
HETATM   21  O1  UNK     1      19.455  -6.231  36.937  1.00  0.00    -0.294 OA
BRANCH  21  22
HETATM   22  C1  UNK     1      19.902  -7.190  37.901  1.00  0.00     0.061 C 
HETATM   23  C2  UNK     1      21.224  -7.785  37.419  1.00  0.00     0.046 C 
HETATM   24  C3  UNK     1      20.081  -6.481  39.244  1.00  0.00     0.046 C 
HETATM   25  C4  UNK     1      18.831  -8.274  38.005  1.00  0.00     0.046 C 
ENDBRANCH  21  22
ENDBRANCH  18  21
ENDBRANCH  15  17
ENDBRANCH  13  15
ENDBRANCH  12  13
ENDBRANCH   5  12
BRANCH  10  26
HETATM   26  C18 UNK     1      18.493   2.770  30.047  1.00  0.00     0.442 C 
HETATM   27  F1  UNK     1      19.519   2.026  29.589  1.00  0.00    -0.164 F 
HETATM   28  F2  UNK     1      17.352   2.262  29.541  1.00  0.00    -0.164 F 
HETATM   29  F3  UNK     1      18.639   4.020  29.564  1.00  0.00    -0.164 F 
ENDBRANCH  10  26
BRANCH   8  30
HETATM   30  O4  UNK     1      18.849   5.119  31.732  1.00  0.00    -0.304 OA
BRANCH  30  31
HETATM   31  C19 UNK     1      17.987   6.118  32.084  1.00  0.00     0.076 A 
HETATM   32  C20 UNK     1      16.613   5.947  31.914  1.00  0.00     0.039 A 
HETATM   33  C22 UNK     1      15.732   6.965  32.276  1.00  0.00     0.026 A 
HETATM   34  C24 UNK     1      16.224   8.157  32.809  1.00  0.00     0.034 A 
HETATM   35  C23 UNK     1      17.597   8.328  32.980  1.00  0.00     0.026 A 
HETATM   36 Cl1  UNK     1      15.136   9.413  33.254  1.00  0.00    -0.084 Cl
HETATM   37  C21 UNK     1      18.479   7.310  32.618  1.00  0.00     0.039 A 
ENDBRANCH  30  31
ENDBRANCH   8  30
TORSDOF 9
ENDMDL
MODEL 10
REMARK VINA RESULT:      -9.0     22.613     24.116
REMARK  9 active torsions:
REMARK  status: ('A' for Active; 'I' for Inactive)
REMARK    1  A    between atoms: C1_13  and  O1_5 
REMARK    2  A    between atoms: C8_20  and  O1_5 
REMARK    3  A    between atoms: C15_27  and  O3_7 
REMARK    4  A    between atoms: C9_21  and  O3_7 
REMARK    5  A    between atoms: C12_24  and  O4_8 
REMARK    6  A    between atoms: C19_31  and  O4_8 
REMARK    7  A    between atoms: C5_17  and  N1_12 
REMARK       I    between atoms: C8_20  and  N1_12 
REMARK    8  A    between atoms: C15_27  and  C5_17 
REMARK    9  A    between atoms: C14_26  and  C18_30 
ROOT
HETATM    1  O2  UNK     1      16.816   8.362   9.647  1.00  0.00    -0.302 OA
HETATM    2  O6  UNK     1      13.399   9.780  11.350  1.00  0.00    -0.284 OA
HETATM    3  C6  UNK     1      15.580  10.232  10.576  1.00  0.00     0.051 A 
HETATM    4  C7  UNK     1      16.719   9.685   9.992  1.00  0.00     0.093 A 
HETATM    5  C9  UNK     1      17.788  11.849  10.061  1.00  0.00     0.082 A 
HETATM    6  C10 UNK     1      17.826  10.494   9.733  1.00  0.00     0.075 A 
HETATM    7  C11 UNK     1      14.426   9.358  10.838  1.00  0.00     0.221 A 
HETATM    8  C12 UNK     1      14.581   7.936  10.449  1.00  0.00     0.165 A 
HETATM    9  C13 UNK     1      15.537  11.589  10.906  1.00  0.00     0.021 A 
HETATM   10  C14 UNK     1      15.733   7.529   9.890  1.00  0.00     0.197 A 
HETATM   11  C17 UNK     1      16.646  12.396  10.646  1.00  0.00     0.038 A 
ENDROOT
BRANCH   5  12
HETATM   12  O3  UNK     1      18.867  12.640   9.808  1.00  0.00    -0.277 OA
BRANCH  12  13
HETATM   13  C15 UNK     1      19.926  12.492  10.720  1.00  0.00     0.286 C 
HETATM   14  O7  UNK     1      19.784  12.276  11.919  1.00  0.00    -0.263 OA
BRANCH  13  15
HETATM   15  C5  UNK     1      21.294  12.619  10.061  1.00  0.00     0.183 C 
HETATM   16  C16 UNK     1      21.262  12.024   8.662  1.00  0.00     0.043 C 
BRANCH  15  17
HETATM   17  N1  UNK     1      22.331  12.000  10.846  1.00  0.00    -0.323 N 
HETATM   18  C8  UNK     1      23.154  12.689  11.715  1.00  0.00     0.362 C 
HETATM   19  O5  UNK     1      23.114  13.896  11.930  1.00  0.00    -0.238 OA
HETATM   20  H11 UNK     1      22.433  10.990  10.803  1.00  0.00     0.165 HD
BRANCH  18  21
HETATM   21  O1  UNK     1      24.030  11.824  12.308  1.00  0.00    -0.294 OA
BRANCH  21  22
HETATM   22  C1  UNK     1      25.357  11.812  11.771  1.00  0.00     0.061 C 
HETATM   23  C2  UNK     1      25.276  12.081  10.268  1.00  0.00     0.046 C 
HETATM   24  C3  UNK     1      26.176  12.895  12.474  1.00  0.00     0.046 C 
HETATM   25  C4  UNK     1      25.951  10.431  12.038  1.00  0.00     0.046 C 
ENDBRANCH  21  22
ENDBRANCH  18  21
ENDBRANCH  15  17
ENDBRANCH  13  15
ENDBRANCH  12  13
ENDBRANCH   5  12
BRANCH  10  26
HETATM   26  C18 UNK     1      15.989   6.115   9.462  1.00  0.00     0.442 C 
HETATM   27  F1  UNK     1      17.297   5.922   9.198  1.00  0.00    -0.164 F 
HETATM   28  F2  UNK     1      15.627   5.246  10.426  1.00  0.00    -0.164 F 
HETATM   29  F3  UNK     1      15.292   5.812   8.348  1.00  0.00    -0.164 F 
ENDBRANCH  10  26
BRANCH   8  30
HETATM   30  O4  UNK     1      13.525   7.081  10.677  1.00  0.00    -0.304 OA
BRANCH  30  31
HETATM   31  C19 UNK     1      12.697   6.824   9.621  1.00  0.00     0.076 A 
HETATM   32  C20 UNK     1      12.252   5.523   9.384  1.00  0.00     0.039 A 
HETATM   33  C22 UNK     1      11.405   5.261   8.308  1.00  0.00     0.026 A 
HETATM   34  C24 UNK     1      11.002   6.299   7.467  1.00  0.00     0.034 A 
HETATM   35  C23 UNK     1      11.446   7.600   7.705  1.00  0.00     0.026 A 
HETATM   36 Cl1  UNK     1       9.958   5.974   6.139  1.00  0.00    -0.084 Cl
HETATM   37  C21 UNK     1      12.294   7.862   8.781  1.00  0.00     0.039 A 
ENDBRANCH  30  31
ENDBRANCH   8  30
TORSDOF 9
ENDMDL
