MODEL 1
REMARK VINA RESULT:      -7.8      0.000      0.000
REMARK  4 active torsions:
REMARK  status: ('A' for Active; 'I' for Inactive)
REMARK    1  A    between atoms: C15_22  and  O4_4 
REMARK    2  A    between atoms: C16_23  and  O6_6 
REMARK       I    between atoms: C6_13  and  N1_7 
REMARK    3  A    between atoms: C3_10  and  C6_13 
REMARK    4  A    between atoms: C3_10  and  C7_14 
ROOT
HETATM    1  O2  UNK     1      28.111  -5.224  39.340  1.00  0.00    -0.274 OA
HETATM    2  O5  UNK     1      29.677  -3.605  39.621  1.00  0.00    -0.259 OA
HETATM    3  C7  UNK     1      30.439  -5.657  38.681  1.00  0.00     0.033 A 
HETATM    4  C8  UNK     1      30.131  -6.918  38.309  1.00  0.00    -0.036 A 
HETATM    5  C9  UNK     1      28.734  -7.385  38.411  1.00  0.00     0.007 A 
HETATM    6  C10 UNK     1      27.771  -6.521  38.924  1.00  0.00     0.093 A 
HETATM    7  C11 UNK     1      29.405  -4.741  39.245  1.00  0.00     0.295 A 
HETATM    8  C12 UNK     1      31.147  -7.910  37.798  1.00  0.00     0.050 C 
HETATM    9  C13 UNK     1      28.301  -8.658  38.009  1.00  0.00     0.054 A 
HETATM   10  C14 UNK     1      26.427  -6.883  39.055  1.00  0.00     0.077 A 
HETATM   11  C15 UNK     1      26.958  -9.038  38.131  1.00  0.00     0.102 A 
HETATM   12  C16 UNK     1      26.023  -8.151  38.655  1.00  0.00     0.104 A 
ENDROOT
BRANCH   3  13
HETATM   13  C3  UNK     1      31.807  -5.036  38.569  1.00  0.00     0.148 C 
BRANCH  13  14
HETATM   14  C6  UNK     1      31.913  -4.456  37.182  1.00  0.00     0.224 C 
HETATM   15  O3  UNK     1      31.123  -3.577  36.832  1.00  0.00    -0.273 OA
HETATM   16  N1  UNK     1      32.926  -4.965  36.371  1.00  0.00    -0.348 N 
HETATM   17  C1  UNK     1      33.101  -4.454  35.012  1.00  0.00     0.152 C 
HETATM   18  C2  UNK     1      33.798  -6.095  36.708  1.00  0.00     0.152 C 
HETATM   19  C4  UNK     1      34.574  -4.194  34.729  1.00  0.00     0.187 C 
HETATM   20  O1  UNK     1      35.341  -5.374  34.979  1.00  0.00    -0.388 OA
HETATM   21  C5  UNK     1      35.243  -5.770  36.350  1.00  0.00     0.187 C 
ENDBRANCH  13  14
ENDBRANCH   3  13
BRANCH  11  22
HETATM   22  O4  UNK     1      26.579 -10.284  37.730  1.00  0.00    -0.353 OA
HETATM   23  C17 UNK     1      26.209 -10.439  36.362  1.00  0.00     0.210 C 
ENDBRANCH  11  22
BRANCH  12  24
HETATM   24  O6  UNK     1      24.715  -8.510  38.778  1.00  0.00    -0.353 OA
HETATM   25  C18 UNK     1      23.777  -7.467  39.038  1.00  0.00     0.210 C 
ENDBRANCH  12  24
TORSDOF 4
ENDMDL
MODEL 2
REMARK VINA RESULT:      -7.8     16.298     18.366
REMARK  4 active torsions:
REMARK  status: ('A' for Active; 'I' for Inactive)
REMARK    1  A    between atoms: C15_22  and  O4_4 
REMARK    2  A    between atoms: C16_23  and  O6_6 
REMARK       I    between atoms: C6_13  and  N1_7 
REMARK    3  A    between atoms: C3_10  and  C6_13 
REMARK    4  A    between atoms: C3_10  and  C7_14 
ROOT
HETATM    1  O2  UNK     1      17.980   4.003  33.513  1.00  0.00    -0.274 OA
HETATM    2  O5  UNK     1      17.673   6.072  34.394  1.00  0.00    -0.259 OA
HETATM    3  C7  UNK     1      18.362   5.988  32.116  1.00  0.00     0.033 A 
HETATM    4  C8  UNK     1      18.733   5.218  31.069  1.00  0.00    -0.036 A 
HETATM    5  C9  UNK     1      18.705   3.748  31.204  1.00  0.00     0.007 A 
HETATM    6  C10 UNK     1      18.330   3.190  32.423  1.00  0.00     0.093 A 
HETATM    7  C11 UNK     1      17.976   5.385  33.424  1.00  0.00     0.295 A 
HETATM    8  C12 UNK     1      19.199   5.774  29.746  1.00  0.00     0.050 C 
HETATM    9  C13 UNK     1      19.026   2.859  30.166  1.00  0.00     0.054 A 
HETATM   10  C14 UNK     1      18.277   1.810  32.635  1.00  0.00     0.077 A 
HETATM   11  C15 UNK     1      18.977   1.473  30.360  1.00  0.00     0.102 A 
HETATM   12  C16 UNK     1      18.604   0.949  31.594  1.00  0.00     0.104 A 
ENDROOT
BRANCH   3  13
HETATM   13  C3  UNK     1      18.285   7.493  32.092  1.00  0.00     0.148 C 
BRANCH  13  14
HETATM   14  C6  UNK     1      16.850   7.853  31.806  1.00  0.00     0.224 C 
HETATM   15  O3  UNK     1      16.292   7.373  30.817  1.00  0.00    -0.273 OA
HETATM   16  N1  UNK     1      16.236   8.723  32.705  1.00  0.00    -0.348 N 
HETATM   17  C1  UNK     1      14.842   9.120  32.504  1.00  0.00     0.152 C 
HETATM   18  C2  UNK     1      16.904   9.410  33.815  1.00  0.00     0.152 C 
HETATM   19  C4  UNK     1      14.075   9.047  33.816  1.00  0.00     0.187 C 
HETATM   20  O1  UNK     1      14.733   9.829  34.817  1.00  0.00    -0.388 OA
HETATM   21  C5  UNK     1      16.049   9.331  35.074  1.00  0.00     0.187 C 
ENDBRANCH  13  14
ENDBRANCH   3  13
BRANCH  11  22
HETATM   22  O4  UNK     1      19.297   0.644  29.327  1.00  0.00    -0.353 OA
HETATM   23  C17 UNK     1      20.533  -0.061  29.421  1.00  0.00     0.210 C 
ENDBRANCH  11  22
BRANCH  12  24
HETATM   24  O6  UNK     1      18.553  -0.397  31.792  1.00  0.00    -0.353 OA
HETATM   25  C18 UNK     1      18.624  -0.858  33.141  1.00  0.00     0.210 C 
ENDBRANCH  12  24
TORSDOF 4
ENDMDL
MODEL 3
REMARK VINA RESULT:      -7.7      2.786      8.037
REMARK  4 active torsions:
REMARK  status: ('A' for Active; 'I' for Inactive)
REMARK    1  A    between atoms: C15_22  and  O4_4 
REMARK    2  A    between atoms: C16_23  and  O6_6 
REMARK       I    between atoms: C6_13  and  N1_7 
REMARK    3  A    between atoms: C3_10  and  C6_13 
REMARK    4  A    between atoms: C3_10  and  C7_14 
ROOT
HETATM    1  O2  UNK     1      27.808  -5.200  38.339  1.00  0.00    -0.274 OA
HETATM    2  O5  UNK     1      25.594  -5.491  38.746  1.00  0.00    -0.259 OA
HETATM    3  C7  UNK     1      26.958  -7.438  38.893  1.00  0.00     0.033 A 
HETATM    4  C8  UNK     1      28.191  -7.973  38.758  1.00  0.00    -0.036 A 
HETATM    5  C9  UNK     1      29.332  -7.095  38.429  1.00  0.00     0.007 A 
HETATM    6  C10 UNK     1      29.101  -5.737  38.230  1.00  0.00     0.093 A 
HETATM    7  C11 UNK     1      26.714  -5.985  38.663  1.00  0.00     0.295 A 
HETATM    8  C12 UNK     1      28.485  -9.446  38.910  1.00  0.00     0.050 C 
HETATM    9  C13 UNK     1      30.657  -7.541  38.312  1.00  0.00     0.054 A 
HETATM   10  C14 UNK     1      30.123  -4.837  37.916  1.00  0.00     0.077 A 
HETATM   11  C15 UNK     1      31.695  -6.654  37.999  1.00  0.00     0.102 A 
HETATM   12  C16 UNK     1      31.426  -5.303  37.800  1.00  0.00     0.104 A 
ENDROOT
BRANCH   3  13
HETATM   13  C3  UNK     1      25.724  -8.208  39.287  1.00  0.00     0.148 C 
BRANCH  13  14
HETATM   14  C6  UNK     1      24.951  -8.473  38.020  1.00  0.00     0.224 C 
HETATM   15  O3  UNK     1      25.559  -8.786  36.994  1.00  0.00    -0.273 OA
HETATM   16  N1  UNK     1      23.566  -8.344  38.098  1.00  0.00    -0.348 N 
HETATM   17  C1  UNK     1      22.740  -8.588  36.916  1.00  0.00     0.152 C 
HETATM   18  C2  UNK     1      22.822  -7.851  39.263  1.00  0.00     0.152 C 
HETATM   19  C4  UNK     1      21.535  -9.445  37.279  1.00  0.00     0.187 C 
HETATM   20  O1  UNK     1      20.803  -8.841  38.349  1.00  0.00    -0.388 OA
HETATM   21  C5  UNK     1      21.609  -8.735  39.526  1.00  0.00     0.187 C 
ENDBRANCH  13  14
ENDBRANCH   3  13
BRANCH  11  22
HETATM   22  O4  UNK     1      32.968  -7.128  37.894  1.00  0.00    -0.353 OA
HETATM   23  C17 UNK     1      33.292  -7.857  36.711  1.00  0.00     0.210 C 
ENDBRANCH  11  22
BRANCH  12  24
HETATM   24  O6  UNK     1      32.428  -4.432  37.496  1.00  0.00    -0.353 OA
HETATM   25  C18 UNK     1      32.495  -3.964  36.150  1.00  0.00     0.210 C 
ENDBRANCH  12  24
TORSDOF 4
ENDMDL
MODEL 4
REMARK VINA RESULT:      -7.5     35.661     36.991
REMARK  4 active torsions:
REMARK  status: ('A' for Active; 'I' for Inactive)
REMARK    1  A    between atoms: C15_22  and  O4_4 
REMARK    2  A    between atoms: C16_23  and  O6_6 
REMARK       I    between atoms: C6_13  and  N1_7 
REMARK    3  A    between atoms: C3_10  and  C6_13 
REMARK    4  A    between atoms: C3_10  and  C7_14 
ROOT
HETATM    1  O2  UNK     1       8.965   5.066   8.602  1.00  0.00    -0.274 OA
HETATM    2  O5  UNK     1      10.910   5.516   7.523  1.00  0.00    -0.259 OA
HETATM    3  C7  UNK     1       9.950   7.313   8.757  1.00  0.00     0.033 A 
HETATM    4  C8  UNK     1       8.919   7.746   9.516  1.00  0.00    -0.036 A 
HETATM    5  C9  UNK     1       7.847   6.802   9.889  1.00  0.00     0.007 A 
HETATM    6  C10 UNK     1       7.906   5.494   9.419  1.00  0.00     0.093 A 
HETATM    7  C11 UNK     1      10.000   5.913   8.243  1.00  0.00     0.295 A 
HETATM    8  C12 UNK     1       8.781   9.166  10.005  1.00  0.00     0.050 C 
HETATM    9  C13 UNK     1       6.758   7.137  10.709  1.00  0.00     0.054 A 
HETATM   10  C14 UNK     1       6.933   4.538   9.725  1.00  0.00     0.077 A 
HETATM   11  C15 UNK     1       5.774   6.193  11.028  1.00  0.00     0.102 A 
HETATM   12  C16 UNK     1       5.862   4.894  10.534  1.00  0.00     0.104 A 
ENDROOT
BRANCH   3  13
HETATM   13  C3  UNK     1      11.137   8.151   8.358  1.00  0.00     0.148 C 
BRANCH  13  14
HETATM   14  C6  UNK     1      12.145   8.042   9.474  1.00  0.00     0.224 C 
HETATM   15  O3  UNK     1      11.870   8.501  10.584  1.00  0.00    -0.273 OA
HETATM   16  N1  UNK     1      13.347   7.409   9.165  1.00  0.00    -0.348 N 
HETATM   17  C1  UNK     1      14.378   7.256  10.192  1.00  0.00     0.152 C 
HETATM   18  C2  UNK     1      13.757   6.967   7.828  1.00  0.00     0.152 C 
HETATM   19  C4  UNK     1      14.949   5.846  10.164  1.00  0.00     0.187 C 
HETATM   20  O1  UNK     1      15.424   5.531   8.852  1.00  0.00    -0.388 OA
HETATM   21  C5  UNK     1      14.360   5.569   7.898  1.00  0.00     0.187 C 
ENDBRANCH  13  14
ENDBRANCH   3  13
BRANCH  11  22
HETATM   22  O4  UNK     1       4.732   6.559  11.827  1.00  0.00    -0.353 OA
HETATM   23  C17 UNK     1       4.599   7.948  12.121  1.00  0.00     0.210 C 
ENDBRANCH  11  22
BRANCH  12  24
HETATM   24  O6  UNK     1       4.911   3.969  10.839  1.00  0.00    -0.353 OA
HETATM   25  C18 UNK     1       5.354   2.630  11.055  1.00  0.00     0.210 C 
ENDBRANCH  12  24
TORSDOF 4
ENDMDL
MODEL 5
REMARK VINA RESULT:      -7.5     15.846     18.067
REMARK  4 active torsions:
REMARK  status: ('A' for Active; 'I' for Inactive)
REMARK    1  A    between atoms: C15_22  and  O4_4 
REMARK    2  A    between atoms: C16_23  and  O6_6 
REMARK       I    between atoms: C6_13  and  N1_7 
REMARK    3  A    between atoms: C3_10  and  C6_13 
REMARK    4  A    between atoms: C3_10  and  C7_14 
ROOT
HETATM    1  O2  UNK     1      19.044   3.759  30.335  1.00  0.00    -0.274 OA
HETATM    2  O5  UNK     1      19.220   5.855  29.481  1.00  0.00    -0.259 OA
HETATM    3  C7  UNK     1      18.570   5.699  31.767  1.00  0.00     0.033 A 
HETATM    4  C8  UNK     1      18.259   4.894  32.807  1.00  0.00    -0.036 A 
HETATM    5  C9  UNK     1      18.368   3.430  32.649  1.00  0.00     0.007 A 
HETATM    6  C10 UNK     1      18.757   2.912  31.417  1.00  0.00     0.093 A 
HETATM    7  C11 UNK     1      18.970   5.138  30.445  1.00  0.00     0.295 A 
HETATM    8  C12 UNK     1      17.781   5.404  34.144  1.00  0.00     0.050 C 
HETATM    9  C13 UNK     1      18.114   2.510  33.677  1.00  0.00     0.054 A 
HETATM   10  C14 UNK     1      18.885   1.541  31.183  1.00  0.00     0.077 A 
HETATM   11  C15 UNK     1      18.239   1.132  33.463  1.00  0.00     0.102 A 
HETATM   12  C16 UNK     1      18.623   0.648  32.215  1.00  0.00     0.104 A 
ENDROOT
BRANCH   3  13
HETATM   13  C3  UNK     1      18.561   7.205  31.812  1.00  0.00     0.148 C 
BRANCH  13  14
HETATM   14  C6  UNK     1      17.135   7.642  31.594  1.00  0.00     0.224 C 
HETATM   15  O3  UNK     1      16.544   7.289  30.571  1.00  0.00    -0.273 OA
HETATM   16  N1  UNK     1      16.566   8.430  32.593  1.00  0.00    -0.348 N 
HETATM   17  C1  UNK     1      15.185   8.892  32.463  1.00  0.00     0.152 C 
HETATM   18  C2  UNK     1      17.276   8.971  33.757  1.00  0.00     0.152 C 
HETATM   19  C4  UNK     1      14.437   8.704  33.776  1.00  0.00     0.187 C 
HETATM   20  O1  UNK     1      15.138   9.351  34.841  1.00  0.00    -0.388 OA
HETATM   21  C5  UNK     1      16.440   8.785  35.017  1.00  0.00     0.187 C 
ENDBRANCH  13  14
ENDBRANCH   3  13
BRANCH  11  22
HETATM   22  O4  UNK     1      17.981   0.270  34.487  1.00  0.00    -0.353 OA
HETATM   23  C17 UNK     1      16.631   0.186  34.938  1.00  0.00     0.210 C 
ENDBRANCH  11  22
BRANCH  12  24
HETATM   24  O6  UNK     1      18.748  -0.690  31.996  1.00  0.00    -0.353 OA
HETATM   25  C18 UNK     1      19.914  -1.128  31.299  1.00  0.00     0.210 C 
ENDBRANCH  12  24
TORSDOF 4
ENDMDL
MODEL 6
REMARK VINA RESULT:      -7.4      4.327      7.705
REMARK  4 active torsions:
REMARK  status: ('A' for Active; 'I' for Inactive)
REMARK    1  A    between atoms: C15_22  and  O4_4 
REMARK    2  A    between atoms: C16_23  and  O6_6 
REMARK       I    between atoms: C6_13  and  N1_7 
REMARK    3  A    between atoms: C3_10  and  C6_13 
REMARK    4  A    between atoms: C3_10  and  C7_14 
ROOT
HETATM    1  O2  UNK     1      22.772  -4.976  38.261  1.00  0.00    -0.274 OA
HETATM    2  O5  UNK     1      24.806  -5.535  39.096  1.00  0.00    -0.259 OA
HETATM    3  C7  UNK     1      23.279  -7.330  38.750  1.00  0.00     0.033 A 
HETATM    4  C8  UNK     1      22.039  -7.708  38.372  1.00  0.00    -0.036 A 
HETATM    5  C9  UNK     1      21.092  -6.692  37.870  1.00  0.00     0.007 A 
HETATM    6  C10 UNK     1      21.491  -5.359  37.832  1.00  0.00     0.093 A 
HETATM    7  C11 UNK     1      23.696  -5.898  38.722  1.00  0.00     0.295 A 
HETATM    8  C12 UNK     1      21.539  -9.130  38.445  1.00  0.00     0.050 C 
HETATM    9  C13 UNK     1      19.798  -6.984  37.410  1.00  0.00     0.054 A 
HETATM   10  C14 UNK     1      20.658  -4.336  37.372  1.00  0.00     0.077 A 
HETATM   11  C15 UNK     1      18.950  -5.973  36.944  1.00  0.00     0.102 A 
HETATM   12  C16 UNK     1      19.380  -4.649  36.927  1.00  0.00     0.104 A 
ENDROOT
BRANCH   3  13
HETATM   13  C3  UNK     1      24.360  -8.270  39.220  1.00  0.00     0.148 C 
BRANCH  13  14
HETATM   14  C6  UNK     1      25.242  -8.551  38.030  1.00  0.00     0.224 C 
HETATM   15  O3  UNK     1      24.730  -8.914  36.969  1.00  0.00    -0.273 OA
HETATM   16  N1  UNK     1      26.612  -8.372  38.217  1.00  0.00    -0.348 N 
HETATM   17  C1  UNK     1      27.539  -8.618  37.112  1.00  0.00     0.152 C 
HETATM   18  C2  UNK     1      27.264  -8.065  39.494  1.00  0.00     0.152 C 
HETATM   19  C4  UNK     1      28.564  -7.496  37.021  1.00  0.00     0.187 C 
HETATM   20  O1  UNK     1      29.230  -7.333  38.276  1.00  0.00    -0.388 OA
HETATM   21  C5  UNK     1      28.305  -6.970  39.305  1.00  0.00     0.187 C 
ENDBRANCH  13  14
ENDBRANCH   3  13
BRANCH  11  22
HETATM   22  O4  UNK     1      17.701  -6.298  36.507  1.00  0.00    -0.353 OA
HETATM   23  C17 UNK     1      17.607  -7.320  35.517  1.00  0.00     0.210 C 
ENDBRANCH  11  22
BRANCH  12  24
HETATM   24  O6  UNK     1      18.563  -3.658  36.475  1.00  0.00    -0.353 OA
HETATM   25  C18 UNK     1      18.913  -2.319  36.823  1.00  0.00     0.210 C 
ENDBRANCH  12  24
TORSDOF 4
ENDMDL
MODEL 7
REMARK VINA RESULT:      -7.4     34.774     36.596
REMARK  4 active torsions:
REMARK  status: ('A' for Active; 'I' for Inactive)
REMARK    1  A    between atoms: C15_22  and  O4_4 
REMARK    2  A    between atoms: C16_23  and  O6_6 
REMARK       I    between atoms: C6_13  and  N1_7 
REMARK    3  A    between atoms: C3_10  and  C6_13 
REMARK    4  A    between atoms: C3_10  and  C7_14 
ROOT
HETATM    1  O2  UNK     1      16.512   7.029   9.906  1.00  0.00    -0.274 OA
HETATM    2  O5  UNK     1      15.865   4.877   9.584  1.00  0.00    -0.259 OA
HETATM    3  C7  UNK     1      14.363   6.556   8.810  1.00  0.00     0.033 A 
HETATM    4  C8  UNK     1      14.090   7.875   8.708  1.00  0.00    -0.036 A 
HETATM    5  C9  UNK     1      15.079   8.860   9.190  1.00  0.00     0.007 A 
HETATM    6  C10 UNK     1      16.256   8.403   9.774  1.00  0.00     0.093 A 
HETATM    7  C11 UNK     1      15.620   6.072   9.451  1.00  0.00     0.295 A 
HETATM    8  C12 UNK     1      12.806   8.421   8.133  1.00  0.00     0.050 C 
HETATM    9  C13 UNK     1      14.914  10.251   9.090  1.00  0.00     0.054 A 
HETATM   10  C14 UNK     1      17.243   9.267  10.257  1.00  0.00     0.077 A 
HETATM   11  C15 UNK     1      15.892  11.132   9.566  1.00  0.00     0.102 A 
HETATM   12  C16 UNK     1      17.056  10.639  10.151  1.00  0.00     0.104 A 
ENDROOT
BRANCH   3  13
HETATM   13  C3  UNK     1      13.473   5.451   8.302  1.00  0.00     0.148 C 
BRANCH  13  14
HETATM   14  C6  UNK     1      12.201   5.509   9.107  1.00  0.00     0.224 C 
HETATM   15  O3  UNK     1      12.260   5.444  10.337  1.00  0.00    -0.273 OA
HETATM   16  N1  UNK     1      11.015   5.641   8.387  1.00  0.00    -0.348 N 
HETATM   17  C1  UNK     1       9.735   5.710   9.092  1.00  0.00     0.152 C 
HETATM   18  C2  UNK     1      10.897   5.594   6.926  1.00  0.00     0.152 C 
HETATM   19  C4  UNK     1       8.870   6.821   8.513  1.00  0.00     0.187 C 
HETATM   20  O1  UNK     1       8.716   6.643   7.103  1.00  0.00    -0.388 OA
HETATM   21  C5  UNK     1       9.980   6.707   6.435  1.00  0.00     0.187 C 
ENDBRANCH  13  14
ENDBRANCH   3  13
BRANCH  11  22
HETATM   22  O4  UNK     1      15.693  12.475   9.451  1.00  0.00    -0.353 OA
HETATM   23  C17 UNK     1      15.891  13.050   8.161  1.00  0.00     0.210 C 
ENDBRANCH  11  22
BRANCH  12  24
HETATM   24  O6  UNK     1      18.013  11.488  10.617  1.00  0.00    -0.353 OA
HETATM   25  C18 UNK     1      19.106  11.774   9.746  1.00  0.00     0.210 C 
ENDBRANCH  12  24
TORSDOF 4
ENDMDL
MODEL 8
REMARK VINA RESULT:      -7.3      2.009      7.136
REMARK  4 active torsions:
REMARK  status: ('A' for Active; 'I' for Inactive)
REMARK    1  A    between atoms: C15_22  and  O4_4 
REMARK    2  A    between atoms: C16_23  and  O6_6 
REMARK       I    between atoms: C6_13  and  N1_7 
REMARK    3  A    between atoms: C3_10  and  C6_13 
REMARK    4  A    between atoms: C3_10  and  C7_14 
ROOT
HETATM    1  O2  UNK     1      30.665  -4.195  38.026  1.00  0.00    -0.274 OA
HETATM    2  O5  UNK     1      28.718  -3.932  39.161  1.00  0.00    -0.259 OA
HETATM    3  C7  UNK     1      29.406  -6.176  38.756  1.00  0.00     0.033 A 
HETATM    4  C8  UNK     1      30.311  -7.000  38.183  1.00  0.00    -0.036 A 
HETATM    5  C9  UNK     1      31.495  -6.425  37.513  1.00  0.00     0.007 A 
HETATM    6  C10 UNK     1      31.631  -5.041  37.457  1.00  0.00     0.093 A 
HETATM    7  C11 UNK     1      29.550  -4.693  38.678  1.00  0.00     0.295 A 
HETATM    8  C12 UNK     1      30.181  -8.503  38.169  1.00  0.00     0.050 C 
HETATM    9  C13 UNK     1      32.515  -7.191  36.928  1.00  0.00     0.054 A 
HETATM   10  C14 UNK     1      32.719  -4.415  36.843  1.00  0.00     0.077 A 
HETATM   11  C15 UNK     1      33.614  -6.582  36.310  1.00  0.00     0.102 A 
HETATM   12  C16 UNK     1      33.715  -5.195  36.266  1.00  0.00     0.104 A 
ENDROOT
BRANCH   3  13
HETATM   13  C3  UNK     1      28.191  -6.631  39.522  1.00  0.00     0.148 C 
BRANCH  13  14
HETATM   14  C6  UNK     1      27.139  -6.985  38.503  1.00  0.00     0.224 C 
HETATM   15  O3  UNK     1      26.758  -6.127  37.703  1.00  0.00    -0.273 OA
HETATM   16  N1  UNK     1      26.659  -8.293  38.533  1.00  0.00    -0.348 N 
HETATM   17  C1  UNK     1      25.640  -8.721  37.575  1.00  0.00     0.152 C 
HETATM   18  C2  UNK     1      26.994  -9.299  39.546  1.00  0.00     0.152 C 
HETATM   19  C4  UNK     1      25.998 -10.080  36.991  1.00  0.00     0.187 C 
HETATM   20  O1  UNK     1      26.204 -11.030  38.040  1.00  0.00    -0.388 OA
HETATM   21  C5  UNK     1      27.292 -10.637  38.882  1.00  0.00     0.187 C 
ENDBRANCH  13  14
ENDBRANCH   3  13
BRANCH  11  22
HETATM   22  O4  UNK     1      34.583  -7.363  35.753  1.00  0.00    -0.353 OA
HETATM   23  C17 UNK     1      34.283  -7.969  34.498  1.00  0.00     0.210 C 
ENDBRANCH  11  22
BRANCH  12  24
HETATM   24  O6  UNK     1      34.779  -4.593  35.668  1.00  0.00    -0.353 OA
HETATM   25  C18 UNK     1      34.504  -3.747  34.552  1.00  0.00     0.210 C 
ENDBRANCH  12  24
TORSDOF 4
ENDMDL
MODEL 9
REMARK VINA RESULT:      -7.3      2.183      3.732
REMARK  4 active torsions:
REMARK  status: ('A' for Active; 'I' for Inactive)
REMARK    1  A    between atoms: C15_22  and  O4_4 
REMARK    2  A    between atoms: C16_23  and  O6_6 
REMARK       I    between atoms: C6_13  and  N1_7 
REMARK    3  A    between atoms: C3_10  and  C6_13 
REMARK    4  A    between atoms: C3_10  and  C7_14 
ROOT
HETATM    1  O2  UNK     1      25.583  -5.117  38.911  1.00  0.00    -0.274 OA
HETATM    2  O5  UNK     1      27.770  -4.509  38.879  1.00  0.00    -0.259 OA
HETATM    3  C7  UNK     1      27.326  -6.848  38.838  1.00  0.00     0.033 A 
HETATM    4  C8  UNK     1      26.396  -7.828  38.875  1.00  0.00    -0.036 A 
HETATM    5  C9  UNK     1      24.964  -7.470  38.895  1.00  0.00     0.007 A 
HETATM    6  C10 UNK     1      24.606  -6.125  38.913  1.00  0.00     0.093 A 
HETATM    7  C11 UNK     1      26.936  -5.409  38.874  1.00  0.00     0.295 A 
HETATM    8  C12 UNK     1      26.733  -9.299  38.912  1.00  0.00     0.050 C 
HETATM    9  C13 UNK     1      23.920  -8.408  38.887  1.00  0.00     0.054 A 
HETATM   10  C14 UNK     1      23.275  -5.700  38.934  1.00  0.00     0.077 A 
HETATM   11  C15 UNK     1      22.580  -8.001  38.906  1.00  0.00     0.102 A 
HETATM   12  C16 UNK     1      22.259  -6.647  38.930  1.00  0.00     0.104 A 
ENDROOT
BRANCH   3  13
HETATM   13  C3  UNK     1      28.813  -7.076  38.752  1.00  0.00     0.148 C 
BRANCH  13  14
HETATM   14  C6  UNK     1      29.212  -6.817  37.321  1.00  0.00     0.224 C 
HETATM   15  O3  UNK     1      28.375  -6.952  36.426  1.00  0.00    -0.273 OA
HETATM   16  N1  UNK     1      30.533  -6.430  37.105  1.00  0.00    -0.348 N 
HETATM   17  C1  UNK     1      31.002  -6.155  35.747  1.00  0.00     0.152 C 
HETATM   18  C2  UNK     1      31.585  -6.384  38.127  1.00  0.00     0.152 C 
HETATM   19  C4  UNK     1      31.824  -4.874  35.719  1.00  0.00     0.187 C 
HETATM   20  O1  UNK     1      32.892  -4.952  36.667  1.00  0.00    -0.388 OA
HETATM   21  C5  UNK     1      32.388  -5.096  37.998  1.00  0.00     0.187 C 
ENDBRANCH  13  14
ENDBRANCH   3  13
BRANCH  11  22
HETATM   22  O4  UNK     1      21.596  -8.944  38.898  1.00  0.00    -0.353 OA
HETATM   23  C17 UNK     1      21.290  -9.549  37.644  1.00  0.00     0.210 C 
ENDBRANCH  11  22
BRANCH  12  24
HETATM   24  O6  UNK     1      20.960  -6.241  38.948  1.00  0.00    -0.353 OA
HETATM   25  C18 UNK     1      20.454  -5.631  37.761  1.00  0.00     0.210 C 
ENDBRANCH  12  24
TORSDOF 4
ENDMDL
MODEL 10
REMARK VINA RESULT:      -7.2     35.509     36.778
REMARK  4 active torsions:
REMARK  status: ('A' for Active; 'I' for Inactive)
REMARK    1  A    between atoms: C15_22  and  O4_4 
REMARK    2  A    between atoms: C16_23  and  O6_6 
REMARK       I    between atoms: C6_13  and  N1_7 
REMARK    3  A    between atoms: C3_10  and  C6_13 
REMARK    4  A    between atoms: C3_10  and  C7_14 
ROOT
HETATM    1  O2  UNK     1       9.946   5.018   8.561  1.00  0.00    -0.274 OA
HETATM    2  O5  UNK     1      12.063   4.695   7.811  1.00  0.00    -0.259 OA
HETATM    3  C7  UNK     1      11.517   6.907   8.505  1.00  0.00     0.033 A 
HETATM    4  C8  UNK     1      10.568   7.750   8.966  1.00  0.00    -0.036 A 
HETATM    5  C9  UNK     1       9.225   7.226   9.287  1.00  0.00     0.007 A 
HETATM    6  C10 UNK     1       8.960   5.877   9.073  1.00  0.00     0.093 A 
HETATM    7  C11 UNK     1      11.222   5.465   8.263  1.00  0.00     0.295 A 
HETATM    8  C12 UNK     1      10.788   9.230   9.163  1.00  0.00     0.050 C 
HETATM    9  C13 UNK     1       8.183   8.006   9.813  1.00  0.00     0.054 A 
HETATM   10  C14 UNK     1       7.717   5.300   9.350  1.00  0.00     0.077 A 
HETATM   11  C15 UNK     1       6.932   7.446  10.098  1.00  0.00     0.102 A 
HETATM   12  C16 UNK     1       6.700   6.093   9.865  1.00  0.00     0.104 A 
ENDROOT
BRANCH   3  13
HETATM   13  C3  UNK     1      12.940   7.297   8.200  1.00  0.00     0.148 C 
BRANCH  13  14
HETATM   14  C6  UNK     1      13.677   7.331   9.514  1.00  0.00     0.224 C 
HETATM   15  O3  UNK     1      13.589   6.370  10.282  1.00  0.00    -0.273 OA
HETATM   16  N1  UNK     1      14.430   8.473   9.776  1.00  0.00    -0.348 N 
HETATM   17  C1  UNK     1      15.180   8.585  11.027  1.00  0.00     0.152 C 
HETATM   18  C2  UNK     1      14.456   9.684   8.948  1.00  0.00     0.152 C 
HETATM   19  C4  UNK     1      16.583   9.111  10.759  1.00  0.00     0.187 C 
HETATM   20  O1  UNK     1      16.519  10.347  10.041  1.00  0.00    -0.388 OA
HETATM   21  C5  UNK     1      15.889  10.169   8.769  1.00  0.00     0.187 C 
ENDBRANCH  13  14
ENDBRANCH   3  13
BRANCH  11  22
HETATM   22  O4  UNK     1       5.947   8.238  10.607  1.00  0.00    -0.353 OA
HETATM   23  C17 UNK     1       5.961   8.465  12.015  1.00  0.00     0.210 C 
ENDBRANCH  11  22
BRANCH  12  24
HETATM   24  O6  UNK     1       5.487   5.539  10.140  1.00  0.00    -0.353 OA
HETATM   25  C18 UNK     1       5.476   4.384  10.978  1.00  0.00     0.210 C 
ENDBRANCH  12  24
TORSDOF 4
ENDMDL
