MODEL 1
REMARK VINA RESULT:      -8.5      0.000      0.000
REMARK  3 active torsions:
REMARK  status: ('A' for Active; 'I' for Inactive)
REMARK    1  A    between atoms: C6_10  and  O2_2 
REMARK    2  A    between atoms: C9_13  and  O4_4 
REMARK    3  A    between atoms: C3_7  and  C5_9 
ROOT
HETATM    1  O1  UNK     1      18.784  -0.480  33.550  1.00  0.00    -0.309 OA
HETATM    2  O3  UNK     1      20.513  -3.500  35.668  1.00  0.00    -0.287 OA
HETATM    3  C1  UNK     1      19.066  -1.633  35.669  1.00  0.00     0.081 A 
HETATM    4  C2  UNK     1      18.508  -0.623  34.886  1.00  0.00     0.095 A 
HETATM    5  C3  UNK     1      19.661  -1.375  32.956  1.00  0.00     0.090 A 
HETATM    6  C4  UNK     1      19.990  -2.589  35.041  1.00  0.00     0.190 A 
HETATM    7  C6  UNK     1      18.749  -1.731  37.026  1.00  0.00     0.085 A 
HETATM    8  C7  UNK     1      20.255  -2.391  33.602  1.00  0.00     0.094 A 
HETATM    9  C8  UNK     1      17.627   0.296  35.457  1.00  0.00     0.075 A 
HETATM   10  C9  UNK     1      17.308   0.201  36.811  1.00  0.00     0.071 A 
HETATM   11  C10 UNK     1      17.867  -0.810  37.594  1.00  0.00     0.074 A 
ENDROOT
BRANCH   5  12
HETATM   12  C5  UNK     1      19.882  -1.134  31.516  1.00  0.00    -0.002 A 
HETATM   13  C11 UNK     1      20.280  -2.182  30.682  1.00  0.00     0.014 A 
HETATM   14  C13 UNK     1      20.489  -1.954  29.322  1.00  0.00     0.001 A 
HETATM   15  C15 UNK     1      20.299  -0.678  28.791  1.00  0.00     0.000 A 
HETATM   16  C14 UNK     1      19.901   0.371  29.621  1.00  0.00     0.001 A 
HETATM   17  C12 UNK     1      19.693   0.143  30.982  1.00  0.00     0.014 A 
ENDBRANCH   5  12
BRANCH   7  18
HETATM   18  O2  UNK     1      19.266  -2.698  37.833  1.00  0.00    -0.360 OA
HETATM   19  H9  UNK     1      19.948  -2.328  38.415  1.00  0.00     0.217 HD
ENDBRANCH   7  18
BRANCH  10  20
HETATM   20  O4  UNK     1      16.448   1.096  37.370  1.00  0.00    -0.361 OA
HETATM   21  H10 UNK     1      16.398   0.930  38.328  1.00  0.00     0.217 HD
ENDBRANCH  10  20
TORSDOF 3
ENDMDL
MODEL 2
REMARK VINA RESULT:      -8.2      2.540      6.886
REMARK  3 active torsions:
REMARK  status: ('A' for Active; 'I' for Inactive)
REMARK    1  A    between atoms: C6_10  and  O2_2 
REMARK    2  A    between atoms: C9_13  and  O4_4 
REMARK    3  A    between atoms: C3_7  and  C5_9 
ROOT
HETATM    1  O1  UNK     1      18.861  -0.308  33.259  1.00  0.00    -0.309 OA
HETATM    2  O3  UNK     1      18.657   2.709  30.528  1.00  0.00    -0.287 OA
HETATM    3  C1  UNK     1      19.300   0.486  31.006  1.00  0.00     0.081 A 
HETATM    4  C2  UNK     1      19.337  -0.504  31.987  1.00  0.00     0.095 A 
HETATM    5  C3  UNK     1      18.325   0.929  33.581  1.00  0.00     0.090 A 
HETATM    6  C4  UNK     1      18.724   1.797  31.341  1.00  0.00     0.190 A 
HETATM    7  C6  UNK     1      19.800   0.231  29.727  1.00  0.00     0.085 A 
HETATM    8  C7  UNK     1      18.227   1.957  32.722  1.00  0.00     0.094 A 
HETATM    9  C8  UNK     1      19.876  -1.757  31.694  1.00  0.00     0.075 A 
HETATM   10  C9  UNK     1      20.376  -2.015  30.418  1.00  0.00     0.071 A 
HETATM   11  C10 UNK     1      20.338  -1.024  29.437  1.00  0.00     0.074 A 
ENDROOT
BRANCH   5  12
HETATM   12  C5  UNK     1      17.836   1.029  34.971  1.00  0.00    -0.002 A 
HETATM   13  C11 UNK     1      18.619   1.649  35.948  1.00  0.00     0.014 A 
HETATM   14  C13 UNK     1      18.157   1.742  37.261  1.00  0.00     0.001 A 
HETATM   15  C15 UNK     1      16.910   1.217  37.601  1.00  0.00     0.000 A 
HETATM   16  C14 UNK     1      16.126   0.598  36.628  1.00  0.00     0.001 A 
HETATM   17  C12 UNK     1      16.588   0.503  35.315  1.00  0.00     0.014 A 
ENDBRANCH   5  12
BRANCH   7  18
HETATM   18  O2  UNK     1      19.786   1.162  28.734  1.00  0.00    -0.360 OA
HETATM   19  H9  UNK     1      19.788   2.058  29.107  1.00  0.00     0.217 HD
ENDBRANCH   7  18
BRANCH  10  20
HETATM   20  O4  UNK     1      20.902  -3.237  30.130  1.00  0.00    -0.361 OA
HETATM   21  H10 UNK     1      20.316  -3.926  30.491  1.00  0.00     0.217 HD
ENDBRANCH  10  20
TORSDOF 3
ENDMDL
MODEL 3
REMARK VINA RESULT:      -8.2     13.938     17.303
REMARK  3 active torsions:
REMARK  status: ('A' for Active; 'I' for Inactive)
REMARK    1  A    between atoms: C6_10  and  O2_2 
REMARK    2  A    between atoms: C9_13  and  O4_4 
REMARK    3  A    between atoms: C3_7  and  C5_9 
ROOT
HETATM    1  O1  UNK     1      19.147  -1.051  17.600  1.00  0.00    -0.309 OA
HETATM    2  O3  UNK     1      19.171   2.360  15.372  1.00  0.00    -0.287 OA
HETATM    3  C1  UNK     1      19.138   1.376  17.520  1.00  0.00     0.081 A 
HETATM    4  C2  UNK     1      19.132   0.172  18.222  1.00  0.00     0.095 A 
HETATM    5  C3  UNK     1      19.161  -1.088  16.214  1.00  0.00     0.090 A 
HETATM    6  C4  UNK     1      19.163   1.341  16.050  1.00  0.00     0.190 A 
HETATM    7  C6  UNK     1      19.123   2.593  18.206  1.00  0.00     0.085 A 
HETATM    8  C7  UNK     1      19.176   0.002  15.429  1.00  0.00     0.094 A 
HETATM    9  C8  UNK     1      19.111   0.177  19.617  1.00  0.00     0.075 A 
HETATM   10  C9  UNK     1      19.096   1.390  20.304  1.00  0.00     0.071 A 
HETATM   11  C10 UNK     1      19.102   2.595  19.601  1.00  0.00     0.074 A 
ENDROOT
BRANCH   5  12
HETATM   12  C5  UNK     1      19.183  -2.452  15.650  1.00  0.00    -0.002 A 
HETATM   13  C11 UNK     1      20.377  -3.176  15.605  1.00  0.00     0.014 A 
HETATM   14  C13 UNK     1      20.397  -4.464  15.071  1.00  0.00     0.001 A 
HETATM   15  C15 UNK     1      19.222  -5.034  14.582  1.00  0.00     0.000 A 
HETATM   16  C14 UNK     1      18.027  -4.315  14.625  1.00  0.00     0.001 A 
HETATM   17  C12 UNK     1      18.007  -3.026  15.157  1.00  0.00     0.014 A 
ENDBRANCH   5  12
BRANCH   7  18
HETATM   18  O2  UNK     1      19.128   3.796  17.567  1.00  0.00    -0.360 OA
HETATM   19  H9  UNK     1      18.326   4.298  17.779  1.00  0.00     0.217 HD
ENDBRANCH   7  18
BRANCH  10  20
HETATM   20  O4  UNK     1      19.076   1.398  21.666  1.00  0.00    -0.361 OA
HETATM   21  H10 UNK     1      19.992   1.386  21.995  1.00  0.00     0.217 HD
ENDBRANCH  10  20
TORSDOF 3
ENDMDL
MODEL 4
REMARK VINA RESULT:      -8.1      1.419      3.005
REMARK  3 active torsions:
REMARK  status: ('A' for Active; 'I' for Inactive)
REMARK    1  A    between atoms: C6_10  and  O2_2 
REMARK    2  A    between atoms: C9_13  and  O4_4 
REMARK    3  A    between atoms: C3_7  and  C5_9 
ROOT
HETATM    1  O1  UNK     1      18.985  -0.753  33.638  1.00  0.00    -0.309 OA
HETATM    2  O3  UNK     1      17.731   3.048  34.395  1.00  0.00    -0.287 OA
HETATM    3  C1  UNK     1      18.123   0.871  35.224  1.00  0.00     0.081 A 
HETATM    4  C2  UNK     1      18.565  -0.410  34.898  1.00  0.00     0.095 A 
HETATM    5  C3  UNK     1      18.961   0.216  32.646  1.00  0.00     0.090 A 
HETATM    6  C4  UNK     1      18.104   1.904  34.178  1.00  0.00     0.190 A 
HETATM    7  C6  UNK     1      17.707   1.164  36.526  1.00  0.00     0.085 A 
HETATM    8  C7  UNK     1      18.563   1.484  32.839  1.00  0.00     0.094 A 
HETATM    9  C8  UNK     1      18.595  -1.407  35.873  1.00  0.00     0.075 A 
HETATM   10  C9  UNK     1      18.181  -1.118  37.173  1.00  0.00     0.071 A 
HETATM   11  C10 UNK     1      17.738   0.165  37.499  1.00  0.00     0.074 A 
ENDROOT
BRANCH   5  12
HETATM   12  C5  UNK     1      19.438  -0.258  31.332  1.00  0.00    -0.002 A 
HETATM   13  C11 UNK     1      19.942  -1.554  31.193  1.00  0.00     0.014 A 
HETATM   14  C13 UNK     1      20.393  -2.000  29.951  1.00  0.00     0.001 A 
HETATM   15  C15 UNK     1      20.342  -1.153  28.843  1.00  0.00     0.000 A 
HETATM   16  C14 UNK     1      19.839   0.141  28.979  1.00  0.00     0.001 A 
HETATM   17  C12 UNK     1      19.389   0.589  30.221  1.00  0.00     0.014 A 
ENDBRANCH   5  12
BRANCH   7  18
HETATM   18  O2  UNK     1      17.267   2.399  36.895  1.00  0.00    -0.360 OA
HETATM   19  H9  UNK     1      17.804   3.090  36.477  1.00  0.00     0.217 HD
ENDBRANCH   7  18
BRANCH  10  20
HETATM   20  O4  UNK     1      18.209  -2.090  38.126  1.00  0.00    -0.361 OA
HETATM   21  H10 UNK     1      17.818  -1.739  38.946  1.00  0.00     0.217 HD
ENDBRANCH  10  20
TORSDOF 3
ENDMDL
MODEL 5
REMARK VINA RESULT:      -7.9      1.990      6.095
REMARK  3 active torsions:
REMARK  status: ('A' for Active; 'I' for Inactive)
REMARK    1  A    between atoms: C6_10  and  O2_2 
REMARK    2  A    between atoms: C9_13  and  O4_4 
REMARK    3  A    between atoms: C3_7  and  C5_9 
ROOT
HETATM    1  O1  UNK     1      18.889  -0.011  33.085  1.00  0.00    -0.309 OA
HETATM    2  O3  UNK     1      20.892  -3.544  32.771  1.00  0.00    -0.287 OA
HETATM    3  C1  UNK     1      20.025  -1.636  31.682  1.00  0.00     0.081 A 
HETATM    4  C2  UNK     1      19.335  -0.438  31.859  1.00  0.00     0.095 A 
HETATM    5  C3  UNK     1      19.130  -0.810  34.191  1.00  0.00     0.090 A 
HETATM    6  C4  UNK     1      20.290  -2.482  32.855  1.00  0.00     0.190 A 
HETATM    7  C6  UNK     1      20.456  -2.020  30.410  1.00  0.00     0.085 A 
HETATM    8  C7  UNK     1      19.789  -1.980  34.149  1.00  0.00     0.094 A 
HETATM    9  C8  UNK     1      19.072   0.385  30.764  1.00  0.00     0.075 A 
HETATM   10  C9  UNK     1      19.500   0.004  29.493  1.00  0.00     0.071 A 
HETATM   11  C10 UNK     1      20.191  -1.196  29.316  1.00  0.00     0.074 A 
ENDROOT
BRANCH   5  12
HETATM   12  C5  UNK     1      18.615  -0.254  35.458  1.00  0.00    -0.002 A 
HETATM   13  C11 UNK     1      18.274  -1.106  36.512  1.00  0.00     0.014 A 
HETATM   14  C13 UNK     1      17.786  -0.580  37.708  1.00  0.00     0.001 A 
HETATM   15  C15 UNK     1      17.639   0.799  37.856  1.00  0.00     0.000 A 
HETATM   16  C14 UNK     1      17.978   1.653  36.806  1.00  0.00     0.001 A 
HETATM   17  C12 UNK     1      18.465   1.127  35.608  1.00  0.00     0.014 A 
ENDBRANCH   5  12
BRANCH   7  18
HETATM   18  O2  UNK     1      21.133  -3.180  30.184  1.00  0.00    -0.360 OA
HETATM   19  H9  UNK     1      20.566  -3.946  30.362  1.00  0.00     0.217 HD
ENDBRANCH   7  18
BRANCH  10  20
HETATM   20  O4  UNK     1      19.245   0.805  28.422  1.00  0.00    -0.361 OA
HETATM   21  H10 UNK     1      19.932   0.660  27.748  1.00  0.00     0.217 HD
ENDBRANCH  10  20
TORSDOF 3
ENDMDL
MODEL 6
REMARK VINA RESULT:      -7.9      1.123      2.989
REMARK  3 active torsions:
REMARK  status: ('A' for Active; 'I' for Inactive)
REMARK    1  A    between atoms: C6_10  and  O2_2 
REMARK    2  A    between atoms: C9_13  and  O4_4 
REMARK    3  A    between atoms: C3_7  and  C5_9 
ROOT
HETATM    1  O1  UNK     1      19.756  -1.700  33.602  1.00  0.00    -0.309 OA
HETATM    2  O3  UNK     1      17.127   0.919  35.284  1.00  0.00    -0.287 OA
HETATM    3  C1  UNK     1      18.558  -0.938  35.573  1.00  0.00     0.081 A 
HETATM    4  C2  UNK     1      19.450  -1.800  34.935  1.00  0.00     0.095 A 
HETATM    5  C3  UNK     1      19.147  -0.702  32.857  1.00  0.00     0.090 A 
HETATM    6  C4  UNK     1      17.917   0.127  34.788  1.00  0.00     0.190 A 
HETATM    7  C6  UNK     1      18.284  -1.088  36.934  1.00  0.00     0.085 A 
HETATM    8  C7  UNK     1      18.278   0.191  33.358  1.00  0.00     0.094 A 
HETATM    9  C8  UNK     1      20.074  -2.818  35.657  1.00  0.00     0.075 A 
HETATM   10  C9  UNK     1      19.802  -2.970  37.017  1.00  0.00     0.071 A 
HETATM   11  C10 UNK     1      18.909  -2.107  37.654  1.00  0.00     0.074 A 
ENDROOT
BRANCH   5  12
HETATM   12  C5  UNK     1      19.552  -0.680  31.437  1.00  0.00    -0.002 A 
HETATM   13  C11 UNK     1      19.377   0.478  30.674  1.00  0.00     0.014 A 
HETATM   14  C13 UNK     1      19.759   0.498  29.333  1.00  0.00     0.001 A 
HETATM   15  C15 UNK     1      20.320  -0.639  28.750  1.00  0.00     0.000 A 
HETATM   16  C14 UNK     1      20.497  -1.796  29.509  1.00  0.00     0.001 A 
HETATM   17  C12 UNK     1      20.113  -1.817  30.850  1.00  0.00     0.014 A 
ENDBRANCH   5  12
BRANCH   7  18
HETATM   18  O2  UNK     1      17.422  -0.272  37.603  1.00  0.00    -0.360 OA
HETATM   19  H9  UNK     1      17.775  -0.047  38.477  1.00  0.00     0.217 HD
ENDBRANCH   7  18
BRANCH  10  20
HETATM   20  O4  UNK     1      20.410  -3.962  37.724  1.00  0.00    -0.361 OA
HETATM   21  H10 UNK     1      20.247  -3.818  38.673  1.00  0.00     0.217 HD
ENDBRANCH  10  20
TORSDOF 3
ENDMDL
MODEL 7
REMARK VINA RESULT:      -7.9     25.642     27.447
REMARK  3 active torsions:
REMARK  status: ('A' for Active; 'I' for Inactive)
REMARK    1  A    between atoms: C6_10  and  O2_2 
REMARK    2  A    between atoms: C9_13  and  O4_4 
REMARK    3  A    between atoms: C3_7  and  C5_9 
ROOT
HETATM    1  O1  UNK     1      13.204   7.879   8.517  1.00  0.00    -0.309 OA
HETATM    2  O3  UNK     1      15.749   4.813   9.363  1.00  0.00    -0.287 OA
HETATM    3  C1  UNK     1      15.342   7.140   9.401  1.00  0.00     0.081 A 
HETATM    4  C2  UNK     1      14.424   8.142   9.087  1.00  0.00     0.095 A 
HETATM    5  C3  UNK     1      12.874   6.563   8.236  1.00  0.00     0.090 A 
HETATM    6  C4  UNK     1      14.992   5.741   9.112  1.00  0.00     0.190 A 
HETATM    7  C6  UNK     1      16.571   7.466   9.980  1.00  0.00     0.085 A 
HETATM    8  C7  UNK     1      13.670   5.513   8.497  1.00  0.00     0.094 A 
HETATM    9  C8  UNK     1      14.730   9.477   9.353  1.00  0.00     0.075 A 
HETATM   10  C9  UNK     1      15.955   9.804   9.931  1.00  0.00     0.071 A 
HETATM   11  C10 UNK     1      16.874   8.802  10.245  1.00  0.00     0.074 A 
ENDROOT
BRANCH   5  12
HETATM   12  C5  UNK     1      11.538   6.393   7.632  1.00  0.00    -0.002 A 
HETATM   13  C11 UNK     1      11.400   6.315   6.243  1.00  0.00     0.014 A 
HETATM   14  C13 UNK     1      10.137   6.156   5.673  1.00  0.00     0.001 A 
HETATM   15  C15 UNK     1       9.008   6.073   6.488  1.00  0.00     0.000 A 
HETATM   16  C14 UNK     1       9.142   6.150   7.875  1.00  0.00     0.001 A 
HETATM   17  C12 UNK     1      10.405   6.311   8.446  1.00  0.00     0.014 A 
ENDBRANCH   5  12
BRANCH   7  18
HETATM   18  O2  UNK     1      17.500   6.525  10.306  1.00  0.00    -0.360 OA
HETATM   19  H9  UNK     1      17.070   5.695  10.561  1.00  0.00     0.217 HD
ENDBRANCH   7  18
BRANCH  10  20
HETATM   20  O4  UNK     1      16.256  11.107  10.192  1.00  0.00    -0.361 OA
HETATM   21  H10 UNK     1      15.670  11.431  10.898  1.00  0.00     0.217 HD
ENDBRANCH  10  20
TORSDOF 3
ENDMDL
MODEL 8
REMARK VINA RESULT:      -7.9      2.457      7.005
REMARK  3 active torsions:
REMARK  status: ('A' for Active; 'I' for Inactive)
REMARK    1  A    between atoms: C6_10  and  O2_2 
REMARK    2  A    between atoms: C9_13  and  O4_4 
REMARK    3  A    between atoms: C3_7  and  C5_9 
ROOT
HETATM    1  O1  UNK     1      18.946   0.126  33.186  1.00  0.00    -0.309 OA
HETATM    2  O3  UNK     1      17.810   3.705  31.606  1.00  0.00    -0.287 OA
HETATM    3  C1  UNK     1      18.791   1.585  31.251  1.00  0.00     0.081 A 
HETATM    4  C2  UNK     1      19.154   0.382  31.854  1.00  0.00     0.095 A 
HETATM    5  C3  UNK     1      18.355   1.109  33.964  1.00  0.00     0.090 A 
HETATM    6  C4  UNK     1      18.156   2.627  32.071  1.00  0.00     0.190 A 
HETATM    7  C6  UNK     1      19.028   1.791  29.889  1.00  0.00     0.085 A 
HETATM    8  C7  UNK     1      17.956   2.303  33.498  1.00  0.00     0.094 A 
HETATM    9  C8  UNK     1      19.756  -0.624  31.098  1.00  0.00     0.075 A 
HETATM   10  C9  UNK     1      19.993  -0.422  29.739  1.00  0.00     0.071 A 
HETATM   11  C10 UNK     1      19.630   0.783  29.136  1.00  0.00     0.074 A 
ENDROOT
BRANCH   5  12
HETATM   12  C5  UNK     1      18.172   0.727  35.379  1.00  0.00    -0.002 A 
HETATM   13  C11 UNK     1      18.401  -0.590  35.786  1.00  0.00     0.014 A 
HETATM   14  C13 UNK     1      18.227  -0.950  37.122  1.00  0.00     0.001 A 
HETATM   15  C15 UNK     1      17.826   0.005  38.056  1.00  0.00     0.000 A 
HETATM   16  C14 UNK     1      17.598   1.321  37.653  1.00  0.00     0.001 A 
HETATM   17  C12 UNK     1      17.770   1.681  36.316  1.00  0.00     0.014 A 
ENDBRANCH   5  12
BRANCH   7  18
HETATM   18  O2  UNK     1      18.691   2.947  29.253  1.00  0.00    -0.360 OA
HETATM   19  H9  UNK     1      19.439   3.280  28.734  1.00  0.00     0.217 HD
ENDBRANCH   7  18
BRANCH  10  20
HETATM   20  O4  UNK     1      20.581  -1.402  28.999  1.00  0.00    -0.361 OA
HETATM   21  H10 UNK     1      20.312  -1.300  28.069  1.00  0.00     0.217 HD
ENDBRANCH  10  20
TORSDOF 3
ENDMDL
MODEL 9
REMARK VINA RESULT:      -7.9     25.145     28.140
REMARK  3 active torsions:
REMARK  status: ('A' for Active; 'I' for Inactive)
REMARK    1  A    between atoms: C6_10  and  O2_2 
REMARK    2  A    between atoms: C9_13  and  O4_4 
REMARK    3  A    between atoms: C3_7  and  C5_9 
ROOT
HETATM    1  O1  UNK     1      11.404   7.561   9.442  1.00  0.00    -0.309 OA
HETATM    2  O3  UNK     1      12.199   6.271   5.660  1.00  0.00    -0.287 OA
HETATM    3  C1  UNK     1      10.573   6.827   7.281  1.00  0.00     0.081 A 
HETATM    4  C2  UNK     1      10.371   7.274   8.586  1.00  0.00     0.095 A 
HETATM    5  C3  UNK     1      12.704   7.394   8.989  1.00  0.00     0.090 A 
HETATM    6  C4  UNK     1      11.950   6.657   6.795  1.00  0.00     0.190 A 
HETATM    7  C6  UNK     1       9.482   6.549   6.454  1.00  0.00     0.085 A 
HETATM    8  C7  UNK     1      13.025   6.977   7.754  1.00  0.00     0.094 A 
HETATM    9  C8  UNK     1       9.074   7.446   9.072  1.00  0.00     0.075 A 
HETATM   10  C9  UNK     1       7.984   7.169   8.249  1.00  0.00     0.071 A 
HETATM   11  C10 UNK     1       8.187   6.722   6.942  1.00  0.00     0.074 A 
ENDROOT
BRANCH   5  12
HETATM   12  C5  UNK     1      13.736   7.738   9.987  1.00  0.00    -0.002 A 
HETATM   13  C11 UNK     1      13.508   8.761  10.910  1.00  0.00     0.014 A 
HETATM   14  C13 UNK     1      14.484   9.086  11.852  1.00  0.00     0.001 A 
HETATM   15  C15 UNK     1      15.692   8.388  11.875  1.00  0.00     0.000 A 
HETATM   16  C14 UNK     1      15.923   7.365  10.954  1.00  0.00     0.001 A 
HETATM   17  C12 UNK     1      14.947   7.041  10.011  1.00  0.00     0.014 A 
ENDBRANCH   5  12
BRANCH   7  18
HETATM   18  O2  UNK     1       9.626   6.111   5.172  1.00  0.00    -0.360 OA
HETATM   19  H9  UNK     1       9.800   5.158   5.156  1.00  0.00     0.217 HD
ENDBRANCH   7  18
BRANCH  10  20
HETATM   20  O4  UNK     1       6.717   7.337   8.720  1.00  0.00    -0.361 OA
HETATM   21  H10 UNK     1       6.141   7.612   7.986  1.00  0.00     0.217 HD
ENDBRANCH  10  20
TORSDOF 3
ENDMDL
MODEL 10
REMARK VINA RESULT:      -7.9      4.162      7.404
REMARK  3 active torsions:
REMARK  status: ('A' for Active; 'I' for Inactive)
REMARK    1  A    between atoms: C6_10  and  O2_2 
REMARK    2  A    between atoms: C9_13  and  O4_4 
REMARK    3  A    between atoms: C3_7  and  C5_9 
ROOT
HETATM    1  O1  UNK     1      19.252   2.065  31.416  1.00  0.00    -0.309 OA
HETATM    2  O3  UNK     1      17.954   1.818  27.562  1.00  0.00    -0.287 OA
HETATM    3  C1  UNK     1      19.023   0.757  29.382  1.00  0.00     0.081 A 
HETATM    4  C2  UNK     1      19.441   0.907  30.704  1.00  0.00     0.095 A 
HETATM    5  C3  UNK     1      18.624   3.131  30.791  1.00  0.00     0.090 A 
HETATM    6  C4  UNK     1      18.348   1.882  28.719  1.00  0.00     0.190 A 
HETATM    7  C6  UNK     1      19.242  -0.446  28.706  1.00  0.00     0.085 A 
HETATM    8  C7  UNK     1      18.171   3.105  29.527  1.00  0.00     0.094 A 
HETATM    9  C8  UNK     1      20.081  -0.146  31.358  1.00  0.00     0.075 A 
HETATM   10  C9  UNK     1      20.301  -1.347  30.685  1.00  0.00     0.071 A 
HETATM   11  C10 UNK     1      19.883  -1.497  29.362  1.00  0.00     0.074 A 
ENDROOT
BRANCH   5  12
HETATM   12  C5  UNK     1      18.466   4.322  31.649  1.00  0.00    -0.002 A 
HETATM   13  C11 UNK     1      18.618   5.602  31.109  1.00  0.00     0.014 A 
HETATM   14  C13 UNK     1      18.469   6.727  31.920  1.00  0.00     0.001 A 
HETATM   15  C15 UNK     1      18.166   6.576  33.273  1.00  0.00     0.000 A 
HETATM   16  C14 UNK     1      18.013   5.300  33.816  1.00  0.00     0.001 A 
HETATM   17  C12 UNK     1      18.163   4.174  33.005  1.00  0.00     0.014 A 
ENDBRANCH   5  12
BRANCH   7  18
HETATM   18  O2  UNK     1      18.852  -0.643  27.416  1.00  0.00    -0.360 OA
HETATM   19  H9  UNK     1      19.170  -1.500  27.091  1.00  0.00     0.217 HD
ENDBRANCH   7  18
BRANCH  10  20
HETATM   20  O4  UNK     1      20.925  -2.377  31.321  1.00  0.00    -0.361 OA
HETATM   21  H10 UNK     1      21.853  -2.412  31.029  1.00  0.00     0.217 HD
ENDBRANCH  10  20
TORSDOF 3
ENDMDL
