MODEL 1
REMARK VINA RESULT:      -7.7      0.000      0.000
REMARK  1 active torsions:
REMARK  status: ('A' for Active; 'I' for Inactive)
REMARK    1  A    between atoms: C3_6  and  C7_10 
ROOT
HETATM    1  O1  UNK     1      16.589   5.838  32.343  1.00  0.00    -0.309 OA
HETATM    2  O2  UNK     1      19.109   7.599  35.017  1.00  0.00    -0.287 OA
HETATM    3  C1  UNK     1      16.976   7.571  34.001  1.00  0.00     0.048 A 
HETATM    4  C2  UNK     1      16.165   6.920  33.072  1.00  0.00     0.090 A 
HETATM    5  C3  UNK     1      17.882   5.378  32.535  1.00  0.00     0.090 A 
HETATM    6  C4  UNK     1      16.490   8.668  34.717  1.00  0.00     0.025 A 
HETATM    7  C5  UNK     1      15.186   9.111  34.494  1.00  0.00    -0.061 A 
HETATM    8  C6  UNK     1      18.345   7.079  34.215  1.00  0.00     0.187 A 
HETATM    9  C8  UNK     1      18.754   5.914  33.405  1.00  0.00     0.093 A 
HETATM   10  C9  UNK     1      14.861   7.365  32.853  1.00  0.00     0.039 A 
HETATM   11  C10 UNK     1      14.373   8.461  33.566  1.00  0.00     0.009 A 
HETATM   12  C11 UNK     1      14.657  10.281  35.255  1.00  0.00     0.048 C 
ENDROOT
BRANCH   5  13
HETATM   13  C7  UNK     1      18.232   4.207  31.705  1.00  0.00    -0.002 A 
HETATM   14  C12 UNK     1      18.234   2.927  32.264  1.00  0.00     0.016 A 
HETATM   15  C14 UNK     1      18.566   1.821  31.481  1.00  0.00     0.024 A 
HETATM   16  C16 UNK     1      18.894   1.992  30.137  1.00  0.00     0.034 A 
HETATM   17  C15 UNK     1      18.892   3.269  29.576  1.00  0.00     0.024 A 
HETATM   18 Cl1  UNK     1      19.302   0.628  29.170  1.00  0.00    -0.084 Cl
HETATM   19  C13 UNK     1      18.561   4.374  30.358  1.00  0.00     0.016 A 
ENDBRANCH   5  13
TORSDOF 1
ENDMDL
MODEL 2
REMARK VINA RESULT:      -7.6      9.459     12.903
REMARK  1 active torsions:
REMARK  status: ('A' for Active; 'I' for Inactive)
REMARK    1  A    between atoms: C3_6  and  C7_10 
ROOT
HETATM    1  O1  UNK     1      18.820  -4.705  36.541  1.00  0.00    -0.309 OA
HETATM    2  O2  UNK     1      22.463  -5.590  38.136  1.00  0.00    -0.287 OA
HETATM    3  C1  UNK     1      20.454  -6.385  37.179  1.00  0.00     0.048 A 
HETATM    4  C2  UNK     1      19.223  -6.012  36.642  1.00  0.00     0.090 A 
HETATM    5  C3  UNK     1      19.674  -3.713  36.999  1.00  0.00     0.090 A 
HETATM    6  C4  UNK     1      20.812  -7.733  37.256  1.00  0.00     0.025 A 
HETATM    7  C5  UNK     1      19.927  -8.707  36.792  1.00  0.00    -0.061 A 
HETATM    8  C6  UNK     1      21.366  -5.335  37.657  1.00  0.00     0.187 A 
HETATM    9  C8  UNK     1      20.886  -3.945  37.529  1.00  0.00     0.093 A 
HETATM   10  C9  UNK     1      18.341  -6.988  36.178  1.00  0.00     0.039 A 
HETATM   11  C10 UNK     1      18.695  -8.336  36.254  1.00  0.00     0.009 A 
HETATM   12  C11 UNK     1      20.301 -10.150  36.868  1.00  0.00     0.048 C 
ENDROOT
BRANCH   5  13
HETATM   13  C7  UNK     1      19.144  -2.344  36.837  1.00  0.00    -0.002 A 
HETATM   14  C12 UNK     1      19.411  -1.622  35.670  1.00  0.00     0.016 A 
HETATM   15  C14 UNK     1      18.912  -0.329  35.518  1.00  0.00     0.024 A 
HETATM   16  C16 UNK     1      18.145   0.247  36.530  1.00  0.00     0.034 A 
HETATM   17  C15 UNK     1      17.877  -0.471  37.695  1.00  0.00     0.024 A 
HETATM   18 Cl1  UNK     1      17.529   1.843  36.341  1.00  0.00    -0.084 Cl
HETATM   19  C13 UNK     1      18.375  -1.764  37.849  1.00  0.00     0.016 A 
ENDBRANCH   5  13
TORSDOF 1
ENDMDL
MODEL 3
REMARK VINA RESULT:      -7.6      1.486      1.996
REMARK  1 active torsions:
REMARK  status: ('A' for Active; 'I' for Inactive)
REMARK    1  A    between atoms: C3_6  and  C7_10 
ROOT
HETATM    1  O1  UNK     1      17.018   7.407  32.302  1.00  0.00    -0.309 OA
HETATM    2  O2  UNK     1      19.927   9.114  34.587  1.00  0.00    -0.287 OA
HETATM    3  C1  UNK     1      17.721   9.227  33.750  1.00  0.00     0.048 A 
HETATM    4  C2  UNK     1      16.770   8.588  32.955  1.00  0.00     0.090 A 
HETATM    5  C3  UNK     1      18.271   6.829  32.436  1.00  0.00     0.090 A 
HETATM    6  C4  UNK     1      17.412  10.427  34.393  1.00  0.00     0.025 A 
HETATM    7  C5  UNK     1      16.144  10.987  34.232  1.00  0.00    -0.061 A 
HETATM    8  C6  UNK     1      19.047   8.611  33.902  1.00  0.00     0.187 A 
HETATM    9  C8  UNK     1      19.265   7.343  33.178  1.00  0.00     0.093 A 
HETATM   10  C9  UNK     1      15.503   9.149  32.798  1.00  0.00     0.039 A 
HETATM   11  C10 UNK     1      15.191  10.350  33.438  1.00  0.00     0.009 A 
HETATM   12  C11 UNK     1      15.804  12.269  34.916  1.00  0.00     0.048 C 
ENDROOT
BRANCH   5  13
HETATM   13  C7  UNK     1      18.427   5.560  31.697  1.00  0.00    -0.002 A 
HETATM   14  C12 UNK     1      18.936   5.563  30.396  1.00  0.00     0.016 A 
HETATM   15  C14 UNK     1      19.083   4.365  29.697  1.00  0.00     0.024 A 
HETATM   16  C16 UNK     1      18.722   3.159  30.298  1.00  0.00     0.034 A 
HETATM   17  C15 UNK     1      18.214   3.152  31.597  1.00  0.00     0.024 A 
HETATM   18 Cl1  UNK     1      18.903   1.680  29.437  1.00  0.00    -0.084 Cl
HETATM   19  C13 UNK     1      18.067   4.350  32.295  1.00  0.00     0.016 A 
ENDBRANCH   5  13
TORSDOF 1
ENDMDL
MODEL 4
REMARK VINA RESULT:      -7.6      3.592      6.971
REMARK  1 active torsions:
REMARK  status: ('A' for Active; 'I' for Inactive)
REMARK    1  A    between atoms: C3_6  and  C7_10 
ROOT
HETATM    1  O1  UNK     1      18.567   4.345  34.570  1.00  0.00    -0.309 OA
HETATM    2  O2  UNK     1      17.728   2.413  31.083  1.00  0.00    -0.287 OA
HETATM    3  C1  UNK     1      18.253   2.251  33.381  1.00  0.00     0.048 A 
HETATM    4  C2  UNK     1      18.531   2.974  34.539  1.00  0.00     0.090 A 
HETATM    5  C3  UNK     1      18.322   5.039  33.395  1.00  0.00     0.090 A 
HETATM    6  C4  UNK     1      18.230   0.855  33.409  1.00  0.00     0.025 A 
HETATM    7  C5  UNK     1      18.488   0.186  34.606  1.00  0.00    -0.061 A 
HETATM    8  C6  UNK     1      17.983   2.983  32.135  1.00  0.00     0.187 A 
HETATM    9  C8  UNK     1      18.035   4.457  32.219  1.00  0.00     0.093 A 
HETATM   10  C9  UNK     1      18.788   2.304  35.735  1.00  0.00     0.039 A 
HETATM   11  C10 UNK     1      18.766   0.909  35.767  1.00  0.00     0.009 A 
HETATM   12  C11 UNK     1      18.464  -1.305  34.647  1.00  0.00     0.048 C 
ENDROOT
BRANCH   5  13
HETATM   13  C7  UNK     1      18.379   6.507  33.542  1.00  0.00    -0.002 A 
HETATM   14  C12 UNK     1      17.348   7.304  33.036  1.00  0.00     0.016 A 
HETATM   15  C14 UNK     1      17.402   8.691  33.174  1.00  0.00     0.024 A 
HETATM   16  C16 UNK     1      18.486   9.285  33.819  1.00  0.00     0.034 A 
HETATM   17  C15 UNK     1      19.517   8.493  34.325  1.00  0.00     0.024 A 
HETATM   18 Cl1  UNK     1      18.553  10.997  33.989  1.00  0.00    -0.084 Cl
HETATM   19  C13 UNK     1      19.463   7.107  34.188  1.00  0.00     0.016 A 
ENDBRANCH   5  13
TORSDOF 1
ENDMDL
MODEL 5
REMARK VINA RESULT:      -7.4     16.022     17.495
REMARK  1 active torsions:
REMARK  status: ('A' for Active; 'I' for Inactive)
REMARK    1  A    between atoms: C3_6  and  C7_10 
ROOT
HETATM    1  O1  UNK     1      25.698  -6.498  38.595  1.00  0.00    -0.309 OA
HETATM    2  O2  UNK     1      28.390  -9.549  38.802  1.00  0.00    -0.287 OA
HETATM    3  C1  UNK     1      28.016  -7.220  38.681  1.00  0.00     0.048 A 
HETATM    4  C2  UNK     1      27.043  -6.224  38.613  1.00  0.00     0.090 A 
HETATM    5  C3  UNK     1      25.293  -7.823  38.639  1.00  0.00     0.090 A 
HETATM    6  C4  UNK     1      29.371  -6.882  38.698  1.00  0.00     0.025 A 
HETATM    7  C5  UNK     1      29.746  -5.539  38.644  1.00  0.00    -0.061 A 
HETATM    8  C6  UNK     1      27.590  -8.626  38.738  1.00  0.00     0.187 A 
HETATM    9  C8  UNK     1      26.134  -8.868  38.713  1.00  0.00     0.093 A 
HETATM   10  C9  UNK     1      27.420  -4.882  38.562  1.00  0.00     0.039 A 
HETATM   11  C10 UNK     1      28.773  -4.541  38.577  1.00  0.00     0.009 A 
HETATM   12  C11 UNK     1      31.191  -5.168  38.664  1.00  0.00     0.048 C 
ENDROOT
BRANCH   5  13
HETATM   13  C7  UNK     1      23.828  -8.003  38.621  1.00  0.00    -0.002 A 
HETATM   14  C12 UNK     1      23.211  -8.626  37.532  1.00  0.00     0.016 A 
HETATM   15  C14 UNK     1      21.827  -8.795  37.514  1.00  0.00     0.024 A 
HETATM   16  C16 UNK     1      21.055  -8.344  38.584  1.00  0.00     0.034 A 
HETATM   17  C15 UNK     1      21.667  -7.721  39.671  1.00  0.00     0.024 A 
HETATM   18 Cl1  UNK     1      19.346  -8.552  38.561  1.00  0.00    -0.084 Cl
HETATM   19  C13 UNK     1      23.051  -7.552  39.690  1.00  0.00     0.016 A 
ENDBRANCH   5  13
TORSDOF 1
ENDMDL
MODEL 6
REMARK VINA RESULT:      -7.4      3.264      7.367
REMARK  1 active torsions:
REMARK  status: ('A' for Active; 'I' for Inactive)
REMARK    1  A    between atoms: C3_6  and  C7_10 
ROOT
HETATM    1  O1  UNK     1      18.531   3.295  31.125  1.00  0.00    -0.309 OA
HETATM    2  O2  UNK     1      18.676   0.516  34.101  1.00  0.00    -0.287 OA
HETATM    3  C1  UNK     1      18.984   1.009  31.811  1.00  0.00     0.048 A 
HETATM    4  C2  UNK     1      18.915   2.009  30.842  1.00  0.00     0.090 A 
HETATM    5  C3  UNK     1      18.192   3.610  32.432  1.00  0.00     0.090 A 
HETATM    6  C4  UNK     1      19.383  -0.284  31.465  1.00  0.00     0.025 A 
HETATM    7  C5  UNK     1      19.711  -0.571  30.140  1.00  0.00    -0.061 A 
HETATM    8  C6  UNK     1      18.634   1.342  33.200  1.00  0.00     0.187 A 
HETATM    9  C8  UNK     1      18.225   2.739  33.453  1.00  0.00     0.093 A 
HETATM   10  C9  UNK     1      19.246   1.719  29.518  1.00  0.00     0.039 A 
HETATM   11  C10 UNK     1      19.644   0.428  29.168  1.00  0.00     0.009 A 
HETATM   12  C11 UNK     1      20.141  -1.949  29.760  1.00  0.00     0.048 C 
ENDROOT
BRANCH   5  13
HETATM   13  C7  UNK     1      17.800   5.021  32.626  1.00  0.00    -0.002 A 
HETATM   14  C12 UNK     1      17.632   5.531  33.916  1.00  0.00     0.016 A 
HETATM   15  C14 UNK     1      17.261   6.863  34.099  1.00  0.00     0.024 A 
HETATM   16  C16 UNK     1      17.058   7.689  32.994  1.00  0.00     0.034 A 
HETATM   17  C15 UNK     1      17.224   7.183  31.705  1.00  0.00     0.024 A 
HETATM   18 Cl1  UNK     1      16.600   9.333  33.220  1.00  0.00    -0.084 Cl
HETATM   19  C13 UNK     1      17.595   5.851  31.521  1.00  0.00     0.016 A 
ENDBRANCH   5  13
TORSDOF 1
ENDMDL
MODEL 7
REMARK VINA RESULT:      -7.4      3.202      7.203
REMARK  1 active torsions:
REMARK  status: ('A' for Active; 'I' for Inactive)
REMARK    1  A    between atoms: C3_6  and  C7_10 
ROOT
HETATM    1  O1  UNK     1      17.912   3.539  33.297  1.00  0.00    -0.309 OA
HETATM    2  O2  UNK     1      18.967   2.897  29.415  1.00  0.00    -0.287 OA
HETATM    3  C1  UNK     1      18.659   1.995  31.577  1.00  0.00     0.048 A 
HETATM    4  C2  UNK     1      18.285   2.283  32.888  1.00  0.00     0.090 A 
HETATM    5  C3  UNK     1      17.915   4.565  32.365  1.00  0.00     0.090 A 
HETATM    6  C4  UNK     1      19.029   0.697  31.217  1.00  0.00     0.025 A 
HETATM    7  C5  UNK     1      19.023  -0.312  32.181  1.00  0.00    -0.061 A 
HETATM    8  C6  UNK     1      18.654   3.079  30.584  1.00  0.00     0.187 A 
HETATM    9  C8  UNK     1      18.248   4.412  31.073  1.00  0.00     0.093 A 
HETATM   10  C9  UNK     1      18.278   1.272  33.850  1.00  0.00     0.039 A 
HETATM   11  C10 UNK     1      18.647  -0.026  33.494  1.00  0.00     0.009 A 
HETATM   12  C11 UNK     1      19.414  -1.702  31.806  1.00  0.00     0.048 C 
ENDROOT
BRANCH   5  13
HETATM   13  C7  UNK     1      17.491   5.871  32.910  1.00  0.00    -0.002 A 
HETATM   14  C12 UNK     1      16.403   6.545  32.350  1.00  0.00     0.016 A 
HETATM   15  C14 UNK     1      16.004   7.779  32.863  1.00  0.00     0.024 A 
HETATM   16  C16 UNK     1      16.691   8.342  33.938  1.00  0.00     0.034 A 
HETATM   17  C15 UNK     1      17.778   7.672  34.499  1.00  0.00     0.024 A 
HETATM   18 Cl1  UNK     1      16.198   9.865  34.572  1.00  0.00    -0.084 Cl
HETATM   19  C13 UNK     1      18.177   6.439  33.986  1.00  0.00     0.016 A 
ENDBRANCH   5  13
TORSDOF 1
ENDMDL
MODEL 8
REMARK VINA RESULT:      -7.4      9.846     13.515
REMARK  1 active torsions:
REMARK  status: ('A' for Active; 'I' for Inactive)
REMARK    1  A    between atoms: C3_6  and  C7_10 
ROOT
HETATM    1  O1  UNK     1      20.154  -5.347  35.711  1.00  0.00    -0.309 OA
HETATM    2  O2  UNK     1      22.118  -6.269  39.160  1.00  0.00    -0.287 OA
HETATM    3  C1  UNK     1      21.387  -6.975  37.027  1.00  0.00     0.048 A 
HETATM    4  C2  UNK     1      20.704  -6.594  35.873  1.00  0.00     0.090 A 
HETATM    5  C3  UNK     1      20.279  -4.431  36.745  1.00  0.00     0.090 A 
HETATM    6  C4  UNK     1      21.927  -8.258  37.136  1.00  0.00     0.025 A 
HETATM    7  C5  UNK     1      21.778  -9.159  36.081  1.00  0.00    -0.061 A 
HETATM    8  C6  UNK     1      21.529  -6.003  38.121  1.00  0.00     0.187 A 
HETATM    9  C8  UNK     1      20.918  -4.677  37.900  1.00  0.00     0.093 A 
HETATM   10  C9  UNK     1      20.558  -7.496  34.819  1.00  0.00     0.039 A 
HETATM   11  C10 UNK     1      21.096  -8.779  34.925  1.00  0.00     0.009 A 
HETATM   12  C11 UNK     1      22.354 -10.532  36.187  1.00  0.00     0.048 C 
ENDROOT
BRANCH   5  13
HETATM   13  C7  UNK     1      19.657  -3.122  36.463  1.00  0.00    -0.002 A 
HETATM   14  C12 UNK     1      19.806  -2.530  35.206  1.00  0.00     0.016 A 
HETATM   15  C14 UNK     1      19.220  -1.293  34.940  1.00  0.00     0.024 A 
HETATM   16  C16 UNK     1      18.482  -0.644  35.930  1.00  0.00     0.034 A 
HETATM   17  C15 UNK     1      18.332  -1.231  37.186  1.00  0.00     0.024 A 
HETATM   18 Cl1  UNK     1      17.758   0.883  35.602  1.00  0.00    -0.084 Cl
HETATM   19  C13 UNK     1      18.917  -2.468  37.452  1.00  0.00     0.016 A 
ENDBRANCH   5  13
TORSDOF 1
ENDMDL
MODEL 9
REMARK VINA RESULT:      -7.3      4.375      8.133
REMARK  1 active torsions:
REMARK  status: ('A' for Active; 'I' for Inactive)
REMARK    1  A    between atoms: C3_6  and  C7_10 
ROOT
HETATM    1  O1  UNK     1      17.457   9.287  34.225  1.00  0.00    -0.309 OA
HETATM    2  O2  UNK     1      15.387   7.800  31.047  1.00  0.00    -0.287 OA
HETATM    3  C1  UNK     1      17.374   7.777  32.324  1.00  0.00     0.048 A 
HETATM    4  C2  UNK     1      18.025   8.327  33.427  1.00  0.00     0.090 A 
HETATM    5  C3  UNK     1      16.181   9.733  33.915  1.00  0.00     0.090 A 
HETATM    6  C4  UNK     1      18.002   6.801  31.547  1.00  0.00     0.025 A 
HETATM    7  C5  UNK     1      19.289   6.379  31.882  1.00  0.00    -0.061 A 
HETATM    8  C6  UNK     1      16.018   8.241  31.998  1.00  0.00     0.187 A 
HETATM    9  C8  UNK     1      15.451   9.277  32.885  1.00  0.00     0.093 A 
HETATM   10  C9  UNK     1      19.312   7.902  33.761  1.00  0.00     0.039 A 
HETATM   11  C10 UNK     1      19.942   6.927  32.986  1.00  0.00     0.009 A 
HETATM   12  C11 UNK     1      19.968   5.335  31.060  1.00  0.00     0.048 C 
ENDROOT
BRANCH   5  13
HETATM   13  C7  UNK     1      15.664  10.761  34.841  1.00  0.00    -0.002 A 
HETATM   14  C12 UNK     1      16.352  11.966  35.007  1.00  0.00     0.016 A 
HETATM   15  C14 UNK     1      15.864  12.936  35.882  1.00  0.00     0.024 A 
HETATM   16  C16 UNK     1      14.686  12.705  36.593  1.00  0.00     0.034 A 
HETATM   17  C15 UNK     1      13.997  11.504  36.429  1.00  0.00     0.024 A 
HETATM   18 Cl1  UNK     1      14.084  13.903  37.673  1.00  0.00    -0.084 Cl
HETATM   19  C13 UNK     1      14.485  10.534  35.555  1.00  0.00     0.016 A 
ENDBRANCH   5  13
TORSDOF 1
ENDMDL
MODEL 10
REMARK VINA RESULT:      -7.3      1.909      2.960
REMARK  1 active torsions:
REMARK  status: ('A' for Active; 'I' for Inactive)
REMARK    1  A    between atoms: C3_6  and  C7_10 
ROOT
HETATM    1  O1  UNK     1      18.928   6.252  33.317  1.00  0.00    -0.309 OA
HETATM    2  O2  UNK     1      15.521   8.147  32.134  1.00  0.00    -0.287 OA
HETATM    3  C1  UNK     1      17.643   8.307  33.161  1.00  0.00     0.048 A 
HETATM    4  C2  UNK     1      18.782   7.598  33.538  1.00  0.00     0.090 A 
HETATM    5  C3  UNK     1      17.893   5.568  32.698  1.00  0.00     0.090 A 
HETATM    6  C4  UNK     1      17.550   9.678  33.410  1.00  0.00     0.025 A 
HETATM    7  C5  UNK     1      18.606  10.335  34.042  1.00  0.00    -0.061 A 
HETATM    8  C6  UNK     1      16.547   7.587  32.495  1.00  0.00     0.187 A 
HETATM    9  C8  UNK     1      16.751   6.140  32.282  1.00  0.00     0.093 A 
HETATM   10  C9  UNK     1      19.837   8.258  34.168  1.00  0.00     0.039 A 
HETATM   11  C10 UNK     1      19.747   9.627  34.420  1.00  0.00     0.009 A 
HETATM   12  C11 UNK     1      18.517  11.801  34.312  1.00  0.00     0.048 C 
ENDROOT
BRANCH   5  13
HETATM   13  C7  UNK     1      18.157   4.128  32.504  1.00  0.00    -0.002 A 
HETATM   14  C12 UNK     1      18.147   3.260  33.599  1.00  0.00     0.016 A 
HETATM   15  C14 UNK     1      18.398   1.900  33.417  1.00  0.00     0.024 A 
HETATM   16  C16 UNK     1      18.657   1.403  32.139  1.00  0.00     0.034 A 
HETATM   17  C15 UNK     1      18.667   2.268  31.045  1.00  0.00     0.024 A 
HETATM   18 Cl1  UNK     1      18.965  -0.275  31.914  1.00  0.00    -0.084 Cl
HETATM   19  C13 UNK     1      18.417   3.627  31.226  1.00  0.00     0.016 A 
ENDBRANCH   5  13
TORSDOF 1
ENDMDL
