MODEL 1
REMARK VINA RESULT:      -9.4      0.000      0.000
REMARK  3 active torsions:
REMARK  status: ('A' for Active; 'I' for Inactive)
REMARK    1  A    between atoms: C17_25  and  O4_4 
REMARK       I    between atoms: C6_14  and  N1_7 
REMARK    2  A    between atoms: C18_26  and  N2_8 
REMARK    3  A    between atoms: C6_14  and  C9_17 
ROOT
HETATM    1  O2  UNK     1      18.639   4.637  30.671  1.00  0.00    -0.271 OA
HETATM    2  O3  UNK     1      18.573   6.890  30.298  1.00  0.00    -0.259 OA
HETATM    3  C9  UNK     1      18.190   6.171  32.522  1.00  0.00     0.108 A 
HETATM    4  C12 UNK     1      18.089   5.149  33.380  1.00  0.00     0.037 A 
HETATM    5  C13 UNK     1      18.261   3.782  32.916  1.00  0.00     0.004 A 
HETATM    6  C14 UNK     1      18.479   5.957  31.087  1.00  0.00     0.304 A 
HETATM    7  C15 UNK     1      18.532   3.557  31.570  1.00  0.00     0.123 A 
HETATM    8  C16 UNK     1      18.162   2.685  33.774  1.00  0.00     0.050 A 
HETATM    9  C17 UNK     1      18.709   2.273  31.061  1.00  0.00     0.105 A 
HETATM   10  C18 UNK     1      18.337   1.390  33.279  1.00  0.00     0.106 A 
HETATM   11  C19 UNK     1      18.610   1.184  31.925  1.00  0.00     0.075 A 
ENDROOT
BRANCH   3  12
HETATM   12  C6  UNK     1      17.999   7.523  33.090  1.00  0.00     0.264 C 
HETATM   13  O1  UNK     1      19.010   8.198  33.283  1.00  0.00    -0.267 OA
HETATM   14  N1  UNK     1      16.695   7.900  33.372  1.00  0.00    -0.308 N 
HETATM   15  C1  UNK     1      15.441   7.113  33.155  1.00  0.00     0.093 C 
HETATM   16  C4  UNK     1      16.322   9.149  33.929  1.00  0.00     0.044 A 
HETATM   17  C2  UNK     1      14.344   7.810  33.986  1.00  0.00     0.066 C 
HETATM   18  C5  UNK     1      15.058   7.090  31.671  1.00  0.00     0.033 C 
HETATM   19  C3  UNK     1      14.962   9.145  34.251  1.00  0.00    -0.029 A 
HETATM   20  C7  UNK     1      14.348  10.252  34.816  1.00  0.00     0.009 A 
HETATM   21  C10 UNK     1      15.120  11.390  35.052  1.00  0.00     0.001 A 
HETATM   22  C11 UNK     1      16.485  11.399  34.733  1.00  0.00     0.002 A 
HETATM   23  C8  UNK     1      17.097  10.273  34.172  1.00  0.00     0.030 A 
ENDBRANCH   3  12
BRANCH   9  24
HETATM   24  O4  UNK     1      18.974   2.068  29.742  1.00  0.00    -0.353 OA
HETATM   25  C20 UNK     1      17.876   1.700  28.908  1.00  0.00     0.210 C 
ENDBRANCH   9  24
BRANCH  10  26
HETATM   26  N2  UNK     1      18.238   0.277  34.157  1.00  0.00    -0.116 N 
HETATM   27  O5  UNK     1      17.319  -0.558  33.979  1.00  0.00    -0.532 OA
HETATM   28  O6  UNK     1      19.073   0.161  35.087  1.00  0.00    -0.532 OA
ENDBRANCH  10  26
TORSDOF 3
ENDMDL
MODEL 2
REMARK VINA RESULT:      -9.1      6.802     12.265
REMARK  3 active torsions:
REMARK  status: ('A' for Active; 'I' for Inactive)
REMARK    1  A    between atoms: C17_25  and  O4_4 
REMARK       I    between atoms: C6_14  and  N1_7 
REMARK    2  A    between atoms: C18_26  and  N2_8 
REMARK    3  A    between atoms: C6_14  and  C9_17 
ROOT
HETATM    1  O2  UNK     1      18.517  -1.415  35.695  1.00  0.00    -0.271 OA
HETATM    2  O3  UNK     1      18.498  -2.273  37.812  1.00  0.00    -0.259 OA
HETATM    3  C9  UNK     1      19.962  -3.304  36.262  1.00  0.00     0.108 A 
HETATM    4  C12 UNK     1      20.448  -3.342  35.015  1.00  0.00     0.037 A 
HETATM    5  C13 UNK     1      19.980  -2.393  34.017  1.00  0.00     0.004 A 
HETATM    6  C14 UNK     1      18.945  -2.311  36.672  1.00  0.00     0.304 A 
HETATM    7  C15 UNK     1      19.023  -1.451  34.381  1.00  0.00     0.123 A 
HETATM    8  C16 UNK     1      20.457  -2.396  32.704  1.00  0.00     0.050 A 
HETATM    9  C17 UNK     1      18.534  -0.514  33.474  1.00  0.00     0.105 A 
HETATM   10  C18 UNK     1      19.976  -1.462  31.783  1.00  0.00     0.106 A 
HETATM   11  C19 UNK     1      19.016  -0.523  32.166  1.00  0.00     0.075 A 
ENDROOT
BRANCH   3  12
HETATM   12  C6  UNK     1      20.500  -4.310  37.203  1.00  0.00     0.264 C 
HETATM   13  O1  UNK     1      21.343  -3.925  38.013  1.00  0.00    -0.267 OA
HETATM   14  N1  UNK     1      20.018  -5.603  37.074  1.00  0.00    -0.308 N 
HETATM   15  C1  UNK     1      18.998  -6.114  36.105  1.00  0.00     0.093 C 
HETATM   16  C4  UNK     1      20.426  -6.697  37.877  1.00  0.00     0.044 A 
HETATM   17  C2  UNK     1      19.122  -7.651  36.118  1.00  0.00     0.066 C 
HETATM   18  C5  UNK     1      17.586  -5.685  36.520  1.00  0.00     0.033 C 
HETATM   19  C3  UNK     1      19.887  -7.887  37.379  1.00  0.00    -0.029 A 
HETATM   20  C7  UNK     1      20.141  -9.107  37.987  1.00  0.00     0.009 A 
HETATM   21  C10 UNK     1      20.945  -9.126  39.126  1.00  0.00     0.001 A 
HETATM   22  C11 UNK     1      21.490  -7.936  39.629  1.00  0.00     0.002 A 
HETATM   23  C8  UNK     1      21.236  -6.712  39.003  1.00  0.00     0.030 A 
ENDBRANCH   3  12
BRANCH   9  24
HETATM   24  O4  UNK     1      17.598   0.402  33.843  1.00  0.00    -0.353 OA
HETATM   25  C20 UNK     1      18.049   1.738  34.064  1.00  0.00     0.210 C 
ENDBRANCH   9  24
BRANCH  10  26
HETATM   26  N2  UNK     1      20.466  -1.468  30.449  1.00  0.00    -0.116 N 
HETATM   27  O5  UNK     1      20.596  -0.377  29.844  1.00  0.00    -0.532 OA
HETATM   28  O6  UNK     1      20.756  -2.566  29.914  1.00  0.00    -0.532 OA
ENDBRANCH  10  26
TORSDOF 3
ENDMDL
MODEL 3
REMARK VINA RESULT:      -8.8      1.319      1.515
REMARK  3 active torsions:
REMARK  status: ('A' for Active; 'I' for Inactive)
REMARK    1  A    between atoms: C17_25  and  O4_4 
REMARK       I    between atoms: C6_14  and  N1_7 
REMARK    2  A    between atoms: C18_26  and  N2_8 
REMARK    3  A    between atoms: C6_14  and  C9_17 
ROOT
HETATM    1  O2  UNK     1      18.581   3.708  31.667  1.00  0.00    -0.271 OA
HETATM    2  O3  UNK     1      18.741   5.809  30.785  1.00  0.00    -0.259 OA
HETATM    3  C9  UNK     1      18.607   5.656  33.144  1.00  0.00     0.108 A 
HETATM    4  C12 UNK     1      18.507   4.873  34.225  1.00  0.00     0.037 A 
HETATM    5  C13 UNK     1      18.436   3.427  34.079  1.00  0.00     0.004 A 
HETATM    6  C14 UNK     1      18.650   5.095  31.776  1.00  0.00     0.304 A 
HETATM    7  C15 UNK     1      18.474   2.878  32.801  1.00  0.00     0.123 A 
HETATM    8  C16 UNK     1      18.330   2.571  35.176  1.00  0.00     0.050 A 
HETATM    9  C17 UNK     1      18.411   1.502  32.591  1.00  0.00     0.105 A 
HETATM   10  C18 UNK     1      18.266   1.188  34.982  1.00  0.00     0.106 A 
HETATM   11  C19 UNK     1      18.306   0.655  33.693  1.00  0.00     0.075 A 
ENDROOT
BRANCH   3  12
HETATM   12  C6  UNK     1      18.672   7.111  33.397  1.00  0.00     0.264 C 
HETATM   13  O1  UNK     1      19.791   7.624  33.431  1.00  0.00    -0.267 OA
HETATM   14  N1  UNK     1      17.465   7.764  33.592  1.00  0.00    -0.308 N 
HETATM   15  C1  UNK     1      16.087   7.181  33.560  1.00  0.00     0.093 C 
HETATM   16  C4  UNK     1      17.334   9.150  33.857  1.00  0.00     0.044 A 
HETATM   17  C2  UNK     1      15.161   8.224  34.219  1.00  0.00     0.066 C 
HETATM   18  C5  UNK     1      15.643   6.901  32.120  1.00  0.00     0.033 C 
HETATM   19  C3  UNK     1      16.007   9.456  34.176  1.00  0.00    -0.029 A 
HETATM   20  C7  UNK     1      15.616  10.750  34.482  1.00  0.00     0.009 A 
HETATM   21  C10 UNK     1      16.579  11.758  34.455  1.00  0.00     0.001 A 
HETATM   22  C11 UNK     1      17.911  11.458  34.138  1.00  0.00     0.002 A 
HETATM   23  C8  UNK     1      18.298  10.147  33.840  1.00  0.00     0.030 A 
ENDBRANCH   3  12
BRANCH   9  24
HETATM   24  O4  UNK     1      18.449   0.978  31.336  1.00  0.00    -0.353 OA
HETATM   25  C20 UNK     1      19.357  -0.099  31.109  1.00  0.00     0.210 C 
ENDBRANCH   9  24
BRANCH  10  26
HETATM   26  N2  UNK     1      18.159   0.322  36.103  1.00  0.00    -0.116 N 
HETATM   27  O5  UNK     1      17.866  -0.883  35.915  1.00  0.00    -0.532 OA
HETATM   28  O6  UNK     1      18.363   0.786  37.251  1.00  0.00    -0.532 OA
ENDBRANCH  10  26
TORSDOF 3
ENDMDL
MODEL 4
REMARK VINA RESULT:      -8.7      1.762      2.816
REMARK  3 active torsions:
REMARK  status: ('A' for Active; 'I' for Inactive)
REMARK    1  A    between atoms: C17_25  and  O4_4 
REMARK       I    between atoms: C6_14  and  N1_7 
REMARK    2  A    between atoms: C18_26  and  N2_8 
REMARK    3  A    between atoms: C6_14  and  C9_17 
ROOT
HETATM    1  O2  UNK     1      19.029   3.298  30.153  1.00  0.00    -0.271 OA
HETATM    2  O3  UNK     1      18.694   5.496  29.625  1.00  0.00    -0.259 OA
HETATM    3  C9  UNK     1      18.004   4.806  31.784  1.00  0.00     0.108 A 
HETATM    4  C12 UNK     1      17.897   3.813  32.675  1.00  0.00     0.037 A 
HETATM    5  C13 UNK     1      18.361   2.475  32.342  1.00  0.00     0.004 A 
HETATM    6  C14 UNK     1      18.593   4.589  30.444  1.00  0.00     0.304 A 
HETATM    7  C15 UNK     1      18.917   2.249  31.086  1.00  0.00     0.123 A 
HETATM    8  C16 UNK     1      18.267   1.409  33.238  1.00  0.00     0.050 A 
HETATM    9  C17 UNK     1      19.381   0.992  30.705  1.00  0.00     0.105 A 
HETATM   10  C18 UNK     1      18.729   0.142  32.870  1.00  0.00     0.106 A 
HETATM   11  C19 UNK     1      19.285  -0.066  31.607  1.00  0.00     0.075 A 
ENDROOT
BRANCH   3  12
HETATM   12  C6  UNK     1      17.504   6.128  32.216  1.00  0.00     0.264 C 
HETATM   13  O1  UNK     1      16.336   6.402  31.943  1.00  0.00    -0.267 OA
HETATM   14  N1  UNK     1      18.407   6.950  32.874  1.00  0.00    -0.308 N 
HETATM   15  C1  UNK     1      19.832   6.658  33.224  1.00  0.00     0.093 C 
HETATM   16  C4  UNK     1      18.110   8.252  33.349  1.00  0.00     0.044 A 
HETATM   17  C2  UNK     1      20.476   8.015  33.575  1.00  0.00     0.066 C 
HETATM   18  C5  UNK     1      19.919   5.697  34.414  1.00  0.00     0.033 C 
HETATM   19  C3  UNK     1      19.275   8.875  33.804  1.00  0.00    -0.029 A 
HETATM   20  C7  UNK     1      19.255  10.163  34.317  1.00  0.00     0.009 A 
HETATM   21  C10 UNK     1      18.033  10.832  34.382  1.00  0.00     0.001 A 
HETATM   22  C11 UNK     1      16.861  10.212  33.925  1.00  0.00     0.002 A 
HETATM   23  C8  UNK     1      16.893   8.916  33.400  1.00  0.00     0.030 A 
ENDBRANCH   3  12
BRANCH   9  24
HETATM   24  O4  UNK     1      19.923   0.785  29.475  1.00  0.00    -0.353 OA
HETATM   25  C20 UNK     1      20.528  -0.485  29.237  1.00  0.00     0.210 C 
ENDBRANCH   9  24
BRANCH  10  26
HETATM   26  N2  UNK     1      18.632  -0.939  33.787  1.00  0.00    -0.116 N 
HETATM   27  O5  UNK     1      19.594  -1.738  33.889  1.00  0.00    -0.532 OA
HETATM   28  O6  UNK     1      17.587  -1.064  34.471  1.00  0.00    -0.532 OA
ENDBRANCH  10  26
TORSDOF 3
ENDMDL
MODEL 5
REMARK VINA RESULT:      -8.3     16.517     18.725
REMARK  3 active torsions:
REMARK  status: ('A' for Active; 'I' for Inactive)
REMARK    1  A    between atoms: C17_25  and  O4_4 
REMARK       I    between atoms: C6_14  and  N1_7 
REMARK    2  A    between atoms: C18_26  and  N2_8 
REMARK    3  A    between atoms: C6_14  and  C9_17 
ROOT
HETATM    1  O2  UNK     1      25.959  -7.410  38.524  1.00  0.00    -0.271 OA
HETATM    2  O3  UNK     1      27.801  -6.336  39.345  1.00  0.00    -0.259 OA
HETATM    3  C9  UNK     1      28.196  -8.252  38.009  1.00  0.00     0.108 A 
HETATM    4  C12 UNK     1      27.683  -9.253  37.285  1.00  0.00     0.037 A 
HETATM    5  C13 UNK     1      26.242  -9.389  37.139  1.00  0.00     0.004 A 
HETATM    6  C14 UNK     1      27.334  -7.254  38.681  1.00  0.00     0.304 A 
HETATM    7  C15 UNK     1      25.412  -8.463  37.764  1.00  0.00     0.123 A 
HETATM    8  C16 UNK     1      25.662 -10.419  36.396  1.00  0.00     0.050 A 
HETATM    9  C17 UNK     1      24.025  -8.536  37.665  1.00  0.00     0.105 A 
HETATM   10  C18 UNK     1      24.271 -10.505  36.286  1.00  0.00     0.106 A 
HETATM   11  C19 UNK     1      23.455  -9.566  36.919  1.00  0.00     0.075 A 
ENDROOT
BRANCH   3  12
HETATM   12  C6  UNK     1      29.671  -8.199  38.097  1.00  0.00     0.264 C 
HETATM   13  O1  UNK     1      30.226  -9.085  38.746  1.00  0.00    -0.267 OA
HETATM   14  N1  UNK     1      30.295  -7.140  37.454  1.00  0.00    -0.308 N 
HETATM   15  C1  UNK     1      29.661  -6.044  36.657  1.00  0.00     0.093 C 
HETATM   16  C4  UNK     1      31.695  -6.921  37.440  1.00  0.00     0.044 A 
HETATM   17  C2  UNK     1      30.731  -4.943  36.510  1.00  0.00     0.066 C 
HETATM   18  C5  UNK     1      29.219  -6.552  35.280  1.00  0.00     0.033 C 
HETATM   19  C3  UNK     1      31.982  -5.682  36.859  1.00  0.00    -0.029 A 
HETATM   20  C7  UNK     1      33.285  -5.227  36.729  1.00  0.00     0.009 A 
HETATM   21  C10 UNK     1      34.321  -6.043  37.185  1.00  0.00     0.001 A 
HETATM   22  C11 UNK     1      34.039  -7.285  37.770  1.00  0.00     0.002 A 
HETATM   23  C8  UNK     1      32.720  -7.731  37.905  1.00  0.00     0.030 A 
ENDBRANCH   3  12
BRANCH   9  24
HETATM   24  O4  UNK     1      23.225  -7.624  38.280  1.00  0.00    -0.353 OA
HETATM   25  C20 UNK     1      22.550  -8.045  39.464  1.00  0.00     0.210 C 
ENDBRANCH   9  24
BRANCH  10  26
HETATM   26  N2  UNK     1      23.685 -11.553  35.526  1.00  0.00    -0.116 N 
HETATM   27  O5  UNK     1      24.382 -12.554  35.234  1.00  0.00    -0.532 OA
HETATM   28  O6  UNK     1      22.486 -11.448  35.170  1.00  0.00    -0.532 OA
ENDBRANCH  10  26
TORSDOF 3
ENDMDL
MODEL 6
REMARK VINA RESULT:      -8.2      1.667      2.748
REMARK  3 active torsions:
REMARK  status: ('A' for Active; 'I' for Inactive)
REMARK    1  A    between atoms: C17_25  and  O4_4 
REMARK       I    between atoms: C6_14  and  N1_7 
REMARK    2  A    between atoms: C18_26  and  N2_8 
REMARK    3  A    between atoms: C6_14  and  C9_17 
ROOT
HETATM    1  O2  UNK     1      17.542   6.100  31.084  1.00  0.00    -0.271 OA
HETATM    2  O3  UNK     1      16.764   8.228  30.791  1.00  0.00    -0.259 OA
HETATM    3  C9  UNK     1      16.761   7.393  33.008  1.00  0.00     0.108 A 
HETATM    4  C12 UNK     1      17.032   6.377  33.835  1.00  0.00     0.037 A 
HETATM    5  C13 UNK     1      17.587   5.136  33.316  1.00  0.00     0.004 A 
HETATM    6  C14 UNK     1      17.011   7.300  31.552  1.00  0.00     0.304 A 
HETATM    7  C15 UNK     1      17.829   5.027  31.950  1.00  0.00     0.123 A 
HETATM    8  C16 UNK     1      17.884   4.050  34.142  1.00  0.00     0.050 A 
HETATM    9  C17 UNK     1      18.359   3.867  31.390  1.00  0.00     0.105 A 
HETATM   10  C18 UNK     1      18.417   2.879  33.594  1.00  0.00     0.106 A 
HETATM   11  C19 UNK     1      18.654   2.788  32.221  1.00  0.00     0.075 A 
ENDROOT
BRANCH   3  12
HETATM   12  C6  UNK     1      16.200   8.610  33.630  1.00  0.00     0.264 C 
HETATM   13  O1  UNK     1      14.986   8.628  33.831  1.00  0.00    -0.267 OA
HETATM   14  N1  UNK     1      17.093   9.632  33.914  1.00  0.00    -0.308 N 
HETATM   15  C1  UNK     1      18.572   9.652  33.686  1.00  0.00     0.093 C 
HETATM   16  C4  UNK     1      16.736  10.873  34.499  1.00  0.00     0.044 A 
HETATM   17  C2  UNK     1      19.006  11.128  33.799  1.00  0.00     0.066 C 
HETATM   18  C5  UNK     1      19.299   8.797  34.729  1.00  0.00     0.033 C 
HETATM   19  C3  UNK     1      17.831  11.742  34.489  1.00  0.00    -0.029 A 
HETATM   20  C7  UNK     1      17.741  13.026  35.003  1.00  0.00     0.009 A 
HETATM   21  C10 UNK     1      16.524  13.440  35.546  1.00  0.00     0.001 A 
HETATM   22  C11 UNK     1      15.422  12.573  35.556  1.00  0.00     0.002 A 
HETATM   23  C8  UNK     1      15.521  11.282  35.027  1.00  0.00     0.030 A 
ENDBRANCH   3  12
BRANCH   9  24
HETATM   24  O4  UNK     1      18.591   3.774  30.052  1.00  0.00    -0.353 OA
HETATM   25  C20 UNK     1      18.329   2.515  29.434  1.00  0.00     0.210 C 
ENDBRANCH   9  24
BRANCH  10  26
HETATM   26  N2  UNK     1      18.719   1.777  34.438  1.00  0.00    -0.116 N 
HETATM   27  O5  UNK     1      19.046   1.996  35.629  1.00  0.00    -0.532 OA
HETATM   28  O6  UNK     1      18.650   0.616  33.969  1.00  0.00    -0.532 OA
ENDBRANCH  10  26
TORSDOF 3
ENDMDL
MODEL 7
REMARK VINA RESULT:      -8.1     16.530     20.395
REMARK  3 active torsions:
REMARK  status: ('A' for Active; 'I' for Inactive)
REMARK    1  A    between atoms: C17_25  and  O4_4 
REMARK       I    between atoms: C6_14  and  N1_7 
REMARK    2  A    between atoms: C18_26  and  N2_8 
REMARK    3  A    between atoms: C6_14  and  C9_17 
ROOT
HETATM    1  O2  UNK     1      29.786  -9.546  37.821  1.00  0.00    -0.271 OA
HETATM    2  O3  UNK     1      31.791 -10.423  37.167  1.00  0.00    -0.259 OA
HETATM    3  C9  UNK     1      31.590  -8.064  37.096  1.00  0.00     0.108 A 
HETATM    4  C12 UNK     1      30.825  -6.986  37.302  1.00  0.00     0.037 A 
HETATM    5  C13 UNK     1      29.463  -7.136  37.791  1.00  0.00     0.004 A 
HETATM    6  C14 UNK     1      31.093  -9.433  37.354  1.00  0.00     0.304 A 
HETATM    7  C15 UNK     1      28.974  -8.415  38.039  1.00  0.00     0.123 A 
HETATM    8  C16 UNK     1      28.627  -6.041  38.019  1.00  0.00     0.050 A 
HETATM    9  C17 UNK     1      27.680  -8.628  38.508  1.00  0.00     0.105 A 
HETATM   10  C18 UNK     1      27.326  -6.238  38.490  1.00  0.00     0.106 A 
HETATM   11  C19 UNK     1      26.854  -7.529  38.734  1.00  0.00     0.075 A 
ENDROOT
BRANCH   3  12
HETATM   12  C6  UNK     1      32.958  -7.808  36.599  1.00  0.00     0.264 C 
HETATM   13  O1  UNK     1      33.855  -7.732  37.439  1.00  0.00    -0.267 OA
HETATM   14  N1  UNK     1      33.104  -7.656  35.228  1.00  0.00    -0.308 N 
HETATM   15  C1  UNK     1      32.044  -7.738  34.175  1.00  0.00     0.093 C 
HETATM   16  C4  UNK     1      34.334  -7.394  34.574  1.00  0.00     0.044 A 
HETATM   17  C2  UNK     1      32.651  -7.113  32.902  1.00  0.00     0.066 C 
HETATM   18  C5  UNK     1      31.639  -9.194  33.918  1.00  0.00     0.033 C 
HETATM   19  C3  UNK     1      34.111  -7.124  33.221  1.00  0.00    -0.029 A 
HETATM   20  C7  UNK     1      35.157  -6.831  32.360  1.00  0.00     0.009 A 
HETATM   21  C10 UNK     1      36.455  -6.821  32.871  1.00  0.00     0.001 A 
HETATM   22  C11 UNK     1      36.684  -7.090  34.227  1.00  0.00     0.002 A 
HETATM   23  C8  UNK     1      35.621  -7.375  35.091  1.00  0.00     0.030 A 
ENDBRANCH   3  12
BRANCH   9  24
HETATM   24  O4  UNK     1      27.215  -9.884  38.747  1.00  0.00    -0.353 OA
HETATM   25  C20 UNK     1      27.242 -10.341  40.098  1.00  0.00     0.210 C 
ENDBRANCH   9  24
BRANCH  10  26
HETATM   26  N2  UNK     1      26.481  -5.120  38.722  1.00  0.00    -0.116 N 
HETATM   27  O5  UNK     1      25.238  -5.269  38.638  1.00  0.00    -0.532 OA
HETATM   28  O6  UNK     1      27.002  -4.014  39.005  1.00  0.00    -0.532 OA
ENDBRANCH  10  26
TORSDOF 3
ENDMDL
MODEL 8
REMARK VINA RESULT:      -8.1     16.613     19.561
REMARK  3 active torsions:
REMARK  status: ('A' for Active; 'I' for Inactive)
REMARK    1  A    between atoms: C17_25  and  O4_4 
REMARK       I    between atoms: C6_14  and  N1_7 
REMARK    2  A    between atoms: C18_26  and  N2_8 
REMARK    3  A    between atoms: C6_14  and  C9_17 
ROOT
HETATM    1  O2  UNK     1      29.979  -9.452  37.031  1.00  0.00    -0.271 OA
HETATM    2  O3  UNK     1      31.423 -10.351  35.505  1.00  0.00    -0.259 OA
HETATM    3  C9  UNK     1      30.532  -8.216  34.995  1.00  0.00     0.108 A 
HETATM    4  C12 UNK     1      29.738  -7.203  35.361  1.00  0.00     0.037 A 
HETATM    5  C13 UNK     1      29.002  -7.264  36.615  1.00  0.00     0.004 A 
HETATM    6  C14 UNK     1      30.696  -9.422  35.837  1.00  0.00     0.304 A 
HETATM    7  C15 UNK     1      29.140  -8.390  37.421  1.00  0.00     0.123 A 
HETATM    8  C16 UNK     1      28.160  -6.233  37.036  1.00  0.00     0.050 A 
HETATM    9  C17 UNK     1      28.464  -8.511  38.633  1.00  0.00     0.105 A 
HETATM   10  C18 UNK     1      27.476  -6.340  38.250  1.00  0.00     0.106 A 
HETATM   11  C19 UNK     1      27.627  -7.476  39.047  1.00  0.00     0.075 A 
ENDROOT
BRANCH   3  12
HETATM   12  C6  UNK     1      31.237  -8.060  33.705  1.00  0.00     0.264 C 
HETATM   13  O1  UNK     1      32.388  -7.625  33.744  1.00  0.00    -0.267 OA
HETATM   14  N1  UNK     1      30.528  -8.401  32.564  1.00  0.00    -0.308 N 
HETATM   15  C1  UNK     1      29.131  -8.931  32.471  1.00  0.00     0.093 C 
HETATM   16  C4  UNK     1      31.035  -8.306  31.243  1.00  0.00     0.044 A 
HETATM   17  C2  UNK     1      28.703  -8.764  30.999  1.00  0.00     0.066 C 
HETATM   18  C5  UNK     1      29.077 -10.406  32.882  1.00  0.00     0.033 C 
HETATM   19  C3  UNK     1      30.017  -8.556  30.318  1.00  0.00    -0.029 A 
HETATM   20  C7  UNK     1      30.255  -8.519  28.953  1.00  0.00     0.009 A 
HETATM   21  C10 UNK     1      31.548  -8.235  28.512  1.00  0.00     0.001 A 
HETATM   22  C11 UNK     1      32.571  -7.981  29.435  1.00  0.00     0.002 A 
HETATM   23  C8  UNK     1      32.320  -8.011  30.811  1.00  0.00     0.030 A 
ENDBRANCH   3  12
BRANCH   9  24
HETATM   24  O4  UNK     1      28.608  -9.617  39.413  1.00  0.00    -0.353 OA
HETATM   25  C20 UNK     1      27.418 -10.197  39.943  1.00  0.00     0.210 C 
ENDBRANCH   9  24
BRANCH  10  26
HETATM   26  N2  UNK     1      26.622  -5.287  38.675  1.00  0.00    -0.116 N 
HETATM   27  O5  UNK     1      25.385  -5.488  38.722  1.00  0.00    -0.532 OA
HETATM   28  O6  UNK     1      27.130  -4.184  38.992  1.00  0.00    -0.532 OA
ENDBRANCH  10  26
TORSDOF 3
ENDMDL
MODEL 9
REMARK VINA RESULT:      -8.0     16.717     19.585
REMARK  3 active torsions:
REMARK  status: ('A' for Active; 'I' for Inactive)
REMARK    1  A    between atoms: C17_25  and  O4_4 
REMARK       I    between atoms: C6_14  and  N1_7 
REMARK    2  A    between atoms: C18_26  and  N2_8 
REMARK    3  A    between atoms: C6_14  and  C9_17 
ROOT
HETATM    1  O2  UNK     1      31.445  -7.745  36.186  1.00  0.00    -0.271 OA
HETATM    2  O3  UNK     1      32.430  -8.912  34.487  1.00  0.00    -0.259 OA
HETATM    3  C9  UNK     1      30.089  -8.585  34.333  1.00  0.00     0.108 A 
HETATM    4  C12 UNK     1      28.979  -8.070  34.875  1.00  0.00     0.037 A 
HETATM    5  C13 UNK     1      29.046  -7.348  36.136  1.00  0.00     0.004 A 
HETATM    6  C14 UNK     1      31.412  -8.442  34.981  1.00  0.00     0.304 A 
HETATM    7  C15 UNK     1      30.280  -7.202  36.764  1.00  0.00     0.123 A 
HETATM    8  C16 UNK     1      27.915  -6.796  36.740  1.00  0.00     0.050 A 
HETATM    9  C17 UNK     1      30.413  -6.522  37.971  1.00  0.00     0.105 A 
HETATM   10  C18 UNK     1      28.033  -6.109  37.952  1.00  0.00     0.106 A 
HETATM   11  C19 UNK     1      29.279  -5.973  38.566  1.00  0.00     0.075 A 
ENDROOT
BRANCH   3  12
HETATM   12  C6  UNK     1      29.918  -9.301  33.051  1.00  0.00     0.264 C 
HETATM   13  O1  UNK     1      29.481 -10.451  33.106  1.00  0.00    -0.267 OA
HETATM   14  N1  UNK     1      30.285  -8.617  31.902  1.00  0.00    -0.308 N 
HETATM   15  C1  UNK     1      30.820  -7.224  31.791  1.00  0.00     0.093 C 
HETATM   16  C4  UNK     1      30.201  -9.147  30.590  1.00  0.00     0.044 A 
HETATM   17  C2  UNK     1      31.424  -7.105  30.377  1.00  0.00     0.066 C 
HETATM   18  C5  UNK     1      29.704  -6.191  31.987  1.00  0.00     0.033 C 
HETATM   19  C3  UNK     1      30.809  -8.276  29.681  1.00  0.00    -0.029 A 
HETATM   20  C7  UNK     1      30.865  -8.567  28.327  1.00  0.00     0.009 A 
HETATM   21  C10 UNK     1      30.288  -9.755  27.879  1.00  0.00     0.001 A 
HETATM   22  C11 UNK     1      29.680 -10.633  28.786  1.00  0.00     0.002 A 
HETATM   23  C8  UNK     1      29.636 -10.335  30.152  1.00  0.00     0.030 A 
ENDBRANCH   3  12
BRANCH   9  24
HETATM   24  O4  UNK     1      31.625  -6.386  38.574  1.00  0.00    -0.353 OA
HETATM   25  C20 UNK     1      32.327  -5.164  38.355  1.00  0.00     0.210 C 
ENDBRANCH   9  24
BRANCH  10  26
HETATM   26  N2  UNK     1      26.878  -5.548  38.562  1.00  0.00    -0.116 N 
HETATM   27  O5  UNK     1      25.840  -6.245  38.654  1.00  0.00    -0.532 OA
HETATM   28  O6  UNK     1      26.931  -4.370  38.991  1.00  0.00    -0.532 OA
ENDBRANCH  10  26
TORSDOF 3
ENDMDL
MODEL 10
REMARK VINA RESULT:      -7.9     17.500     20.859
REMARK  3 active torsions:
REMARK  status: ('A' for Active; 'I' for Inactive)
REMARK    1  A    between atoms: C17_25  and  O4_4 
REMARK       I    between atoms: C6_14  and  N1_7 
REMARK    2  A    between atoms: C18_26  and  N2_8 
REMARK    3  A    between atoms: C6_14  and  C9_17 
ROOT
HETATM    1  O2  UNK     1      35.715  -7.721  34.671  1.00  0.00    -0.271 OA
HETATM    2  O3  UNK     1      35.102  -6.988  36.746  1.00  0.00    -0.259 OA
HETATM    3  C9  UNK     1      33.705  -6.356  34.941  1.00  0.00     0.108 A 
HETATM    4  C12 UNK     1      33.461  -6.405  33.626  1.00  0.00     0.037 A 
HETATM    5  C13 UNK     1      34.357  -7.135  32.741  1.00  0.00     0.004 A 
HETATM    6  C14 UNK     1      34.876  -7.031  35.542  1.00  0.00     0.304 A 
HETATM    7  C15 UNK     1      35.465  -7.776  33.286  1.00  0.00     0.123 A 
HETATM    8  C16 UNK     1      34.144  -7.212  31.363  1.00  0.00     0.050 A 
HETATM    9  C17 UNK     1      36.361  -8.491  32.495  1.00  0.00     0.105 A 
HETATM   10  C18 UNK     1      35.034  -7.926  30.556  1.00  0.00     0.106 A 
HETATM   11  C19 UNK     1      36.140  -8.565  31.121  1.00  0.00     0.075 A 
ENDROOT
BRANCH   3  12
HETATM   12  C6  UNK     1      32.738  -5.590  35.756  1.00  0.00     0.264 C 
HETATM   13  O1  UNK     1      32.850  -4.365  35.754  1.00  0.00    -0.267 OA
HETATM   14  N1  UNK     1      31.801  -6.327  36.465  1.00  0.00    -0.308 N 
HETATM   15  C1  UNK     1      31.631  -7.813  36.496  1.00  0.00     0.093 C 
HETATM   16  C4  UNK     1      30.806  -5.767  37.305  1.00  0.00     0.044 A 
HETATM   17  C2  UNK     1      30.736  -8.120  37.714  1.00  0.00     0.066 C 
HETATM   18  C5  UNK     1      30.973  -8.317  35.206  1.00  0.00     0.033 C 
HETATM   19  C3  UNK     1      30.143  -6.779  38.004  1.00  0.00    -0.029 A 
HETATM   20  C7  UNK     1      29.124  -6.492  38.900  1.00  0.00     0.009 A 
HETATM   21  C10 UNK     1      28.760  -5.158  39.085  1.00  0.00     0.001 A 
HETATM   22  C11 UNK     1      29.423  -4.139  38.388  1.00  0.00     0.002 A 
HETATM   23  C8  UNK     1      30.457  -4.438  37.494  1.00  0.00     0.030 A 
ENDBRANCH   3  12
BRANCH   9  24
HETATM   24  O4  UNK     1      37.440  -9.114  33.040  1.00  0.00    -0.353 OA
HETATM   25  C20 UNK     1      37.352 -10.526  33.223  1.00  0.00     0.210 C 
ENDBRANCH   9  24
BRANCH  10  26
HETATM   26  N2  UNK     1      34.811  -8.004  29.155  1.00  0.00    -0.116 N 
HETATM   27  O5  UNK     1      33.718  -8.455  28.737  1.00  0.00    -0.532 OA
HETATM   28  O6  UNK     1      35.715  -7.617  28.375  1.00  0.00    -0.532 OA
ENDBRANCH  10  26
TORSDOF 3
ENDMDL
