MODEL 1
REMARK VINA RESULT:      -8.5      0.000      0.000
REMARK  7 active torsions:
REMARK  status: ('A' for Active; 'I' for Inactive)
REMARK    1  A    between atoms: C14_21  and  O3_3 
REMARK    2  A    between atoms: C21_28  and  O3_3 
REMARK    3  A    between atoms: C24_31  and  O6_6 
REMARK    4  A    between atoms: C26_33  and  O6_6 
REMARK    5  A    between atoms: C12_19  and  C6_13 
REMARK    6  A    between atoms: C10_17  and  C14_21 
REMARK    7  A    between atoms: C21_28  and  C24_31 
ROOT
HETATM    1  O1  UNK     1      32.251  -9.784  35.270  1.00  0.00    -0.293 OA
HETATM    2  N1  UNK     1      29.030 -10.332  31.842  1.00  0.00    -0.362 N 
HETATM    3  C1  UNK     1      31.561 -12.732  33.273  1.00  0.00    -0.036 C 
HETATM    4  C2  UNK     1      30.183 -12.316  32.719  1.00  0.00     0.067 C 
HETATM    5  C3  UNK     1      31.793 -12.037  34.622  1.00  0.00     0.092 C 
HETATM    6  C4  UNK     1      29.933 -10.829  32.763  1.00  0.00     0.021 C 
HETATM    7  C5  UNK     1      30.567  -9.994  33.611  1.00  0.00     0.024 C 
HETATM    8  C6  UNK     1      30.270  -8.495  33.615  1.00  0.00     0.104 C 
HETATM    9  C7  UNK     1      31.600 -10.537  34.545  1.00  0.00     0.159 C 
HETATM   10  C8  UNK     1      32.682 -12.366  32.278  1.00  0.00     0.015 C 
HETATM   11  C9  UNK     1      31.584 -14.257  33.477  1.00  0.00     0.015 C 
HETATM   12  C10 UNK     1      29.410  -8.070  32.421  1.00  0.00     0.052 C 
HETATM   13  C11 UNK     1      28.810  -8.981  31.622  1.00  0.00     0.018 C 
HETATM   14  C13 UNK     1      27.900  -8.666  30.466  1.00  0.00     0.069 C 
HETATM   15  H12 UNK     1      28.573 -10.992  31.222  1.00  0.00     0.165 HD
ENDROOT
BRANCH   8  16
HETATM   16  C12 UNK     1      29.603  -8.091  34.907  1.00  0.00     0.029 A 
HETATM   17  C15 UNK     1      30.088  -6.874  35.606  1.00  0.00     0.194 A 
HETATM   18  C17 UNK     1      29.401  -6.525  36.864  1.00  0.00     0.049 A 
HETATM   19  O5  UNK     1      31.008  -6.196  35.169  1.00  0.00    -0.287 OA
HETATM   20  C18 UNK     1      28.360  -7.337  37.315  1.00  0.00     0.089 A 
HETATM   21  C19 UNK     1      29.786  -5.400  37.596  1.00  0.00     0.025 A 
HETATM   22  C20 UNK     1      27.697  -7.025  38.502  1.00  0.00     0.039 A 
HETATM   23  O2  UNK     1      27.942  -8.453  36.636  1.00  0.00    -0.321 OA
HETATM   24  C23 UNK     1      28.078  -5.902  39.235  1.00  0.00     0.009 A 
HETATM   25  C22 UNK     1      29.120  -5.091  38.783  1.00  0.00    -0.061 A 
HETATM   26  C25 UNK     1      29.522  -3.890  39.572  1.00  0.00     0.048 C 
HETATM   27  C16 UNK     1      28.591  -8.766  35.467  1.00  0.00     0.154 A 
ENDBRANCH   8  16
BRANCH  12  28
HETATM   28  C14 UNK     1      29.318  -6.625  32.154  1.00  0.00     0.292 C 
HETATM   29  O4  UNK     1      28.346  -5.952  32.441  1.00  0.00    -0.259 OA
BRANCH  28  30
HETATM   30  O3  UNK     1      30.469  -6.226  31.560  1.00  0.00    -0.316 OA
BRANCH  30  31
HETATM   31  C21 UNK     1      30.316  -5.669  30.252  1.00  0.00     0.205 C 
BRANCH  31  32
HETATM   32  C24 UNK     1      31.507  -6.067  29.402  1.00  0.00     0.202 C 
BRANCH  32  33
HETATM   33  O6  UNK     1      31.076  -6.974  28.395  1.00  0.00    -0.349 OA
BRANCH  33  34
HETATM   34  C26 UNK     1      31.152  -8.309  28.694  1.00  0.00     0.068 A 
HETATM   35  C28 UNK     1      30.265  -9.199  28.098  1.00  0.00     0.037 A 
HETATM   36  C30 UNK     1      30.342 -10.558  28.402  1.00  0.00     0.003 A 
HETATM   37  C31 UNK     1      31.305 -11.018  29.300  1.00  0.00     0.000 A 
HETATM   38  C29 UNK     1      32.191 -10.119  29.894  1.00  0.00     0.003 A 
HETATM   39  C27 UNK     1      32.114  -8.760  29.591  1.00  0.00     0.037 A 
ENDBRANCH  33  34
ENDBRANCH  32  33
ENDBRANCH  31  32
ENDBRANCH  30  31
ENDBRANCH  28  30
ENDBRANCH  12  28
TORSDOF 7
ENDMDL
MODEL 2
REMARK VINA RESULT:      -8.4      3.540      8.715
REMARK  7 active torsions:
REMARK  status: ('A' for Active; 'I' for Inactive)
REMARK    1  A    between atoms: C14_21  and  O3_3 
REMARK    2  A    between atoms: C21_28  and  O3_3 
REMARK    3  A    between atoms: C24_31  and  O6_6 
REMARK    4  A    between atoms: C26_33  and  O6_6 
REMARK    5  A    between atoms: C12_19  and  C6_13 
REMARK    6  A    between atoms: C10_17  and  C14_21 
REMARK    7  A    between atoms: C21_28  and  C24_31 
ROOT
HETATM    1  O1  UNK     1      32.225  -8.310  34.329  1.00  0.00    -0.293 OA
HETATM    2  N1  UNK     1      30.312  -5.921  37.943  1.00  0.00    -0.362 N 
HETATM    3  C1  UNK     1      33.834  -5.985  36.600  1.00  0.00    -0.036 C 
HETATM    4  C2  UNK     1      32.569  -5.321  37.183  1.00  0.00     0.067 C 
HETATM    5  C3  UNK     1      33.528  -6.501  35.187  1.00  0.00     0.092 C 
HETATM    6  C4  UNK     1      31.320  -6.151  37.025  1.00  0.00     0.021 C 
HETATM    7  C5  UNK     1      31.173  -7.102  36.079  1.00  0.00     0.024 C 
HETATM    8  C6  UNK     1      29.881  -7.908  35.962  1.00  0.00     0.104 C 
HETATM    9  C7  UNK     1      32.304  -7.392  35.145  1.00  0.00     0.159 C 
HETATM   10  C8  UNK     1      34.310  -7.140  37.505  1.00  0.00     0.015 C 
HETATM   11  C9  UNK     1      34.963  -4.942  36.525  1.00  0.00     0.015 C 
HETATM   12  C10 UNK     1      28.947  -7.686  37.155  1.00  0.00     0.052 C 
HETATM   13  C11 UNK     1      29.173  -6.704  38.057  1.00  0.00     0.018 C 
HETATM   14  C13 UNK     1      28.287  -6.368  39.224  1.00  0.00     0.069 C 
HETATM   15  H12 UNK     1      30.459  -5.198  38.638  1.00  0.00     0.165 HD
ENDROOT
BRANCH   8  16
HETATM   16  C12 UNK     1      29.166  -7.580  34.674  1.00  0.00     0.029 A 
HETATM   17  C15 UNK     1      29.173  -8.585  33.582  1.00  0.00     0.194 A 
HETATM   18  C17 UNK     1      28.460  -8.213  32.345  1.00  0.00     0.049 A 
HETATM   19  O5  UNK     1      29.739  -9.665  33.695  1.00  0.00    -0.287 OA
HETATM   20  C18 UNK     1      27.835  -6.968  32.273  1.00  0.00     0.089 A 
HETATM   21  C19 UNK     1      28.410  -9.091  31.260  1.00  0.00     0.025 A 
HETATM   22  C20 UNK     1      27.154  -6.595  31.113  1.00  0.00     0.039 A 
HETATM   23  O2  UNK     1      27.852  -6.068  33.308  1.00  0.00    -0.321 OA
HETATM   24  C23 UNK     1      27.102  -7.470  30.028  1.00  0.00     0.009 A 
HETATM   25  C22 UNK     1      27.729  -8.715  30.102  1.00  0.00    -0.061 A 
HETATM   26  C25 UNK     1      27.669  -9.647  28.938  1.00  0.00     0.048 C 
HETATM   27  C16 UNK     1      28.520  -6.428  34.452  1.00  0.00     0.154 A 
ENDBRANCH   8  16
BRANCH  12  28
HETATM   28  C14 UNK     1      27.827  -8.631  37.303  1.00  0.00     0.292 C 
HETATM   29  O4  UNK     1      27.975  -9.803  37.594  1.00  0.00    -0.259 OA
BRANCH  28  30
HETATM   30  O3  UNK     1      26.672  -7.966  37.061  1.00  0.00    -0.316 OA
BRANCH  30  31
HETATM   31  C21 UNK     1      25.487  -8.616  37.531  1.00  0.00     0.205 C 
BRANCH  31  32
HETATM   32  C24 UNK     1      25.081  -8.006  38.859  1.00  0.00     0.202 C 
BRANCH  32  33
HETATM   33  O6  UNK     1      24.217  -6.902  38.617  1.00  0.00    -0.349 OA
BRANCH  33  34
HETATM   34  C26 UNK     1      22.883  -7.099  38.859  1.00  0.00     0.068 A 
HETATM   35  C28 UNK     1      22.457  -8.292  39.432  1.00  0.00     0.037 A 
HETATM   36  C30 UNK     1      21.098  -8.491  39.679  1.00  0.00     0.003 A 
HETATM   37  C31 UNK     1      20.176  -7.497  39.352  1.00  0.00     0.000 A 
HETATM   38  C29 UNK     1      20.612  -6.304  38.777  1.00  0.00     0.003 A 
HETATM   39  C27 UNK     1      21.970  -6.104  38.529  1.00  0.00     0.037 A 
ENDBRANCH  33  34
ENDBRANCH  32  33
ENDBRANCH  31  32
ENDBRANCH  30  31
ENDBRANCH  28  30
ENDBRANCH  12  28
TORSDOF 7
ENDMDL
MODEL 3
REMARK VINA RESULT:      -8.2      3.460      6.906
REMARK  7 active torsions:
REMARK  status: ('A' for Active; 'I' for Inactive)
REMARK    1  A    between atoms: C14_21  and  O3_3 
REMARK    2  A    between atoms: C21_28  and  O3_3 
REMARK    3  A    between atoms: C24_31  and  O6_6 
REMARK    4  A    between atoms: C26_33  and  O6_6 
REMARK    5  A    between atoms: C12_19  and  C6_13 
REMARK    6  A    between atoms: C10_17  and  C14_21 
REMARK    7  A    between atoms: C21_28  and  C24_31 
ROOT
HETATM    1  O1  UNK     1      34.613 -11.949  32.053  1.00  0.00    -0.293 OA
HETATM    2  N1  UNK     1      36.485  -8.166  34.200  1.00  0.00    -0.362 N 
HETATM    3  C1  UNK     1      38.089 -11.304  32.861  1.00  0.00    -0.036 C 
HETATM    4  C2  UNK     1      37.986  -9.788  33.127  1.00  0.00     0.067 C 
HETATM    5  C3  UNK     1      36.985 -11.722  31.880  1.00  0.00     0.092 C 
HETATM    6  C4  UNK     1      36.588  -9.322  33.448  1.00  0.00     0.021 C 
HETATM    7  C5  UNK     1      35.477  -9.989  33.075  1.00  0.00     0.024 C 
HETATM    8  C6  UNK     1      34.085  -9.466  33.424  1.00  0.00     0.104 C 
HETATM    9  C7  UNK     1      35.608 -11.280  32.331  1.00  0.00     0.159 C 
HETATM   10  C8  UNK     1      37.969 -12.098  34.178  1.00  0.00     0.015 C 
HETATM   11  C9  UNK     1      39.463 -11.615  32.240  1.00  0.00     0.015 C 
HETATM   12  C10 UNK     1      34.133  -8.302  34.418  1.00  0.00     0.052 C 
HETATM   13  C11 UNK     1      35.297  -7.690  34.733  1.00  0.00     0.018 C 
HETATM   14  C13 UNK     1      35.442  -6.505  35.647  1.00  0.00     0.069 C 
HETATM   15  H12 UNK     1      37.343  -7.692  34.461  1.00  0.00     0.165 HD
ENDROOT
BRANCH   8  16
HETATM   16  C12 UNK     1      33.346  -9.052  32.175  1.00  0.00     0.029 A 
HETATM   17  C15 UNK     1      32.021  -9.664  31.898  1.00  0.00     0.194 A 
HETATM   18  C17 UNK     1      31.343  -9.225  30.664  1.00  0.00     0.049 A 
HETATM   19  O5  UNK     1      31.516 -10.489  32.648  1.00  0.00    -0.287 OA
HETATM   20  C18 UNK     1      31.968  -8.283  29.846  1.00  0.00     0.089 A 
HETATM   21  C19 UNK     1      30.094  -9.742  30.315  1.00  0.00     0.025 A 
HETATM   22  C20 UNK     1      31.345  -7.853  28.674  1.00  0.00     0.039 A 
HETATM   23  O2  UNK     1      33.194  -7.742  30.140  1.00  0.00    -0.321 OA
HETATM   24  C23 UNK     1      30.097  -8.368  28.323  1.00  0.00     0.009 A 
HETATM   25  C22 UNK     1      29.473  -9.310  29.142  1.00  0.00    -0.061 A 
HETATM   26  C25 UNK     1      28.138  -9.857  28.762  1.00  0.00     0.048 C 
HETATM   27  C16 UNK     1      33.814  -8.161  31.292  1.00  0.00     0.154 A 
ENDBRANCH   8  16
BRANCH  12  28
HETATM   28  C14 UNK     1      32.861  -7.923  35.055  1.00  0.00     0.292 C 
HETATM   29  O4  UNK     1      32.439  -8.447  36.069  1.00  0.00    -0.259 OA
BRANCH  28  30
HETATM   30  O3  UNK     1      32.295  -6.934  34.324  1.00  0.00    -0.316 OA
BRANCH  30  31
HETATM   31  C21 UNK     1      31.501  -6.006  35.070  1.00  0.00     0.205 C 
BRANCH  31  32
HETATM   32  C24 UNK     1      30.041  -6.201  34.710  1.00  0.00     0.202 C 
BRANCH  32  33
HETATM   33  O6  UNK     1      29.943  -7.190  33.692  1.00  0.00    -0.349 OA
BRANCH  33  34
HETATM   34  C26 UNK     1      29.247  -6.845  32.564  1.00  0.00     0.068 A 
HETATM   35  C28 UNK     1      28.013  -7.436  32.310  1.00  0.00     0.037 A 
HETATM   36  C30 UNK     1      27.304  -7.085  31.161  1.00  0.00     0.003 A 
HETATM   37  C31 UNK     1      27.831  -6.146  30.275  1.00  0.00     0.000 A 
HETATM   38  C29 UNK     1      29.069  -5.559  30.536  1.00  0.00     0.003 A 
HETATM   39  C27 UNK     1      29.779  -5.910  31.684  1.00  0.00     0.037 A 
ENDBRANCH  33  34
ENDBRANCH  32  33
ENDBRANCH  31  32
ENDBRANCH  30  31
ENDBRANCH  28  30
ENDBRANCH  12  28
TORSDOF 7
ENDMDL
MODEL 4
REMARK VINA RESULT:      -8.2      2.906      6.787
REMARK  7 active torsions:
REMARK  status: ('A' for Active; 'I' for Inactive)
REMARK    1  A    between atoms: C14_21  and  O3_3 
REMARK    2  A    between atoms: C21_28  and  O3_3 
REMARK    3  A    between atoms: C24_31  and  O6_6 
REMARK    4  A    between atoms: C26_33  and  O6_6 
REMARK    5  A    between atoms: C12_19  and  C6_13 
REMARK    6  A    between atoms: C10_17  and  C14_21 
REMARK    7  A    between atoms: C21_28  and  C24_31 
ROOT
HETATM    1  O1  UNK     1      27.645  -6.913  34.992  1.00  0.00    -0.293 OA
HETATM    2  N1  UNK     1      30.881  -6.690  38.442  1.00  0.00    -0.362 N 
HETATM    3  C1  UNK     1      27.246  -7.686  38.512  1.00  0.00    -0.036 C 
HETATM    4  C2  UNK     1      28.737  -7.799  38.893  1.00  0.00     0.067 C 
HETATM    5  C3  UNK     1      27.077  -8.029  37.026  1.00  0.00     0.092 C 
HETATM    6  C4  UNK     1      29.664  -7.100  37.931  1.00  0.00     0.021 C 
HETATM    7  C5  UNK     1      29.343  -6.837  36.647  1.00  0.00     0.024 C 
HETATM    8  C6  UNK     1      30.326  -6.131  35.715  1.00  0.00     0.104 C 
HETATM    9  C7  UNK     1      27.992  -7.217  36.133  1.00  0.00     0.159 C 
HETATM   10  C8  UNK     1      26.715  -6.267  38.802  1.00  0.00     0.015 C 
HETATM   11  C9  UNK     1      26.432  -8.682  39.359  1.00  0.00     0.015 C 
HETATM   12  C10 UNK     1      31.535  -5.565  36.466  1.00  0.00     0.052 C 
HETATM   13  C11 UNK     1      31.779  -5.886  37.756  1.00  0.00     0.018 C 
HETATM   14  C13 UNK     1      32.966  -5.432  38.561  1.00  0.00     0.069 C 
HETATM   15  H12 UNK     1      31.086  -6.907  39.411  1.00  0.00     0.165 HD
ENDROOT
BRANCH   8  16
HETATM   16  C12 UNK     1      30.784  -7.065  34.622  1.00  0.00     0.029 A 
HETATM   17  C15 UNK     1      30.670  -6.616  33.211  1.00  0.00     0.194 A 
HETATM   18  C17 UNK     1      31.131  -7.567  32.183  1.00  0.00     0.049 A 
HETATM   19  O5  UNK     1      30.217  -5.518  32.912  1.00  0.00    -0.287 OA
HETATM   20  C18 UNK     1      31.636  -8.805  32.583  1.00  0.00     0.089 A 
HETATM   21  C19 UNK     1      31.064  -7.239  30.827  1.00  0.00     0.025 A 
HETATM   22  C20 UNK     1      32.078  -9.720  31.627  1.00  0.00     0.039 A 
HETATM   23  O2  UNK     1      31.725  -9.179  33.899  1.00  0.00    -0.321 OA
HETATM   24  C23 UNK     1      32.013  -9.394  30.272  1.00  0.00     0.009 A 
HETATM   25  C22 UNK     1      31.507  -8.157  29.873  1.00  0.00    -0.061 A 
HETATM   26  C25 UNK     1      31.441  -7.813  28.423  1.00  0.00     0.048 C 
HETATM   27  C16 UNK     1      31.291  -8.284  34.845  1.00  0.00     0.154 A 
ENDBRANCH   8  16
BRANCH  12  28
HETATM   28  C14 UNK     1      32.382  -4.610  35.731  1.00  0.00     0.292 C 
HETATM   29  O4  UNK     1      32.222  -3.405  35.772  1.00  0.00    -0.259 OA
BRANCH  28  30
HETATM   30  O3  UNK     1      33.317  -5.310  35.044  1.00  0.00    -0.316 OA
BRANCH  30  31
HETATM   31  C21 UNK     1      34.673  -5.023  35.400  1.00  0.00     0.205 C 
BRANCH  31  32
HETATM   32  C24 UNK     1      35.519  -6.258  35.160  1.00  0.00     0.202 C 
BRANCH  32  33
HETATM   33  O6  UNK     1      34.688  -7.303  34.671  1.00  0.00    -0.349 OA
BRANCH  33  34
HETATM   34  C26 UNK     1      35.000  -7.814  33.439  1.00  0.00     0.068 A 
HETATM   35  C28 UNK     1      34.841  -7.024  32.305  1.00  0.00     0.037 A 
HETATM   36  C30 UNK     1      35.160  -7.544  31.051  1.00  0.00     0.003 A 
HETATM   37  C31 UNK     1      35.636  -8.851  30.938  1.00  0.00     0.000 A 
HETATM   38  C29 UNK     1      35.792  -9.637  32.079  1.00  0.00     0.003 A 
HETATM   39  C27 UNK     1      35.472  -9.117  33.334  1.00  0.00     0.037 A 
ENDBRANCH  33  34
ENDBRANCH  32  33
ENDBRANCH  31  32
ENDBRANCH  30  31
ENDBRANCH  28  30
ENDBRANCH  12  28
TORSDOF 7
ENDMDL
MODEL 5
REMARK VINA RESULT:      -8.2      2.405      6.162
REMARK  7 active torsions:
REMARK  status: ('A' for Active; 'I' for Inactive)
REMARK    1  A    between atoms: C14_21  and  O3_3 
REMARK    2  A    between atoms: C21_28  and  O3_3 
REMARK    3  A    between atoms: C24_31  and  O6_6 
REMARK    4  A    between atoms: C26_33  and  O6_6 
REMARK    5  A    between atoms: C12_19  and  C6_13 
REMARK    6  A    between atoms: C10_17  and  C14_21 
REMARK    7  A    between atoms: C21_28  and  C24_31 
ROOT
HETATM    1  O1  UNK     1      27.465  -8.584  35.497  1.00  0.00    -0.293 OA
HETATM    2  N1  UNK     1      31.517  -8.688  37.945  1.00  0.00    -0.362 N 
HETATM    3  C1  UNK     1      27.963  -9.367  39.003  1.00  0.00    -0.036 C 
HETATM    4  C2  UNK     1      29.485  -9.614  38.969  1.00  0.00     0.067 C 
HETATM    5  C3  UNK     1      27.370  -9.674  37.620  1.00  0.00     0.092 C 
HETATM    6  C4  UNK     1      30.176  -8.985  37.785  1.00  0.00     0.021 C 
HETATM    7  C5  UNK     1      29.546  -8.678  36.632  1.00  0.00     0.024 C 
HETATM    8  C6  UNK     1      30.299  -8.047  35.463  1.00  0.00     0.104 C 
HETATM    9  C7  UNK     1      28.078  -8.932  36.505  1.00  0.00     0.159 C 
HETATM   10  C8  UNK     1      27.655  -7.911  39.410  1.00  0.00     0.015 C 
HETATM   11  C9  UNK     1      27.323 -10.299  40.047  1.00  0.00     0.015 C 
HETATM   12  C10 UNK     1      31.709  -7.598  35.854  1.00  0.00     0.052 C 
HETATM   13  C11 UNK     1      32.263  -7.956  37.034  1.00  0.00     0.018 C 
HETATM   14  C13 UNK     1      33.658  -7.618  37.484  1.00  0.00     0.069 C 
HETATM   15  H12 UNK     1      31.956  -8.935  38.824  1.00  0.00     0.165 HD
ENDROOT
BRANCH   8  16
HETATM   16  C12 UNK     1      30.362  -9.002  34.296  1.00  0.00     0.029 A 
HETATM   17  C15 UNK     1      29.667  -8.632  33.037  1.00  0.00     0.194 A 
HETATM   18  C17 UNK     1      29.760  -9.601  31.929  1.00  0.00     0.049 A 
HETATM   19  O5  UNK     1      29.048  -7.582  32.919  1.00  0.00    -0.287 OA
HETATM   20  C18 UNK     1      30.477 -10.782  32.121  1.00  0.00     0.089 A 
HETATM   21  C19 UNK     1      29.140  -9.345  30.704  1.00  0.00     0.025 A 
HETATM   22  C20 UNK     1      30.579 -11.713  31.087  1.00  0.00     0.039 A 
HETATM   23  O2  UNK     1      31.106 -11.085  33.302  1.00  0.00    -0.321 OA
HETATM   24  C23 UNK     1      29.961 -11.460  29.863  1.00  0.00     0.009 A 
HETATM   25  C22 UNK     1      29.243 -10.278  29.672  1.00  0.00    -0.061 A 
HETATM   26  C25 UNK     1      28.585 -10.012  28.359  1.00  0.00     0.048 C 
HETATM   27  C16 UNK     1      31.010 -10.173  34.325  1.00  0.00     0.154 A 
ENDBRANCH   8  16
BRANCH  12  28
HETATM   28  C14 UNK     1      32.407  -6.710  34.908  1.00  0.00     0.292 C 
HETATM   29  O4  UNK     1      32.125  -5.536  34.760  1.00  0.00    -0.259 OA
BRANCH  28  30
HETATM   30  O3  UNK     1      33.366  -7.429  34.276  1.00  0.00    -0.316 OA
BRANCH  30  31
HETATM   31  C21 UNK     1      34.258  -6.665  33.459  1.00  0.00     0.205 C 
BRANCH  31  32
HETATM   32  C24 UNK     1      34.535  -7.430  32.179  1.00  0.00     0.202 C 
BRANCH  32  33
HETATM   33  O6  UNK     1      33.426  -8.273  31.894  1.00  0.00    -0.349 OA
BRANCH  33  34
HETATM   34  C26 UNK     1      32.742  -8.022  30.734  1.00  0.00     0.068 A 
HETATM   35  C28 UNK     1      32.891  -8.879  29.648  1.00  0.00     0.037 A 
HETATM   36  C30 UNK     1      32.194  -8.623  28.467  1.00  0.00     0.003 A 
HETATM   37  C31 UNK     1      31.352  -7.514  28.380  1.00  0.00     0.000 A 
HETATM   38  C29 UNK     1      31.209  -6.660  29.473  1.00  0.00     0.003 A 
HETATM   39  C27 UNK     1      31.906  -6.914  30.654  1.00  0.00     0.037 A 
ENDBRANCH  33  34
ENDBRANCH  32  33
ENDBRANCH  31  32
ENDBRANCH  30  31
ENDBRANCH  28  30
ENDBRANCH  12  28
TORSDOF 7
ENDMDL
MODEL 6
REMARK VINA RESULT:      -8.1      1.208      1.630
REMARK  7 active torsions:
REMARK  status: ('A' for Active; 'I' for Inactive)
REMARK    1  A    between atoms: C14_21  and  O3_3 
REMARK    2  A    between atoms: C21_28  and  O3_3 
REMARK    3  A    between atoms: C24_31  and  O6_6 
REMARK    4  A    between atoms: C26_33  and  O6_6 
REMARK    5  A    between atoms: C12_19  and  C6_13 
REMARK    6  A    between atoms: C10_17  and  C14_21 
REMARK    7  A    between atoms: C21_28  and  C24_31 
ROOT
HETATM    1  O1  UNK     1      32.125  -9.526  34.977  1.00  0.00    -0.293 OA
HETATM    2  N1  UNK     1      28.887 -10.015  31.557  1.00  0.00    -0.362 N 
HETATM    3  C1  UNK     1      31.446 -12.429  32.913  1.00  0.00    -0.036 C 
HETATM    4  C2  UNK     1      30.061 -12.010  32.378  1.00  0.00     0.067 C 
HETATM    5  C3  UNK     1      31.681 -11.766  34.277  1.00  0.00     0.092 C 
HETATM    6  C4  UNK     1      29.800 -10.527  32.460  1.00  0.00     0.021 C 
HETATM    7  C5  UNK     1      30.433  -9.708  33.325  1.00  0.00     0.024 C 
HETATM    8  C6  UNK     1      30.124  -8.212  33.367  1.00  0.00     0.104 C 
HETATM    9  C7  UNK     1      31.476 -10.265  34.239  1.00  0.00     0.159 C 
HETATM   10  C8  UNK     1      32.557 -12.030  31.920  1.00  0.00     0.015 C 
HETATM   11  C9  UNK     1      31.481 -13.959  33.079  1.00  0.00     0.015 C 
HETATM   12  C10 UNK     1      29.253  -7.764  32.190  1.00  0.00     0.052 C 
HETATM   13  C11 UNK     1      28.655  -8.660  31.373  1.00  0.00     0.018 C 
HETATM   14  C13 UNK     1      27.736  -8.324  30.231  1.00  0.00     0.069 C 
HETATM   15  H12 UNK     1      28.431 -10.662  30.924  1.00  0.00     0.165 HD
ENDROOT
BRANCH   8  16
HETATM   16  C12 UNK     1      29.462  -7.845  34.673  1.00  0.00     0.029 A 
HETATM   17  C15 UNK     1      29.992  -6.688  35.437  1.00  0.00     0.194 A 
HETATM   18  C17 UNK     1      29.309  -6.373  36.706  1.00  0.00     0.049 A 
HETATM   19  O5  UNK     1      30.944  -6.028  35.042  1.00  0.00    -0.287 OA
HETATM   20  C18 UNK     1      28.230  -7.161  37.107  1.00  0.00     0.089 A 
HETATM   21  C19 UNK     1      29.733  -5.304  37.498  1.00  0.00     0.025 A 
HETATM   22  C20 UNK     1      27.568  -6.881  38.304  1.00  0.00     0.039 A 
HETATM   23  O2  UNK     1      27.771  -8.222  36.369  1.00  0.00    -0.321 OA
HETATM   24  C23 UNK     1      27.989  -5.814  39.096  1.00  0.00     0.009 A 
HETATM   25  C22 UNK     1      29.070  -5.027  38.694  1.00  0.00    -0.061 A 
HETATM   26  C25 UNK     1      29.515  -3.885  39.545  1.00  0.00     0.048 C 
HETATM   27  C16 UNK     1      28.417  -8.504  35.191  1.00  0.00     0.154 A 
ENDBRANCH   8  16
BRANCH  12  28
HETATM   28  C14 UNK     1      29.149  -6.314  31.959  1.00  0.00     0.292 C 
HETATM   29  O4  UNK     1      28.156  -5.663  32.230  1.00  0.00    -0.259 OA
BRANCH  28  30
HETATM   30  O3  UNK     1      30.313  -5.882  31.418  1.00  0.00    -0.316 OA
BRANCH  30  31
HETATM   31  C21 UNK     1      30.231  -5.472  30.050  1.00  0.00     0.205 C 
BRANCH  31  32
HETATM   32  C24 UNK     1      31.362  -6.116  29.271  1.00  0.00     0.202 C 
BRANCH  32  33
HETATM   33  O6  UNK     1      31.565  -7.437  29.756  1.00  0.00    -0.349 OA
BRANCH  33  34
HETATM   34  C26 UNK     1      32.848  -7.782  30.090  1.00  0.00     0.068 A 
HETATM   35  C28 UNK     1      33.889  -7.483  29.217  1.00  0.00     0.037 A 
HETATM   36  C30 UNK     1      35.196  -7.834  29.557  1.00  0.00     0.003 A 
HETATM   37  C31 UNK     1      35.454  -8.479  30.766  1.00  0.00     0.000 A 
HETATM   38  C29 UNK     1      34.404  -8.775  31.636  1.00  0.00     0.003 A 
HETATM   39  C27 UNK     1      33.097  -8.426  31.296  1.00  0.00     0.037 A 
ENDBRANCH  33  34
ENDBRANCH  32  33
ENDBRANCH  31  32
ENDBRANCH  30  31
ENDBRANCH  28  30
ENDBRANCH  12  28
TORSDOF 7
ENDMDL
MODEL 7
REMARK VINA RESULT:      -8.1      3.127      5.276
REMARK  7 active torsions:
REMARK  status: ('A' for Active; 'I' for Inactive)
REMARK    1  A    between atoms: C14_21  and  O3_3 
REMARK    2  A    between atoms: C21_28  and  O3_3 
REMARK    3  A    between atoms: C24_31  and  O6_6 
REMARK    4  A    between atoms: C26_33  and  O6_6 
REMARK    5  A    between atoms: C12_19  and  C6_13 
REMARK    6  A    between atoms: C10_17  and  C14_21 
REMARK    7  A    between atoms: C21_28  and  C24_31 
ROOT
HETATM    1  O1  UNK     1      31.318  -9.730  34.064  1.00  0.00    -0.293 OA
HETATM    2  N1  UNK     1      31.171  -5.013  34.457  1.00  0.00    -0.362 N 
HETATM    3  C1  UNK     1      30.586  -7.274  31.498  1.00  0.00    -0.036 C 
HETATM    4  C2  UNK     1      30.306  -6.063  32.412  1.00  0.00     0.067 C 
HETATM    5  C3  UNK     1      30.267  -8.567  32.261  1.00  0.00     0.092 C 
HETATM    6  C4  UNK     1      30.900  -6.194  33.793  1.00  0.00     0.021 C 
HETATM    7  C5  UNK     1      31.201  -7.379  34.363  1.00  0.00     0.024 C 
HETATM    8  C6  UNK     1      31.796  -7.452  35.768  1.00  0.00     0.104 C 
HETATM    9  C7  UNK     1      30.975  -8.644  33.598  1.00  0.00     0.159 C 
HETATM   10  C8  UNK     1      32.054  -7.273  31.026  1.00  0.00     0.015 C 
HETATM   11  C9  UNK     1      29.685  -7.185  30.253  1.00  0.00     0.015 C 
HETATM   12  C10 UNK     1      32.221  -6.077  36.291  1.00  0.00     0.052 C 
HETATM   13  C11 UNK     1      31.872  -4.939  35.651  1.00  0.00     0.018 C 
HETATM   14  C13 UNK     1      32.188  -3.543  36.115  1.00  0.00     0.069 C 
HETATM   15  H12 UNK     1      30.930  -4.143  33.996  1.00  0.00     0.165 HD
ENDROOT
BRANCH   8  16
HETATM   16  C12 UNK     1      30.819  -8.093  36.724  1.00  0.00     0.029 A 
HETATM   17  C15 UNK     1      29.435  -7.559  36.789  1.00  0.00     0.194 A 
HETATM   18  C17 UNK     1      28.523  -8.221  37.740  1.00  0.00     0.049 A 
HETATM   19  O5  UNK     1      29.066  -6.621  36.095  1.00  0.00    -0.287 OA
HETATM   20  C18 UNK     1      28.999  -9.285  38.507  1.00  0.00     0.089 A 
HETATM   21  C19 UNK     1      27.200  -7.792  37.875  1.00  0.00     0.025 A 
HETATM   22  C20 UNK     1      28.153  -9.926  39.412  1.00  0.00     0.039 A 
HETATM   23  O2  UNK     1      30.287  -9.747  38.415  1.00  0.00    -0.321 OA
HETATM   24  C23 UNK     1      26.832  -9.500  39.548  1.00  0.00     0.009 A 
HETATM   25  C22 UNK     1      26.357  -8.436  38.782  1.00  0.00    -0.061 A 
HETATM   26  C25 UNK     1      24.942  -7.985  38.931  1.00  0.00     0.048 C 
HETATM   27  C16 UNK     1      31.125  -9.121  37.526  1.00  0.00     0.154 A 
ENDBRANCH   8  16
BRANCH  12  28
HETATM   28  C14 UNK     1      33.077  -6.062  37.490  1.00  0.00     0.292 C 
HETATM   29  O4  UNK     1      32.716  -5.619  38.564  1.00  0.00    -0.259 OA
BRANCH  28  30
HETATM   30  O3  UNK     1      34.274  -6.609  37.167  1.00  0.00    -0.316 OA
BRANCH  30  31
HETATM   31  C21 UNK     1      35.199  -5.718  36.537  1.00  0.00     0.205 C 
BRANCH  31  32
HETATM   32  C24 UNK     1      35.900  -6.449  35.408  1.00  0.00     0.202 C 
BRANCH  32  33
HETATM   33  O6  UNK     1      35.105  -6.358  34.232  1.00  0.00    -0.349 OA
BRANCH  33  34
HETATM   34  C26 UNK     1      35.112  -7.444  33.398  1.00  0.00     0.068 A 
HETATM   35  C28 UNK     1      35.565  -7.304  32.090  1.00  0.00     0.037 A 
HETATM   36  C30 UNK     1      35.572  -8.411  31.240  1.00  0.00     0.003 A 
HETATM   37  C31 UNK     1      35.127  -9.649  31.703  1.00  0.00     0.000 A 
HETATM   38  C29 UNK     1      34.674  -9.781  33.016  1.00  0.00     0.003 A 
HETATM   39  C27 UNK     1      34.666  -8.675  33.866  1.00  0.00     0.037 A 
ENDBRANCH  33  34
ENDBRANCH  32  33
ENDBRANCH  31  32
ENDBRANCH  30  31
ENDBRANCH  28  30
ENDBRANCH  12  28
TORSDOF 7
ENDMDL
MODEL 8
REMARK VINA RESULT:      -8.0      2.522      7.514
REMARK  7 active torsions:
REMARK  status: ('A' for Active; 'I' for Inactive)
REMARK    1  A    between atoms: C14_21  and  O3_3 
REMARK    2  A    between atoms: C21_28  and  O3_3 
REMARK    3  A    between atoms: C24_31  and  O6_6 
REMARK    4  A    between atoms: C26_33  and  O6_6 
REMARK    5  A    between atoms: C12_19  and  C6_13 
REMARK    6  A    between atoms: C10_17  and  C14_21 
REMARK    7  A    between atoms: C21_28  and  C24_31 
ROOT
HETATM    1  O1  UNK     1      27.647  -8.635  35.280  1.00  0.00    -0.293 OA
HETATM    2  N1  UNK     1      31.802  -8.816  37.544  1.00  0.00    -0.362 N 
HETATM    3  C1  UNK     1      28.278  -9.326  38.783  1.00  0.00    -0.036 C 
HETATM    4  C2  UNK     1      29.787  -9.631  38.689  1.00  0.00     0.067 C 
HETATM    5  C3  UNK     1      27.611  -9.653  37.440  1.00  0.00     0.092 C 
HETATM    6  C4  UNK     1      30.445  -9.067  37.455  1.00  0.00     0.021 C 
HETATM    7  C5  UNK     1      29.774  -8.772  36.323  1.00  0.00     0.024 C 
HETATM    8  C6  UNK     1      30.494  -8.207  35.100  1.00  0.00     0.104 C 
HETATM    9  C7  UNK     1      28.293  -8.974  36.271  1.00  0.00     0.159 C 
HETATM   10  C8  UNK     1      28.043  -7.847  39.156  1.00  0.00     0.015 C 
HETATM   11  C9  UNK     1      27.654 -10.200  39.886  1.00  0.00     0.015 C 
HETATM   12  C10 UNK     1      31.937  -7.799  35.412  1.00  0.00     0.052 C 
HETATM   13  C11 UNK     1      32.531  -8.141  36.577  1.00  0.00     0.018 C 
HETATM   14  C13 UNK     1      33.957  -7.843  36.952  1.00  0.00     0.069 C 
HETATM   15  H12 UNK     1      32.272  -9.052  38.411  1.00  0.00     0.165 HD
ENDROOT
BRANCH   8  16
HETATM   16  C12 UNK     1      30.468  -9.200  33.964  1.00  0.00     0.029 A 
HETATM   17  C15 UNK     1      29.949  -8.757  32.645  1.00  0.00     0.194 A 
HETATM   18  C17 UNK     1      29.945  -9.767  31.571  1.00  0.00     0.049 A 
HETATM   19  O5  UNK     1      29.542  -7.618  32.455  1.00  0.00    -0.287 OA
HETATM   20  C18 UNK     1      30.418 -11.050  31.846  1.00  0.00     0.089 A 
HETATM   21  C19 UNK     1      29.475  -9.448  30.295  1.00  0.00     0.025 A 
HETATM   22  C20 UNK     1      30.425 -12.022  30.844  1.00  0.00     0.039 A 
HETATM   23  O2  UNK     1      30.892 -11.418  33.080  1.00  0.00    -0.321 OA
HETATM   24  C23 UNK     1      29.956 -11.706  29.569  1.00  0.00     0.009 A 
HETATM   25  C22 UNK     1      29.482 -10.422  29.295  1.00  0.00    -0.061 A 
HETATM   26  C25 UNK     1      28.983 -10.090  27.929  1.00  0.00     0.048 C 
HETATM   27  C16 UNK     1      30.888 -10.467  34.071  1.00  0.00     0.154 A 
ENDBRANCH   8  16
BRANCH  12  28
HETATM   28  C14 UNK     1      32.622  -6.970  34.407  1.00  0.00     0.292 C 
HETATM   29  O4  UNK     1      33.492  -7.394  33.670  1.00  0.00    -0.259 OA
BRANCH  28  30
HETATM   30  O3  UNK     1      32.113  -5.716  34.469  1.00  0.00    -0.316 OA
BRANCH  30  31
HETATM   31  C21 UNK     1      33.064  -4.664  34.276  1.00  0.00     0.205 C 
BRANCH  31  32
HETATM   32  C24 UNK     1      33.664  -4.286  35.617  1.00  0.00     0.202 C 
BRANCH  32  33
HETATM   33  O6  UNK     1      32.778  -3.398  36.287  1.00  0.00    -0.349 OA
BRANCH  33  34
HETATM   34  C26 UNK     1      31.883  -3.961  37.158  1.00  0.00     0.068 A 
HETATM   35  C28 UNK     1      30.571  -3.501  37.189  1.00  0.00     0.037 A 
HETATM   36  C30 UNK     1      29.659  -4.074  38.076  1.00  0.00     0.003 A 
HETATM   37  C31 UNK     1      30.065  -5.103  38.925  1.00  0.00     0.000 A 
HETATM   38  C29 UNK     1      31.383  -5.559  38.888  1.00  0.00     0.003 A 
HETATM   39  C27 UNK     1      32.295  -4.986  38.002  1.00  0.00     0.037 A 
ENDBRANCH  33  34
ENDBRANCH  32  33
ENDBRANCH  31  32
ENDBRANCH  30  31
ENDBRANCH  28  30
ENDBRANCH  12  28
TORSDOF 7
ENDMDL
MODEL 9
REMARK VINA RESULT:      -8.0      1.995      6.092
REMARK  7 active torsions:
REMARK  status: ('A' for Active; 'I' for Inactive)
REMARK    1  A    between atoms: C14_21  and  O3_3 
REMARK    2  A    between atoms: C21_28  and  O3_3 
REMARK    3  A    between atoms: C24_31  and  O6_6 
REMARK    4  A    between atoms: C26_33  and  O6_6 
REMARK    5  A    between atoms: C12_19  and  C6_13 
REMARK    6  A    between atoms: C10_17  and  C14_21 
REMARK    7  A    between atoms: C21_28  and  C24_31 
ROOT
HETATM    1  O1  UNK     1      27.561  -9.905  35.553  1.00  0.00    -0.293 OA
HETATM    2  N1  UNK     1      30.528  -6.512  37.005  1.00  0.00    -0.362 N 
HETATM    3  C1  UNK     1      27.757  -8.322  38.810  1.00  0.00    -0.036 C 
HETATM    4  C2  UNK     1      29.154  -7.683  38.670  1.00  0.00     0.067 C 
HETATM    5  C3  UNK     1      27.679  -9.566  37.915  1.00  0.00     0.092 C 
HETATM    6  C4  UNK     1      29.606  -7.514  37.241  1.00  0.00     0.021 C 
HETATM    7  C5  UNK     1      29.128  -8.253  36.219  1.00  0.00     0.024 C 
HETATM    8  C6  UNK     1      29.627  -8.042  34.790  1.00  0.00     0.104 C 
HETATM    9  C7  UNK     1      28.071  -9.278  36.480  1.00  0.00     0.159 C 
HETATM   10  C8  UNK     1      26.655  -7.312  38.427  1.00  0.00     0.015 C 
HETATM   11  C9  UNK     1      27.535  -8.736  40.276  1.00  0.00     0.015 C 
HETATM   12  C10 UNK     1      30.485  -6.781  34.654  1.00  0.00     0.052 C 
HETATM   13  C11 UNK     1      30.921  -6.103  35.740  1.00  0.00     0.018 C 
HETATM   14  C13 UNK     1      31.815  -4.893  35.714  1.00  0.00     0.069 C 
HETATM   15  H12 UNK     1      30.864  -5.980  37.799  1.00  0.00     0.165 HD
ENDROOT
BRANCH   8  16
HETATM   16  C12 UNK     1      30.397  -9.249  34.314  1.00  0.00     0.029 A 
HETATM   17  C15 UNK     1      29.837 -10.054  33.199  1.00  0.00     0.194 A 
HETATM   18  C17 UNK     1      30.630 -11.223  32.774  1.00  0.00     0.049 A 
HETATM   19  O5  UNK     1      28.776  -9.769  32.659  1.00  0.00    -0.287 OA
HETATM   20  C18 UNK     1      31.831 -11.500  33.427  1.00  0.00     0.089 A 
HETATM   21  C19 UNK     1      30.188 -12.043  31.733  1.00  0.00     0.025 A 
HETATM   22  C20 UNK     1      32.598 -12.601  33.041  1.00  0.00     0.039 A 
HETATM   23  O2  UNK     1      32.313 -10.729  34.454  1.00  0.00    -0.321 OA
HETATM   24  C23 UNK     1      32.159 -13.421  32.002  1.00  0.00     0.009 A 
HETATM   25  C22 UNK     1      30.957 -13.143  31.350  1.00  0.00    -0.061 A 
HETATM   26  C25 UNK     1      30.493 -14.024  30.238  1.00  0.00     0.048 C 
HETATM   27  C16 UNK     1      31.564  -9.644  34.839  1.00  0.00     0.154 A 
ENDBRANCH   8  16
BRANCH  12  28
HETATM   28  C14 UNK     1      30.761  -6.314  33.285  1.00  0.00     0.292 C 
HETATM   29  O4  UNK     1      31.803  -6.540  32.699  1.00  0.00    -0.259 OA
BRANCH  28  30
HETATM   30  O3  UNK     1      29.682  -5.624  32.843  1.00  0.00    -0.316 OA
BRANCH  30  31
HETATM   31  C21 UNK     1      29.834  -5.019  31.556  1.00  0.00     0.205 C 
BRANCH  31  32
HETATM   32  C24 UNK     1      29.106  -5.861  30.524  1.00  0.00     0.202 C 
BRANCH  32  33
HETATM   33  O6  UNK     1      30.055  -6.641  29.809  1.00  0.00    -0.349 OA
BRANCH  33  34
HETATM   34  C26 UNK     1      29.621  -7.846  29.322  1.00  0.00     0.068 A 
HETATM   35  C28 UNK     1      28.343  -8.294  29.635  1.00  0.00     0.037 A 
HETATM   36  C30 UNK     1      27.900  -9.520  29.139  1.00  0.00     0.003 A 
HETATM   37  C31 UNK     1      28.739 -10.289  28.331  1.00  0.00     0.000 A 
HETATM   38  C29 UNK     1      30.020  -9.833  28.021  1.00  0.00     0.003 A 
HETATM   39  C27 UNK     1      30.463  -8.607  28.519  1.00  0.00     0.037 A 
ENDBRANCH  33  34
ENDBRANCH  32  33
ENDBRANCH  31  32
ENDBRANCH  30  31
ENDBRANCH  28  30
ENDBRANCH  12  28
TORSDOF 7
ENDMDL
MODEL 10
REMARK VINA RESULT:      -8.0      2.903      5.944
REMARK  7 active torsions:
REMARK  status: ('A' for Active; 'I' for Inactive)
REMARK    1  A    between atoms: C14_21  and  O3_3 
REMARK    2  A    between atoms: C21_28  and  O3_3 
REMARK    3  A    between atoms: C24_31  and  O6_6 
REMARK    4  A    between atoms: C26_33  and  O6_6 
REMARK    5  A    between atoms: C12_19  and  C6_13 
REMARK    6  A    between atoms: C10_17  and  C14_21 
REMARK    7  A    between atoms: C21_28  and  C24_31 
ROOT
HETATM    1  O1  UNK     1      35.153  -7.328  33.108  1.00  0.00    -0.293 OA
HETATM    2  N1  UNK     1      33.953 -11.906  32.962  1.00  0.00    -0.362 N 
HETATM    3  C1  UNK     1      37.271 -10.194  32.439  1.00  0.00    -0.036 C 
HETATM    4  C2  UNK     1      36.334 -11.300  32.966  1.00  0.00     0.067 C 
HETATM    5  C3  UNK     1      36.966  -8.881  33.173  1.00  0.00     0.092 C 
HETATM    6  C4  UNK     1      34.885 -10.887  33.034  1.00  0.00     0.021 C 
HETATM    7  C5  UNK     1      34.481  -9.603  33.119  1.00  0.00     0.024 C 
HETATM    8  C6  UNK     1      32.997  -9.244  33.191  1.00  0.00     0.104 C 
HETATM    9  C7  UNK     1      35.499  -8.508  33.115  1.00  0.00     0.159 C 
HETATM   10  C8  UNK     1      37.099 -10.013  30.916  1.00  0.00     0.015 C 
HETATM   11  C9  UNK     1      38.731 -10.599  32.709  1.00  0.00     0.015 C 
HETATM   12  C10 UNK     1      32.093 -10.445  32.902  1.00  0.00     0.052 C 
HETATM   13  C11 UNK     1      32.588 -11.702  32.835  1.00  0.00     0.018 C 
HETATM   14  C13 UNK     1      31.778 -12.950  32.616  1.00  0.00     0.069 C 
HETATM   15  H12 UNK     1      34.296 -12.858  32.900  1.00  0.00     0.165 HD
ENDROOT
BRANCH   8  16
HETATM   16  C12 UNK     1      32.661  -8.652  34.538  1.00  0.00     0.029 A 
HETATM   17  C15 UNK     1      32.095  -7.280  34.589  1.00  0.00     0.194 A 
HETATM   18  C17 UNK     1      31.784  -6.750  35.931  1.00  0.00     0.049 A 
HETATM   19  O5  UNK     1      31.897  -6.619  33.578  1.00  0.00    -0.287 OA
HETATM   20  C18 UNK     1      32.033  -7.548  37.048  1.00  0.00     0.089 A 
HETATM   21  C19 UNK     1      31.250  -5.469  36.084  1.00  0.00     0.025 A 
HETATM   22  C20 UNK     1      31.746  -7.067  38.326  1.00  0.00     0.039 A 
HETATM   23  O2  UNK     1      32.556  -8.813  36.955  1.00  0.00    -0.321 OA
HETATM   24  C23 UNK     1      31.212  -5.789  38.482  1.00  0.00     0.009 A 
HETATM   25  C22 UNK     1      30.965  -4.991  37.364  1.00  0.00    -0.061 A 
HETATM   26  C25 UNK     1      30.392  -3.624  37.538  1.00  0.00     0.048 C 
HETATM   27  C16 UNK     1      32.841  -9.292  35.700  1.00  0.00     0.154 A 
ENDBRANCH   8  16
BRANCH  12  28
HETATM   28  C14 UNK     1      30.673 -10.156  32.642  1.00  0.00     0.292 C 
HETATM   29  O4  UNK     1      30.260  -9.736  31.578  1.00  0.00    -0.259 OA
BRANCH  28  30
HETATM   30  O3  UNK     1      29.968 -10.438  33.764  1.00  0.00    -0.316 OA
BRANCH  30  31
HETATM   31  C21 UNK     1      28.637  -9.912  33.793  1.00  0.00     0.205 C 
BRANCH  31  32
HETATM   32  C24 UNK     1      28.594  -8.725  34.735  1.00  0.00     0.202 C 
BRANCH  32  33
HETATM   33  O6  UNK     1      28.978  -9.151  36.036  1.00  0.00    -0.349 OA
BRANCH  33  34
HETATM   34  C26 UNK     1      28.520  -8.404  37.090  1.00  0.00     0.068 A 
HETATM   35  C28 UNK     1      28.545  -8.939  38.373  1.00  0.00     0.037 A 
HETATM   36  C30 UNK     1      28.079  -8.179  39.446  1.00  0.00     0.003 A 
HETATM   37  C31 UNK     1      27.592  -6.890  39.229  1.00  0.00     0.000 A 
HETATM   38  C29 UNK     1      27.570  -6.361  37.939  1.00  0.00     0.003 A 
HETATM   39  C27 UNK     1      28.035  -7.121  36.865  1.00  0.00     0.037 A 
ENDBRANCH  33  34
ENDBRANCH  32  33
ENDBRANCH  31  32
ENDBRANCH  30  31
ENDBRANCH  28  30
ENDBRANCH  12  28
TORSDOF 7
ENDMDL
