MODEL 1
REMARK VINA RESULT:      -9.4      0.000      0.000
REMARK  2 active torsions:
REMARK  status: ('A' for Active; 'I' for Inactive)
REMARK       I    between atoms: C5_11  and  N1_6 
REMARK    1  A    between atoms: C7_13  and  N1_6 
REMARK    2  A    between atoms: C2_8  and  C5_11 
ROOT
HETATM    1  O2  UNK     1      17.606   3.338  32.875  1.00  0.00    -0.267 OA
HETATM    2  N1  UNK     1      18.757   4.823  31.457  1.00  0.00    -0.320 N 
HETATM    3  C5  UNK     1      18.291   3.586  31.884  1.00  0.00     0.262 C 
HETATM    4  H4  UNK     1      19.300   4.866  30.598  1.00  0.00     0.169 HD
ENDROOT
BRANCH   3   5
HETATM    5  C2  UNK     1      18.706   2.499  30.993  1.00  0.00     0.108 A 
HETATM    6  C8  UNK     1      18.675   2.624  29.509  1.00  0.00     0.304 A 
HETATM    7  O1  UNK     1      19.093   1.518  28.773  1.00  0.00    -0.274 OA
HETATM    8  O3  UNK     1      18.301   3.654  28.957  1.00  0.00    -0.259 OA
HETATM    9  C3  UNK     1      19.527   0.330  29.387  1.00  0.00     0.089 A 
HETATM   10  C1  UNK     1      19.552   0.225  30.772  1.00  0.00    -0.001 A 
HETATM   11  C9  UNK     1      19.927  -0.721  28.564  1.00  0.00     0.038 A 
HETATM   12  C4  UNK     1      19.122   1.361  31.569  1.00  0.00     0.037 A 
HETATM   13  C6  UNK     1      19.989  -0.970  31.350  1.00  0.00     0.014 A 
HETATM   14  C10 UNK     1      20.392  -2.034  30.537  1.00  0.00     0.001 A 
HETATM   15  C11 UNK     1      20.360  -1.909  29.147  1.00  0.00     0.003 A 
ENDBRANCH   3   5
BRANCH   2  16
HETATM   16  C7  UNK     1      18.551   6.084  32.067  1.00  0.00     0.074 A 
HETATM   17  C12 UNK     1      19.526   6.603  32.901  1.00  0.00     0.144 A 
HETATM   18  C14 UNK     1      19.319   7.846  33.500  1.00  0.00     0.068 A 
HETATM   19  F1  UNK     1      20.662   5.934  33.144  1.00  0.00    -0.204 F 
HETATM   20  C16 UNK     1      18.141   8.551  33.256  1.00  0.00     0.037 A 
HETATM   21  C15 UNK     1      17.169   8.014  32.412  1.00  0.00     0.026 A 
HETATM   22 Cl1  UNK     1      17.886  10.084  33.994  1.00  0.00    -0.084 Cl
HETATM   23  C13 UNK     1      17.375   6.770  31.813  1.00  0.00     0.034 A 
ENDBRANCH   2  16
TORSDOF 2
ENDMDL
MODEL 2
REMARK VINA RESULT:      -9.4      8.878     11.859
REMARK  2 active torsions:
REMARK  status: ('A' for Active; 'I' for Inactive)
REMARK       I    between atoms: C5_11  and  N1_6 
REMARK    1  A    between atoms: C7_13  and  N1_6 
REMARK    2  A    between atoms: C2_8  and  C5_11 
ROOT
HETATM    1  O2  UNK     1      21.301  -4.437  36.978  1.00  0.00    -0.267 OA
HETATM    2  N1  UNK     1      19.063  -5.143  36.789  1.00  0.00    -0.320 N 
HETATM    3  C5  UNK     1      20.114  -4.237  36.724  1.00  0.00     0.262 C 
HETATM    4  H4  UNK     1      18.133  -4.825  36.525  1.00  0.00     0.169 HD
ENDROOT
BRANCH   3   5
HETATM    5  C2  UNK     1      19.675  -2.908  36.291  1.00  0.00     0.108 A 
HETATM    6  C8  UNK     1      19.995  -2.359  34.944  1.00  0.00     0.304 A 
HETATM    7  O1  UNK     1      19.522  -1.080  34.654  1.00  0.00    -0.274 OA
HETATM    8  O3  UNK     1      20.644  -3.000  34.125  1.00  0.00    -0.259 OA
HETATM    9  C3  UNK     1      18.776  -0.330  35.580  1.00  0.00     0.089 A 
HETATM   10  C1  UNK     1      18.483  -0.853  36.833  1.00  0.00    -0.001 A 
HETATM   11  C9  UNK     1      18.346   0.938  35.195  1.00  0.00     0.038 A 
HETATM   12  C4  UNK     1      18.963  -2.183  37.167  1.00  0.00     0.037 A 
HETATM   13  C6  UNK     1      17.739  -0.081  37.729  1.00  0.00     0.014 A 
HETATM   14  C10 UNK     1      17.302   1.194  37.358  1.00  0.00     0.001 A 
HETATM   15  C11 UNK     1      17.606   1.703  36.094  1.00  0.00     0.003 A 
ENDBRANCH   3   5
BRANCH   2  16
HETATM   16  C7  UNK     1      19.117  -6.506  37.165  1.00  0.00     0.074 A 
HETATM   17  C12 UNK     1      18.751  -7.479  36.251  1.00  0.00     0.144 A 
HETATM   18  C14 UNK     1      18.806  -8.822  36.624  1.00  0.00     0.068 A 
HETATM   19  F1  UNK     1      18.344  -7.154  35.015  1.00  0.00    -0.204 F 
HETATM   20  C16 UNK     1      19.227  -9.172  37.907  1.00  0.00     0.037 A 
HETATM   21  C15 UNK     1      19.593  -8.180  38.816  1.00  0.00     0.026 A 
HETATM   22 Cl1  UNK     1      19.295 -10.828  38.368  1.00  0.00    -0.084 Cl
HETATM   23  C13 UNK     1      19.538  -6.837  38.442  1.00  0.00     0.034 A 
ENDBRANCH   2  16
TORSDOF 2
ENDMDL
MODEL 3
REMARK VINA RESULT:      -9.0      8.582     10.355
REMARK  2 active torsions:
REMARK  status: ('A' for Active; 'I' for Inactive)
REMARK       I    between atoms: C5_11  and  N1_6 
REMARK    1  A    between atoms: C7_13  and  N1_6 
REMARK    2  A    between atoms: C2_8  and  C5_11 
ROOT
HETATM    1  O2  UNK     1      21.279  -3.780  37.186  1.00  0.00    -0.267 OA
HETATM    2  N1  UNK     1      18.988  -3.705  36.652  1.00  0.00    -0.320 N 
HETATM    3  C5  UNK     1      20.204  -4.318  36.926  1.00  0.00     0.262 C 
HETATM    4  H4  UNK     1      18.178  -4.294  36.474  1.00  0.00     0.169 HD
ENDROOT
BRANCH   3   5
HETATM    5  C2  UNK     1      20.111  -5.779  36.884  1.00  0.00     0.108 A 
HETATM    6  C8  UNK     1      20.140  -6.547  35.608  1.00  0.00     0.304 A 
HETATM    7  O1  UNK     1      20.041  -7.934  35.702  1.00  0.00    -0.274 OA
HETATM    8  O3  UNK     1      20.247  -5.987  34.522  1.00  0.00    -0.259 OA
HETATM    9  C3  UNK     1      19.919  -8.594  36.937  1.00  0.00     0.089 A 
HETATM   10  C1  UNK     1      19.893  -7.868  38.121  1.00  0.00    -0.001 A 
HETATM   11  C9  UNK     1      19.828  -9.984  36.927  1.00  0.00     0.038 A 
HETATM   12  C4  UNK     1      19.994  -6.420  38.057  1.00  0.00     0.037 A 
HETATM   13  C6  UNK     1      19.772  -8.555  39.331  1.00  0.00     0.014 A 
HETATM   14  C10 UNK     1      19.679  -9.950  39.337  1.00  0.00     0.001 A 
HETATM   15  C11 UNK     1      19.706 -10.663  38.137  1.00  0.00     0.003 A 
ENDBRANCH   3   5
BRANCH   2  16
HETATM   16  C7  UNK     1      18.708  -2.318  36.606  1.00  0.00     0.074 A 
HETATM   17  C12 UNK     1      19.071  -1.587  35.488  1.00  0.00     0.144 A 
HETATM   18  C14 UNK     1      18.793  -0.221  35.447  1.00  0.00     0.068 A 
HETATM   19  F1  UNK     1      19.686  -2.168  34.447  1.00  0.00    -0.204 F 
HETATM   20  C16 UNK     1      18.155   0.394  36.524  1.00  0.00     0.037 A 
HETATM   21  C15 UNK     1      17.795  -0.357  37.642  1.00  0.00     0.026 A 
HETATM   22 Cl1  UNK     1      17.811   2.079  36.472  1.00  0.00    -0.084 Cl
HETATM   23  C13 UNK     1      18.073  -1.724  37.684  1.00  0.00     0.034 A 
ENDBRANCH   2  16
TORSDOF 2
ENDMDL
MODEL 4
REMARK VINA RESULT:      -8.9      1.392      2.215
REMARK  2 active torsions:
REMARK  status: ('A' for Active; 'I' for Inactive)
REMARK       I    between atoms: C5_11  and  N1_6 
REMARK    1  A    between atoms: C7_13  and  N1_6 
REMARK    2  A    between atoms: C2_8  and  C5_11 
ROOT
HETATM    1  O2  UNK     1      18.514   4.635  30.356  1.00  0.00    -0.267 OA
HETATM    2  N1  UNK     1      17.859   4.550  32.615  1.00  0.00    -0.320 N 
HETATM    3  C5  UNK     1      18.336   4.037  31.416  1.00  0.00     0.262 C 
HETATM    4  H4  UNK     1      17.788   3.926  33.415  1.00  0.00     0.169 HD
ENDROOT
BRANCH   3   5
HETATM    5  C2  UNK     1      18.643   2.607  31.507  1.00  0.00     0.108 A 
HETATM    6  C8  UNK     1      18.355   1.803  32.727  1.00  0.00     0.304 A 
HETATM    7  O1  UNK     1      18.696   0.452  32.689  1.00  0.00    -0.274 OA
HETATM    8  O3  UNK     1      17.839   2.303  33.721  1.00  0.00    -0.259 OA
HETATM    9  C3  UNK     1      19.287  -0.139  31.558  1.00  0.00     0.089 A 
HETATM   10  C1  UNK     1      19.551   0.621  30.426  1.00  0.00    -0.001 A 
HETATM   11  C9  UNK     1      19.590  -1.498  31.617  1.00  0.00     0.038 A 
HETATM   12  C4  UNK     1      19.207   2.033  30.434  1.00  0.00     0.037 A 
HETATM   13  C6  UNK     1      20.137   0.002  29.319  1.00  0.00     0.014 A 
HETATM   14  C10 UNK     1      20.448  -1.361  29.363  1.00  0.00     0.001 A 
HETATM   15  C11 UNK     1      20.176  -2.108  30.511  1.00  0.00     0.003 A 
ENDBRANCH   3   5
BRANCH   2  16
HETATM   16  C7  UNK     1      17.466   5.882  32.893  1.00  0.00     0.074 A 
HETATM   17  C12 UNK     1      18.261   6.669  33.709  1.00  0.00     0.144 A 
HETATM   18  C14 UNK     1      17.871   7.981  33.979  1.00  0.00     0.068 A 
HETATM   19  F1  UNK     1      19.395   6.194  34.244  1.00  0.00    -0.204 F 
HETATM   20  C16 UNK     1      16.692   8.486  33.429  1.00  0.00     0.037 A 
HETATM   21  C15 UNK     1      15.904   7.680  32.609  1.00  0.00     0.026 A 
HETATM   22 Cl1  UNK     1      16.212  10.104  33.762  1.00  0.00    -0.084 Cl
HETATM   23  C13 UNK     1      16.294   6.367  32.338  1.00  0.00     0.034 A 
ENDBRANCH   2  16
TORSDOF 2
ENDMDL
MODEL 5
REMARK VINA RESULT:      -8.8     13.947     16.291
REMARK  2 active torsions:
REMARK  status: ('A' for Active; 'I' for Inactive)
REMARK       I    between atoms: C5_11  and  N1_6 
REMARK    1  A    between atoms: C7_13  and  N1_6 
REMARK    2  A    between atoms: C2_8  and  C5_11 
ROOT
HETATM    1  O2  UNK     1      17.144  -1.801  17.066  1.00  0.00    -0.267 OA
HETATM    2  N1  UNK     1      19.206  -0.673  16.941  1.00  0.00    -0.320 N 
HETATM    3  C5  UNK     1      18.208  -1.535  16.508  1.00  0.00     0.262 C 
HETATM    4  H4  UNK     1      20.025  -0.544  16.350  1.00  0.00     0.169 HD
ENDROOT
BRANCH   3   5
HETATM    5  C2  UNK     1      18.534  -2.163  15.225  1.00  0.00     0.108 A 
HETATM    6  C8  UNK     1      19.139  -1.406  14.094  1.00  0.00     0.304 A 
HETATM    7  O1  UNK     1      19.400  -2.117  12.925  1.00  0.00    -0.274 OA
HETATM    8  O3  UNK     1      19.398  -0.211  14.185  1.00  0.00    -0.259 OA
HETATM    9  C3  UNK     1      19.112  -3.488  12.802  1.00  0.00     0.089 A 
HETATM   10  C1  UNK     1      18.548  -4.184  13.863  1.00  0.00    -0.001 A 
HETATM   11  C9  UNK     1      19.411  -4.111  11.592  1.00  0.00     0.038 A 
HETATM   12  C4  UNK     1      18.263  -3.471  15.097  1.00  0.00     0.037 A 
HETATM   13  C6  UNK     1      18.275  -5.545  13.708  1.00  0.00     0.014 A 
HETATM   14  C10 UNK     1      18.569  -6.184  12.499  1.00  0.00     0.001 A 
HETATM   15  C11 UNK     1      19.135  -5.468  11.444  1.00  0.00     0.003 A 
ENDBRANCH   3   5
BRANCH   2  16
HETATM   16  C7  UNK     1      19.229   0.099  18.127  1.00  0.00     0.074 A 
HETATM   17  C12 UNK     1      19.088   1.474  18.047  1.00  0.00     0.144 A 
HETATM   18  C14 UNK     1      19.110   2.232  19.218  1.00  0.00     0.068 A 
HETATM   19  F1  UNK     1      18.931   2.089  16.865  1.00  0.00    -0.204 F 
HETATM   20  C16 UNK     1      19.275   1.603  20.452  1.00  0.00     0.037 A 
HETATM   21  C15 UNK     1      19.415   0.217  20.515  1.00  0.00     0.026 A 
HETATM   22 Cl1  UNK     1      19.302   2.538  21.896  1.00  0.00    -0.084 Cl
HETATM   23  C13 UNK     1      19.392  -0.541  19.344  1.00  0.00     0.034 A 
ENDBRANCH   2  16
TORSDOF 2
ENDMDL
MODEL 6
REMARK VINA RESULT:      -8.8      1.534      2.493
REMARK  2 active torsions:
REMARK  status: ('A' for Active; 'I' for Inactive)
REMARK       I    between atoms: C5_11  and  N1_6 
REMARK    1  A    between atoms: C7_13  and  N1_6 
REMARK    2  A    between atoms: C2_8  and  C5_11 
ROOT
HETATM    1  O2  UNK     1      18.309   4.640  30.353  1.00  0.00    -0.267 OA
HETATM    2  N1  UNK     1      18.513   4.710  32.697  1.00  0.00    -0.320 N 
HETATM    3  C5  UNK     1      18.496   4.107  31.446  1.00  0.00     0.262 C 
HETATM    4  H4  UNK     1      18.704   4.131  33.512  1.00  0.00     0.169 HD
ENDROOT
BRANCH   3   5
HETATM    5  C2  UNK     1      18.739   2.664  31.522  1.00  0.00     0.108 A 
HETATM    6  C8  UNK     1      18.371   1.852  32.715  1.00  0.00     0.304 A 
HETATM    7  O1  UNK     1      18.657   0.489  32.665  1.00  0.00    -0.274 OA
HETATM    8  O3  UNK     1      17.840   2.356  33.699  1.00  0.00    -0.259 OA
HETATM    9  C3  UNK     1      19.264  -0.108  31.546  1.00  0.00     0.089 A 
HETATM   10  C1  UNK     1      19.602   0.659  30.439  1.00  0.00    -0.001 A 
HETATM   11  C9  UNK     1      19.508  -1.479  31.591  1.00  0.00     0.038 A 
HETATM   12  C4  UNK     1      19.318   2.084  30.460  1.00  0.00     0.037 A 
HETATM   13  C6  UNK     1      20.204   0.034  29.344  1.00  0.00     0.014 A 
HETATM   14  C10 UNK     1      20.456  -1.341  29.374  1.00  0.00     0.001 A 
HETATM   15  C11 UNK     1      20.109  -2.095  30.496  1.00  0.00     0.003 A 
ENDBRANCH   3   5
BRANCH   2  16
HETATM   16  C7  UNK     1      18.318   6.079  33.002  1.00  0.00     0.074 A 
HETATM   17  C12 UNK     1      17.087   6.662  32.754  1.00  0.00     0.144 A 
HETATM   18  C14 UNK     1      16.899   8.010  33.056  1.00  0.00     0.068 A 
HETATM   19  F1  UNK     1      16.076   5.955  32.229  1.00  0.00    -0.204 F 
HETATM   20  C16 UNK     1      17.944   8.756  33.601  1.00  0.00     0.037 A 
HETATM   21  C15 UNK     1      19.177   8.153  33.845  1.00  0.00     0.026 A 
HETATM   22 Cl1  UNK     1      17.711  10.419  33.974  1.00  0.00    -0.084 Cl
HETATM   23  C13 UNK     1      19.366   6.804  33.543  1.00  0.00     0.034 A 
ENDBRANCH   2  16
TORSDOF 2
ENDMDL
MODEL 7
REMARK VINA RESULT:      -8.5      8.392     10.286
REMARK  2 active torsions:
REMARK  status: ('A' for Active; 'I' for Inactive)
REMARK       I    between atoms: C5_11  and  N1_6 
REMARK    1  A    between atoms: C7_13  and  N1_6 
REMARK    2  A    between atoms: C2_8  and  C5_11 
ROOT
HETATM    1  O2  UNK     1      21.105  -3.960  36.986  1.00  0.00    -0.267 OA
HETATM    2  N1  UNK     1      18.785  -3.763  36.639  1.00  0.00    -0.320 N 
HETATM    3  C5  UNK     1      19.983  -4.439  36.831  1.00  0.00     0.262 C 
HETATM    4  H4  UNK     1      17.931  -4.307  36.546  1.00  0.00     0.169 HD
ENDROOT
BRANCH   3   5
HETATM    5  C2  UNK     1      19.804  -5.893  36.838  1.00  0.00     0.108 A 
HETATM    6  C8  UNK     1      18.461  -6.534  36.900  1.00  0.00     0.304 A 
HETATM    7  O1  UNK     1      18.424  -7.927  36.904  1.00  0.00    -0.274 OA
HETATM    8  O3  UNK     1      17.431  -5.869  36.944  1.00  0.00    -0.259 OA
HETATM    9  C3  UNK     1      19.593  -8.707  36.852  1.00  0.00     0.089 A 
HETATM   10  C1  UNK     1      20.840  -8.099  36.795  1.00  0.00    -0.001 A 
HETATM   11  C9  UNK     1      19.452 -10.093  36.859  1.00  0.00     0.038 A 
HETATM   12  C4  UNK     1      20.912  -6.647  36.790  1.00  0.00     0.037 A 
HETATM   13  C6  UNK     1      21.981  -8.903  36.744  1.00  0.00     0.014 A 
HETATM   14  C10 UNK     1      21.857 -10.296  36.751  1.00  0.00     0.001 A 
HETATM   15  C11 UNK     1      20.594 -10.889  36.810  1.00  0.00     0.003 A 
ENDBRANCH   3   5
BRANCH   2  16
HETATM   16  C7  UNK     1      18.582  -2.363  36.577  1.00  0.00     0.074 A 
HETATM   17  C12 UNK     1      19.040  -1.657  35.477  1.00  0.00     0.144 A 
HETATM   18  C14 UNK     1      18.837  -0.279  35.419  1.00  0.00     0.068 A 
HETATM   19  F1  UNK     1      19.675  -2.274  34.470  1.00  0.00    -0.204 F 
HETATM   20  C16 UNK     1      18.179   0.374  36.461  1.00  0.00     0.037 A 
HETATM   21  C15 UNK     1      17.723  -0.351  37.561  1.00  0.00     0.026 A 
HETATM   22 Cl1  UNK     1      17.928   2.075  36.389  1.00  0.00    -0.084 Cl
HETATM   23  C13 UNK     1      17.926  -1.731  37.619  1.00  0.00     0.034 A 
ENDBRANCH   2  16
TORSDOF 2
ENDMDL
MODEL 8
REMARK VINA RESULT:      -8.4      3.576      7.974
REMARK  2 active torsions:
REMARK  status: ('A' for Active; 'I' for Inactive)
REMARK       I    between atoms: C5_11  and  N1_6 
REMARK    1  A    between atoms: C7_13  and  N1_6 
REMARK    2  A    between atoms: C2_8  and  C5_11 
ROOT
HETATM    1  O2  UNK     1      19.793   5.111  31.063  1.00  0.00    -0.267 OA
HETATM    2  N1  UNK     1      18.172   3.505  31.642  1.00  0.00    -0.320 N 
HETATM    3  C5  UNK     1      18.764   4.761  31.641  1.00  0.00     0.262 C 
HETATM    4  H4  UNK     1      17.304   3.379  32.157  1.00  0.00     0.169 HD
ENDROOT
BRANCH   3   5
HETATM    5  C2  UNK     1      18.014   5.729  32.444  1.00  0.00     0.108 A 
HETATM    6  C8  UNK     1      18.542   6.292  33.718  1.00  0.00     0.304 A 
HETATM    7  O1  UNK     1      17.731   7.204  34.391  1.00  0.00    -0.274 OA
HETATM    8  O3  UNK     1      19.642   5.972  34.156  1.00  0.00    -0.259 OA
HETATM    9  C3  UNK     1      16.468   7.584  33.903  1.00  0.00     0.089 A 
HETATM   10  C1  UNK     1      15.986   7.053  32.714  1.00  0.00    -0.001 A 
HETATM   11  C9  UNK     1      15.732   8.503  34.648  1.00  0.00     0.038 A 
HETATM   12  C4  UNK     1      16.808   6.099  31.989  1.00  0.00     0.037 A 
HETATM   13  C6  UNK     1      14.727   7.453  32.258  1.00  0.00     0.014 A 
HETATM   14  C10 UNK     1      13.976   8.374  32.995  1.00  0.00     0.001 A 
HETATM   15  C11 UNK     1      14.478   8.897  34.188  1.00  0.00     0.003 A 
ENDBRANCH   3   5
BRANCH   2  16
HETATM   16  C7  UNK     1      18.618   2.337  30.978  1.00  0.00     0.074 A 
HETATM   17  C12 UNK     1      18.592   2.289  29.594  1.00  0.00     0.144 A 
HETATM   18  C14 UNK     1      19.033   1.136  28.944  1.00  0.00     0.068 A 
HETATM   19  F1  UNK     1      18.151   3.328  28.871  1.00  0.00    -0.204 F 
HETATM   20  C16 UNK     1      19.492   0.049  29.686  1.00  0.00     0.037 A 
HETATM   21  C15 UNK     1      19.512   0.113  31.079  1.00  0.00     0.026 A 
HETATM   22 Cl1  UNK     1      20.036  -1.373  28.883  1.00  0.00    -0.084 Cl
HETATM   23  C13 UNK     1      19.072   1.266  31.730  1.00  0.00     0.034 A 
ENDBRANCH   2  16
TORSDOF 2
ENDMDL
MODEL 9
REMARK VINA RESULT:      -8.4     15.118     18.405
REMARK  2 active torsions:
REMARK  status: ('A' for Active; 'I' for Inactive)
REMARK       I    between atoms: C5_11  and  N1_6 
REMARK    1  A    between atoms: C7_13  and  N1_6 
REMARK    2  A    between atoms: C2_8  and  C5_11 
ROOT
HETATM    1  O2  UNK     1      17.852  -3.280  15.836  1.00  0.00    -0.267 OA
HETATM    2  N1  UNK     1      20.042  -3.094  14.993  1.00  0.00    -0.320 N 
HETATM    3  C5  UNK     1      18.881  -2.645  15.610  1.00  0.00     0.262 C 
HETATM    4  H4  UNK     1      20.821  -2.447  14.897  1.00  0.00     0.169 HD
ENDROOT
BRANCH   3   5
HETATM    5  C2  UNK     1      18.974  -1.239  16.011  1.00  0.00     0.108 A 
HETATM    6  C8  UNK     1      19.225  -0.143  15.034  1.00  0.00     0.304 A 
HETATM    7  O1  UNK     1      19.293   1.153  15.542  1.00  0.00    -0.274 OA
HETATM    8  O3  UNK     1      19.364  -0.367  13.837  1.00  0.00    -0.259 OA
HETATM    9  C3  UNK     1      19.134   1.430  16.912  1.00  0.00     0.089 A 
HETATM   10  C1  UNK     1      18.900   0.400  17.813  1.00  0.00    -0.001 A 
HETATM   11  C9  UNK     1      19.218   2.759  17.321  1.00  0.00     0.038 A 
HETATM   12  C4  UNK     1      18.824  -0.963  17.315  1.00  0.00     0.037 A 
HETATM   13  C6  UNK     1      18.747   0.710  19.167  1.00  0.00     0.014 A 
HETATM   14  C10 UNK     1      18.829   2.039  19.594  1.00  0.00     0.001 A 
HETATM   15  C11 UNK     1      19.065   3.061  18.673  1.00  0.00     0.003 A 
ENDBRANCH   3   5
BRANCH   2  16
HETATM   16  C7  UNK     1      20.306  -4.387  14.481  1.00  0.00     0.074 A 
HETATM   17  C12 UNK     1      20.026  -4.663  13.154  1.00  0.00     0.144 A 
HETATM   18  C14 UNK     1      20.289  -5.938  12.653  1.00  0.00     0.068 A 
HETATM   19  F1  UNK     1      19.507  -3.730  12.344  1.00  0.00    -0.204 F 
HETATM   20  C16 UNK     1      20.828  -6.918  13.487  1.00  0.00     0.037 A 
HETATM   21  C15 UNK     1      21.104  -6.623  14.821  1.00  0.00     0.026 A 
HETATM   22 Cl1  UNK     1      21.152  -8.491  12.868  1.00  0.00    -0.084 Cl
HETATM   23  C13 UNK     1      20.842  -5.347  15.323  1.00  0.00     0.034 A 
ENDBRANCH   2  16
TORSDOF 2
ENDMDL
MODEL 10
REMARK VINA RESULT:      -8.4     14.544     15.936
REMARK  2 active torsions:
REMARK  status: ('A' for Active; 'I' for Inactive)
REMARK       I    between atoms: C5_11  and  N1_6 
REMARK    1  A    between atoms: C7_13  and  N1_6 
REMARK    2  A    between atoms: C2_8  and  C5_11 
ROOT
HETATM    1  O2  UNK     1      26.021  -9.180  39.163  1.00  0.00    -0.267 OA
HETATM    2  N1  UNK     1      24.559  -7.517  38.363  1.00  0.00    -0.320 N 
HETATM    3  C5  UNK     1      25.778  -8.036  38.779  1.00  0.00     0.262 C 
HETATM    4  H4  UNK     1      24.525  -6.549  38.053  1.00  0.00     0.169 HD
ENDROOT
BRANCH   3   5
HETATM    5  C2  UNK     1      26.852  -7.042  38.724  1.00  0.00     0.108 A 
HETATM    6  C8  UNK     1      26.595  -5.578  38.823  1.00  0.00     0.304 A 
HETATM    7  O1  UNK     1      27.702  -4.735  38.755  1.00  0.00    -0.274 OA
HETATM    8  O3  UNK     1      25.461  -5.132  38.960  1.00  0.00    -0.259 OA
HETATM    9  C3  UNK     1      29.010  -5.228  38.600  1.00  0.00     0.089 A 
HETATM   10  C1  UNK     1      29.238  -6.595  38.509  1.00  0.00    -0.001 A 
HETATM   11  C9  UNK     1      30.051  -4.304  38.544  1.00  0.00     0.038 A 
HETATM   12  C4  UNK     1      28.104  -7.501  38.577  1.00  0.00     0.037 A 
HETATM   13  C6  UNK     1      30.550  -7.051  38.357  1.00  0.00     0.014 A 
HETATM   14  C10 UNK     1      31.606  -6.136  38.298  1.00  0.00     0.001 A 
HETATM   15  C11 UNK     1      31.356  -4.766  38.390  1.00  0.00     0.003 A 
ENDBRANCH   3   5
BRANCH   2  16
HETATM   16  C7  UNK     1      23.314  -8.186  38.285  1.00  0.00     0.074 A 
HETATM   17  C12 UNK     1      22.426  -8.096  39.344  1.00  0.00     0.144 A 
HETATM   18  C14 UNK     1      21.200  -8.756  39.264  1.00  0.00     0.068 A 
HETATM   19  F1  UNK     1      22.725  -7.389  40.443  1.00  0.00    -0.204 F 
HETATM   20  C16 UNK     1      20.879  -9.497  38.126  1.00  0.00     0.037 A 
HETATM   21  C15 UNK     1      21.784  -9.576  37.068  1.00  0.00     0.026 A 
HETATM   22 Cl1  UNK     1      19.366 -10.310  38.027  1.00  0.00    -0.084 Cl
HETATM   23  C13 UNK     1      23.011  -8.916  37.148  1.00  0.00     0.034 A 
ENDBRANCH   2  16
TORSDOF 2
ENDMDL
