MODEL 1
REMARK VINA RESULT:      -8.7      0.000      0.000
REMARK  2 active torsions:
REMARK  status: ('A' for Active; 'I' for Inactive)
REMARK    1  A    between atoms: C6_11  and  N1_5 
REMARK    2  A    between atoms: C6_11  and  C9_14 
ROOT
HETATM    1  O3  UNK     1      18.674   1.047  33.392  1.00  0.00    -0.275 OA
HETATM    2  O4  UNK     1      18.115   1.847  35.461  1.00  0.00    -0.260 OA
HETATM    3  C9  UNK     1      18.219   3.647  32.373  1.00  0.00    -0.011 A 
HETATM    4  C10 UNK     1      18.642   2.562  31.476  1.00  0.00     0.012 A 
HETATM    5  C11 UNK     1      18.054   3.384  33.677  1.00  0.00     0.092 A 
HETATM    6  C12 UNK     1      18.856   1.293  32.017  1.00  0.00     0.091 A 
HETATM    7  C13 UNK     1      18.844   2.725  30.099  1.00  0.00    -0.048 A 
HETATM    8  C14 UNK     1      18.276   2.050  34.262  1.00  0.00     0.288 A 
HETATM    9  C15 UNK     1      19.258   0.208  31.236  1.00  0.00     0.045 A 
HETATM   10  C16 UNK     1      19.248   1.647  29.303  1.00  0.00     0.014 A 
HETATM   11  C17 UNK     1      19.455   0.391  29.870  1.00  0.00    -0.059 A 
HETATM   12  C18 UNK     1      18.664   4.011  29.358  1.00  0.00     0.049 C 
HETATM   13  C19 UNK     1      19.885  -0.754  29.017  1.00  0.00     0.048 C 
ENDROOT
BRANCH   3  14
HETATM   14  C6  UNK     1      17.958   5.036  31.902  1.00  0.00     0.312 C 
BRANCH  14  15
HETATM   15  N1  UNK     1      17.404   5.881  32.959  1.00  0.00     0.093 N 
HETATM   16  C4  UNK     1      16.208   6.586  32.479  1.00  0.00     0.278 C 
HETATM   17  C2  UNK     1      15.586   7.435  33.591  1.00  0.00     0.099 C 
HETATM   18  C1  UNK     1      16.595   8.420  34.185  1.00  0.00     0.167 C 
HETATM   19  O1  UNK     1      16.030   9.051  35.344  1.00  0.00    -0.353 OA
HETATM   20  O2  UNK     1      16.909   9.421  33.199  1.00  0.00    -0.353 OA
HETATM   21  C3  UNK     1      17.870   7.679  34.592  1.00  0.00     0.099 C 
HETATM   22  C7  UNK     1      15.734  10.382  34.924  1.00  0.00     0.197 C 
HETATM   23  C8  UNK     1      16.790  10.662  33.892  1.00  0.00     0.197 C 
HETATM   24  C5  UNK     1      18.420   6.825  33.448  1.00  0.00     0.278 C 
ENDBRANCH  14  15
ENDBRANCH   3  14
TORSDOF 2
ENDMDL
MODEL 2
REMARK VINA RESULT:      -8.5     16.589     19.104
REMARK  2 active torsions:
REMARK  status: ('A' for Active; 'I' for Inactive)
REMARK    1  A    between atoms: C6_11  and  N1_5 
REMARK    2  A    between atoms: C6_11  and  C9_14 
ROOT
HETATM    1  O3  UNK     1      28.708  -5.647  39.657  1.00  0.00    -0.275 OA
HETATM    2  O4  UNK     1      29.536  -3.520  39.801  1.00  0.00    -0.260 OA
HETATM    3  C9  UNK     1      29.910  -5.835  37.103  1.00  0.00    -0.011 A 
HETATM    4  C10 UNK     1      29.154  -6.969  37.653  1.00  0.00     0.012 A 
HETATM    5  C11 UNK     1      30.020  -4.715  37.830  1.00  0.00     0.092 A 
HETATM    6  C12 UNK     1      28.576  -6.838  38.916  1.00  0.00     0.091 A 
HETATM    7  C13 UNK     1      28.977  -8.186  36.980  1.00  0.00    -0.048 A 
HETATM    8  C14 UNK     1      29.415  -4.561  39.164  1.00  0.00     0.288 A 
HETATM    9  C15 UNK     1      27.843  -7.866  39.511  1.00  0.00     0.045 A 
HETATM   10  C16 UNK     1      28.245  -9.226  37.564  1.00  0.00     0.014 A 
HETATM   11  C17 UNK     1      27.678  -9.066  38.827  1.00  0.00    -0.059 A 
HETATM   12  C18 UNK     1      29.527  -8.499  35.625  1.00  0.00     0.049 C 
HETATM   13  C19 UNK     1      26.900 -10.178  39.444  1.00  0.00     0.048 C 
ENDROOT
BRANCH   3  14
HETATM   14  C6  UNK     1      30.563  -5.866  35.764  1.00  0.00     0.312 C 
BRANCH  14  15
HETATM   15  N1  UNK     1      32.021  -5.823  35.861  1.00  0.00     0.093 N 
HETATM   16  C4  UNK     1      32.610  -5.412  34.579  1.00  0.00     0.278 C 
HETATM   17  C2  UNK     1      34.134  -5.311  34.680  1.00  0.00     0.099 C 
HETATM   18  C1  UNK     1      34.758  -6.620  35.169  1.00  0.00     0.167 C 
HETATM   19  O1  UNK     1      36.154  -6.420  35.433  1.00  0.00    -0.353 OA
HETATM   20  O2  UNK     1      34.601  -7.623  34.148  1.00  0.00    -0.353 OA
HETATM   21  C3  UNK     1      34.067  -7.080  36.454  1.00  0.00     0.099 C 
HETATM   22  C7  UNK     1      36.825  -7.084  34.363  1.00  0.00     0.197 C 
HETATM   23  C8  UNK     1      35.894  -8.212  34.018  1.00  0.00     0.197 C 
HETATM   24  C5  UNK     1      32.545  -7.126  36.296  1.00  0.00     0.278 C 
ENDBRANCH  14  15
ENDBRANCH   3  14
TORSDOF 2
ENDMDL
MODEL 3
REMARK VINA RESULT:      -8.4      1.781      2.533
REMARK  2 active torsions:
REMARK  status: ('A' for Active; 'I' for Inactive)
REMARK    1  A    between atoms: C6_11  and  N1_5 
REMARK    2  A    between atoms: C6_11  and  C9_14 
ROOT
HETATM    1  O3  UNK     1      18.939  -0.576  33.758  1.00  0.00    -0.275 OA
HETATM    2  O4  UNK     1      18.074   0.299  35.687  1.00  0.00    -0.260 OA
HETATM    3  C9  UNK     1      18.273   1.855  32.474  1.00  0.00    -0.011 A 
HETATM    4  C10 UNK     1      18.917   0.770  31.720  1.00  0.00     0.012 A 
HETATM    5  C11 UNK     1      18.007   1.674  33.775  1.00  0.00     0.092 A 
HETATM    6  C12 UNK     1      19.230  -0.414  32.389  1.00  0.00     0.091 A 
HETATM    7  C13 UNK     1      19.239   0.853  30.359  1.00  0.00    -0.048 A 
HETATM    8  C14 UNK     1      18.331   0.430  34.494  1.00  0.00     0.288 A 
HETATM    9  C15 UNK     1      19.843  -1.492  31.749  1.00  0.00     0.045 A 
HETATM   10  C16 UNK     1      19.854  -0.220  29.703  1.00  0.00     0.014 A 
HETATM   11  C17 UNK     1      20.155  -1.391  30.397  1.00  0.00    -0.059 A 
HETATM   12  C18 UNK     1      18.977   2.043  29.492  1.00  0.00     0.049 C 
HETATM   13  C19 UNK     1      20.810  -2.530  29.692  1.00  0.00     0.048 C 
ENDROOT
BRANCH   3  14
HETATM   14  C6  UNK     1      17.891   3.157  31.859  1.00  0.00     0.312 C 
BRANCH  14  15
HETATM   15  N1  UNK     1      18.725   4.259  32.337  1.00  0.00     0.093 N 
HETATM   16  C4  UNK     1      18.338   4.643  33.701  1.00  0.00     0.278 C 
HETATM   17  C2  UNK     1      19.237   5.760  34.235  1.00  0.00     0.099 C 
HETATM   18  C1  UNK     1      19.242   6.977  33.309  1.00  0.00     0.167 C 
HETATM   19  O1  UNK     1      20.240   7.913  33.743  1.00  0.00    -0.353 OA
HETATM   20  O2  UNK     1      17.946   7.604  33.352  1.00  0.00    -0.353 OA
HETATM   21  C3  UNK     1      19.556   6.542  31.876  1.00  0.00     0.099 C 
HETATM   22  C7  UNK     1      19.503   8.986  34.327  1.00  0.00     0.197 C 
HETATM   23  C8  UNK     1      18.221   8.991  33.541  1.00  0.00     0.197 C 
HETATM   24  C5  UNK     1      18.644   5.402  31.416  1.00  0.00     0.278 C 
ENDBRANCH  14  15
ENDBRANCH   3  14
TORSDOF 2
ENDMDL
MODEL 4
REMARK VINA RESULT:      -8.1      8.156     10.986
REMARK  2 active torsions:
REMARK  status: ('A' for Active; 'I' for Inactive)
REMARK    1  A    between atoms: C6_11  and  N1_5 
REMARK    2  A    between atoms: C6_11  and  C9_14 
ROOT
HETATM    1  O3  UNK     1      20.292  -8.392  34.838  1.00  0.00    -0.275 OA
HETATM    2  O4  UNK     1      20.694  -7.233  32.907  1.00  0.00    -0.260 OA
HETATM    3  C9  UNK     1      20.264  -5.913  36.202  1.00  0.00    -0.011 A 
HETATM    4  C10 UNK     1      20.048  -7.168  36.937  1.00  0.00     0.012 A 
HETATM    5  C11 UNK     1      20.473  -5.964  34.879  1.00  0.00     0.092 A 
HETATM    6  C12 UNK     1      20.069  -8.370  36.229  1.00  0.00     0.091 A 
HETATM    7  C13 UNK     1      19.819  -7.231  38.319  1.00  0.00    -0.048 A 
HETATM    8  C14 UNK     1      20.500  -7.224  34.118  1.00  0.00     0.288 A 
HETATM    9  C15 UNK     1      19.873  -9.605  36.849  1.00  0.00     0.045 A 
HETATM   10  C16 UNK     1      19.620  -8.461  38.955  1.00  0.00     0.014 A 
HETATM   11  C17 UNK     1      19.647  -9.646  38.222  1.00  0.00    -0.059 A 
HETATM   12  C18 UNK     1      19.762  -6.045  39.228  1.00  0.00     0.049 C 
HETATM   13  C19 UNK     1      19.434 -10.954  38.906  1.00  0.00     0.048 C 
ENDROOT
BRANCH   3  14
HETATM   14  C6  UNK     1      20.266  -4.576  36.859  1.00  0.00     0.312 C 
BRANCH  14  15
HETATM   15  N1  UNK     1      19.455  -3.602  36.130  1.00  0.00     0.093 N 
HETATM   16  C4  UNK     1      20.293  -2.815  35.216  1.00  0.00     0.278 C 
HETATM   17  C2  UNK     1      19.449  -1.827  34.407  1.00  0.00     0.099 C 
HETATM   18  C1  UNK     1      18.625  -0.910  35.313  1.00  0.00     0.167 C 
HETATM   19  O1  UNK     1      17.711  -0.140  34.519  1.00  0.00    -0.353 OA
HETATM   20  O2  UNK     1      19.515  -0.023  36.016  1.00  0.00    -0.353 OA
HETATM   21  C3  UNK     1      17.831  -1.746  36.319  1.00  0.00     0.099 C 
HETATM   22  C7  UNK     1      18.253   1.180  34.519  1.00  0.00     0.197 C 
HETATM   23  C8  UNK     1      18.939   1.272  35.853  1.00  0.00     0.197 C 
HETATM   24  C5  UNK     1      18.727  -2.735  37.069  1.00  0.00     0.278 C 
ENDBRANCH  14  15
ENDBRANCH   3  14
TORSDOF 2
ENDMDL
MODEL 5
REMARK VINA RESULT:      -8.1      8.560     11.123
REMARK  2 active torsions:
REMARK  status: ('A' for Active; 'I' for Inactive)
REMARK    1  A    between atoms: C6_11  and  N1_5 
REMARK    2  A    between atoms: C6_11  and  C9_14 
ROOT
HETATM    1  O3  UNK     1      22.141  -7.222  38.953  1.00  0.00    -0.275 OA
HETATM    2  O4  UNK     1      23.471  -5.363  39.050  1.00  0.00    -0.260 OA
HETATM    3  C9  UNK     1      20.520  -5.843  37.089  1.00  0.00    -0.011 A 
HETATM    4  C10 UNK     1      20.182  -7.215  37.496  1.00  0.00     0.012 A 
HETATM    5  C11 UNK     1      21.606  -5.259  37.615  1.00  0.00     0.092 A 
HETATM    6  C12 UNK     1      21.006  -7.861  38.417  1.00  0.00     0.091 A 
HETATM    7  C13 UNK     1      19.072  -7.919  37.009  1.00  0.00    -0.048 A 
HETATM    8  C14 UNK     1      22.485  -5.928  38.589  1.00  0.00     0.288 A 
HETATM    9  C15 UNK     1      20.758  -9.163  38.855  1.00  0.00     0.045 A 
HETATM   10  C16 UNK     1      18.810  -9.225  37.439  1.00  0.00     0.014 A 
HETATM   11  C17 UNK     1      19.651  -9.846  38.360  1.00  0.00    -0.059 A 
HETATM   12  C18 UNK     1      18.088  -7.382  36.019  1.00  0.00     0.049 C 
HETATM   13  C19 UNK     1      19.366 -11.237  38.814  1.00  0.00     0.048 C 
ENDROOT
BRANCH   3  14
HETATM   14  C6  UNK     1      19.707  -5.059  36.118  1.00  0.00     0.312 C 
BRANCH  14  15
HETATM   15  N1  UNK     1      19.657  -3.639  36.461  1.00  0.00     0.093 N 
HETATM   16  C4  UNK     1      18.305  -3.262  36.895  1.00  0.00     0.278 C 
HETATM   17  C2  UNK     1      18.249  -1.789  37.308  1.00  0.00     0.099 C 
HETATM   18  C1  UNK     1      18.736  -0.867  36.188  1.00  0.00     0.167 C 
HETATM   19  O1  UNK     1      18.851   0.475  36.683  1.00  0.00    -0.353 OA
HETATM   20  O2  UNK     1      17.786  -0.900  35.107  1.00  0.00    -0.353 OA
HETATM   21  C3  UNK     1      20.104  -1.333  35.686  1.00  0.00     0.099 C 
HETATM   22  C7  UNK     1      17.753   1.173  36.098  1.00  0.00     0.197 C 
HETATM   23  C8  UNK     1      17.557   0.470  34.783  1.00  0.00     0.197 C 
HETATM   24  C5  UNK     1      20.100  -2.820  35.323  1.00  0.00     0.278 C 
ENDBRANCH  14  15
ENDBRANCH   3  14
TORSDOF 2
ENDMDL
MODEL 6
REMARK VINA RESULT:      -8.0     15.402     17.441
REMARK  2 active torsions:
REMARK  status: ('A' for Active; 'I' for Inactive)
REMARK    1  A    between atoms: C6_11  and  N1_5 
REMARK    2  A    between atoms: C6_11  and  C9_14 
ROOT
HETATM    1  O3  UNK     1      28.418  -5.731  39.601  1.00  0.00    -0.275 OA
HETATM    2  O4  UNK     1      29.087  -3.556  39.374  1.00  0.00    -0.260 OA
HETATM    3  C9  UNK     1      29.965  -6.341  37.311  1.00  0.00    -0.011 A 
HETATM    4  C10 UNK     1      29.212  -7.398  38.002  1.00  0.00     0.012 A 
HETATM    5  C11 UNK     1      29.906  -5.088  37.784  1.00  0.00     0.092 A 
HETATM    6  C12 UNK     1      28.461  -7.058  39.127  1.00  0.00     0.091 A 
HETATM    7  C13 UNK     1      29.203  -8.739  37.595  1.00  0.00    -0.048 A 
HETATM    8  C14 UNK     1      29.117  -4.713  38.970  1.00  0.00     0.288 A 
HETATM    9  C15 UNK     1      27.718  -8.000  39.841  1.00  0.00     0.045 A 
HETATM   10  C16 UNK     1      28.463  -9.695  38.300  1.00  0.00     0.014 A 
HETATM   11  C17 UNK     1      27.722  -9.326  39.421  1.00  0.00    -0.059 A 
HETATM   12  C18 UNK     1      29.950  -9.277  36.416  1.00  0.00     0.049 C 
HETATM   13  C19 UNK     1      26.936 -10.350  40.168  1.00  0.00     0.048 C 
ENDROOT
BRANCH   3  14
HETATM   14  C6  UNK     1      30.794  -6.592  36.099  1.00  0.00     0.312 C 
BRANCH  14  15
HETATM   15  N1  UNK     1      30.188  -6.032  34.892  1.00  0.00     0.093 N 
HETATM   16  C4  UNK     1      28.941  -6.738  34.567  1.00  0.00     0.278 C 
HETATM   17  C2  UNK     1      28.268  -6.128  33.335  1.00  0.00     0.099 C 
HETATM   18  C1  UNK     1      29.208  -6.104  32.128  1.00  0.00     0.167 C 
HETATM   19  O1  UNK     1      28.607  -5.354  31.062  1.00  0.00    -0.353 OA
HETATM   20  O2  UNK     1      29.443  -7.456  31.690  1.00  0.00    -0.353 OA
HETATM   21  C3  UNK     1      30.536  -5.449  32.514  1.00  0.00     0.099 C 
HETATM   22  C7  UNK     1      28.214  -6.335  30.104  1.00  0.00     0.197 C 
HETATM   23  C8  UNK     1      29.241  -7.419  30.279  1.00  0.00     0.197 C 
HETATM   24  C5  UNK     1      31.137  -6.082  33.770  1.00  0.00     0.278 C 
ENDBRANCH  14  15
ENDBRANCH   3  14
TORSDOF 2
ENDMDL
MODEL 7
REMARK VINA RESULT:      -7.9      6.972     11.608
REMARK  2 active torsions:
REMARK  status: ('A' for Active; 'I' for Inactive)
REMARK    1  A    between atoms: C6_11  and  N1_5 
REMARK    2  A    between atoms: C6_11  and  C9_14 
ROOT
HETATM    1  O3  UNK     1      18.331  -0.911  33.416  1.00  0.00    -0.275 OA
HETATM    2  O4  UNK     1      19.849  -1.845  31.982  1.00  0.00    -0.260 OA
HETATM    3  C9  UNK     1      19.711  -2.172  35.540  1.00  0.00    -0.011 A 
HETATM    4  C10 UNK     1      18.528  -1.342  35.812  1.00  0.00     0.012 A 
HETATM    5  C11 UNK     1      20.123  -2.320  34.273  1.00  0.00     0.092 A 
HETATM    6  C12 UNK     1      17.875  -0.737  34.738  1.00  0.00     0.091 A 
HETATM    7  C13 UNK     1      18.012  -1.120  37.096  1.00  0.00    -0.048 A 
HETATM    8  C14 UNK     1      19.443  -1.688  33.129  1.00  0.00     0.288 A 
HETATM    9  C15 UNK     1      16.746   0.067  34.908  1.00  0.00     0.045 A 
HETATM   10  C16 UNK     1      16.882  -0.317  37.282  1.00  0.00     0.014 A 
HETATM   11  C17 UNK     1      16.249   0.275  36.191  1.00  0.00    -0.059 A 
HETATM   12  C18 UNK     1      18.586  -1.687  38.355  1.00  0.00     0.049 C 
HETATM   13  C19 UNK     1      15.045   1.130  36.397  1.00  0.00     0.048 C 
ENDROOT
BRANCH   3  14
HETATM   14  C6  UNK     1      20.479  -2.867  36.610  1.00  0.00     0.312 C 
BRANCH  14  15
HETATM   15  N1  UNK     1      20.461  -4.320  36.446  1.00  0.00     0.093 N 
HETATM   16  C4  UNK     1      19.085  -4.830  36.527  1.00  0.00     0.278 C 
HETATM   17  C2  UNK     1      19.045  -6.344  36.304  1.00  0.00     0.099 C 
HETATM   18  C1  UNK     1      19.957  -7.086  37.283  1.00  0.00     0.167 C 
HETATM   19  O1  UNK     1      20.037  -8.471  36.914  1.00  0.00    -0.353 OA
HETATM   20  O2  UNK     1      19.410  -6.975  38.610  1.00  0.00    -0.353 OA
HETATM   21  C3  UNK     1      21.361  -6.479  37.252  1.00  0.00     0.099 C 
HETATM   22  C7  UNK     1      19.262  -9.155  37.898  1.00  0.00     0.197 C 
HETATM   23  C8  UNK     1      19.435  -8.305  39.125  1.00  0.00     0.197 C 
HETATM   24  C5  UNK     1      21.327  -4.961  37.446  1.00  0.00     0.278 C 
ENDBRANCH  14  15
ENDBRANCH   3  14
TORSDOF 2
ENDMDL
MODEL 8
REMARK VINA RESULT:      -7.8     22.896     24.596
REMARK  2 active torsions:
REMARK  status: ('A' for Active; 'I' for Inactive)
REMARK    1  A    between atoms: C6_11  and  N1_5 
REMARK    2  A    between atoms: C6_11  and  C9_14 
ROOT
HETATM    1  O3  UNK     1      17.889   8.530   9.739  1.00  0.00    -0.275 OA
HETATM    2  O4  UNK     1      18.199   6.343   9.145  1.00  0.00    -0.260 OA
HETATM    3  C9  UNK     1      15.196   7.886  10.323  1.00  0.00    -0.011 A 
HETATM    4  C10 UNK     1      15.688   9.259  10.509  1.00  0.00     0.012 A 
HETATM    5  C11 UNK     1      16.042   6.949   9.873  1.00  0.00     0.092 A 
HETATM    6  C12 UNK     1      17.023   9.537  10.210  1.00  0.00     0.091 A 
HETATM    7  C13 UNK     1      14.892  10.315  10.973  1.00  0.00    -0.048 A 
HETATM    8  C14 UNK     1      17.452   7.227   9.554  1.00  0.00     0.288 A 
HETATM    9  C15 UNK     1      17.570  10.812  10.360  1.00  0.00     0.045 A 
HETATM   10  C16 UNK     1      15.427  11.599  11.128  1.00  0.00     0.014 A 
HETATM   11  C17 UNK     1      16.763  11.847  10.821  1.00  0.00    -0.059 A 
HETATM   12  C18 UNK     1      13.447  10.195  11.340  1.00  0.00     0.049 C 
HETATM   13  C19 UNK     1      17.327  13.218  10.989  1.00  0.00     0.048 C 
ENDROOT
BRANCH   3  14
HETATM   14  C6  UNK     1      13.791   7.481  10.605  1.00  0.00     0.312 C 
BRANCH  14  15
HETATM   15  N1  UNK     1      13.115   6.969   9.414  1.00  0.00     0.093 N 
HETATM   16  C4  UNK     1      12.281   8.015   8.806  1.00  0.00     0.278 C 
HETATM   17  C2  UNK     1      11.608   7.509   7.528  1.00  0.00     0.099 C 
HETATM   18  C1  UNK     1      10.790   6.242   7.781  1.00  0.00     0.167 C 
HETATM   19  O1  UNK     1      10.341   5.698   6.530  1.00  0.00    -0.353 OA
HETATM   20  O2  UNK     1       9.650   6.574   8.595  1.00  0.00    -0.353 OA
HETATM   21  C3  UNK     1      11.649   5.200   8.499  1.00  0.00     0.099 C 
HETATM   22  C7  UNK     1       8.945   5.989   6.487  1.00  0.00     0.197 C 
HETATM   23  C8  UNK     1       8.542   5.963   7.935  1.00  0.00     0.197 C 
HETATM   24  C5  UNK     1      12.319   5.779   9.747  1.00  0.00     0.278 C 
ENDBRANCH  14  15
ENDBRANCH   3  14
TORSDOF 2
ENDMDL
MODEL 9
REMARK VINA RESULT:      -7.7      1.762      3.151
REMARK  2 active torsions:
REMARK  status: ('A' for Active; 'I' for Inactive)
REMARK    1  A    between atoms: C6_11  and  N1_5 
REMARK    2  A    between atoms: C6_11  and  C9_14 
ROOT
HETATM    1  O3  UNK     1      18.972   2.928  30.161  1.00  0.00    -0.275 OA
HETATM    2  O4  UNK     1      18.975   4.945  29.083  1.00  0.00    -0.260 OA
HETATM    3  C9  UNK     1      18.263   4.307  32.528  1.00  0.00    -0.011 A 
HETATM    4  C10 UNK     1      18.436   2.847  32.543  1.00  0.00     0.012 A 
HETATM    5  C11 UNK     1      18.446   4.970  31.378  1.00  0.00     0.092 A 
HETATM    6  C12 UNK     1      18.786   2.203  31.355  1.00  0.00     0.091 A 
HETATM    7  C13 UNK     1      18.269   2.055  33.687  1.00  0.00    -0.048 A 
HETATM    8  C14 UNK     1      18.816   4.305  30.118  1.00  0.00     0.288 A 
HETATM    9  C15 UNK     1      18.969   0.821  31.282  1.00  0.00     0.045 A 
HETATM   10  C16 UNK     1      18.449   0.668  33.629  1.00  0.00     0.014 A 
HETATM   11  C17 UNK     1      18.799   0.053  32.429  1.00  0.00    -0.059 A 
HETATM   12  C18 UNK     1      17.895   2.577  35.038  1.00  0.00     0.049 C 
HETATM   13  C19 UNK     1      18.989  -1.425  32.375  1.00  0.00     0.048 C 
ENDROOT
BRANCH   3  14
HETATM   14  C6  UNK     1      17.896   5.094  33.739  1.00  0.00     0.312 C 
BRANCH  14  15
HETATM   15  N1  UNK     1      17.737   6.517  33.443  1.00  0.00     0.093 N 
HETATM   16  C4  UNK     1      18.345   7.334  34.502  1.00  0.00     0.278 C 
HETATM   17  C2  UNK     1      18.233   8.826  34.180  1.00  0.00     0.099 C 
HETATM   18  C1  UNK     1      16.782   9.246  33.936  1.00  0.00     0.167 C 
HETATM   19  O1  UNK     1      16.745  10.596  33.450  1.00  0.00    -0.353 OA
HETATM   20  O2  UNK     1      16.055   9.162  35.176  1.00  0.00    -0.353 OA
HETATM   21  C3  UNK     1      16.139   8.324  32.898  1.00  0.00     0.099 C 
HETATM   22  C7  UNK     1      16.256  11.364  34.549  1.00  0.00     0.197 C 
HETATM   23  C8  UNK     1      15.354  10.402  35.270  1.00  0.00     0.197 C 
HETATM   24  C5  UNK     1      16.316   6.848  33.262  1.00  0.00     0.278 C 
ENDBRANCH  14  15
ENDBRANCH   3  14
TORSDOF 2
ENDMDL
MODEL 10
REMARK VINA RESULT:      -7.7     22.826     24.470
REMARK  2 active torsions:
REMARK  status: ('A' for Active; 'I' for Inactive)
REMARK    1  A    between atoms: C6_11  and  N1_5 
REMARK    2  A    between atoms: C6_11  and  C9_14 
ROOT
HETATM    1  O3  UNK     1      13.946   4.993   8.478  1.00  0.00    -0.275 OA
HETATM    2  O4  UNK     1      15.896   4.504   9.570  1.00  0.00    -0.260 OA
HETATM    3  C9  UNK     1      13.816   7.382   9.988  1.00  0.00    -0.011 A 
HETATM    4  C10 UNK     1      12.766   7.064   9.009  1.00  0.00     0.012 A 
HETATM    5  C11 UNK     1      14.832   6.524  10.152  1.00  0.00     0.092 A 
HETATM    6  C12 UNK     1      12.866   5.877   8.284  1.00  0.00     0.091 A 
HETATM    7  C13 UNK     1      11.661   7.889   8.758  1.00  0.00    -0.048 A 
HETATM    8  C14 UNK     1      14.951   5.266   9.394  1.00  0.00     0.288 A 
HETATM    9  C15 UNK     1      11.914   5.500   7.335  1.00  0.00     0.045 A 
HETATM   10  C16 UNK     1      10.699   7.525   7.810  1.00  0.00     0.014 A 
HETATM   11  C17 UNK     1      10.824   6.332   7.100  1.00  0.00    -0.059 A 
HETATM   12  C18 UNK     1      11.399   9.194   9.440  1.00  0.00     0.049 C 
HETATM   13  C19 UNK     1       9.795   5.951   6.091  1.00  0.00     0.048 C 
ENDROOT
BRANCH   3  14
HETATM   14  C6  UNK     1      13.805   8.619  10.819  1.00  0.00     0.312 C 
BRANCH  14  15
HETATM   15  N1  UNK     1      14.908   9.518  10.482  1.00  0.00     0.093 N 
HETATM   16  C4  UNK     1      14.826  10.752  11.276  1.00  0.00     0.278 C 
HETATM   17  C2  UNK     1      16.004  11.681  10.973  1.00  0.00     0.099 C 
HETATM   18  C1  UNK     1      16.104  12.002   9.480  1.00  0.00     0.167 C 
HETATM   19  O1  UNK     1      17.325  12.709   9.218  1.00  0.00    -0.353 OA
HETATM   20  O2  UNK     1      14.983  12.822   9.100  1.00  0.00    -0.353 OA
HETATM   21  C3  UNK     1      16.093  10.706   8.666  1.00  0.00     0.099 C 
HETATM   22  C7  UNK     1      16.919  14.054   8.968  1.00  0.00     0.197 C 
HETATM   23  C8  UNK     1      15.556  13.895   8.355  1.00  0.00     0.197 C 
HETATM   24  C5  UNK     1      14.911   9.810   9.041  1.00  0.00     0.278 C 
ENDBRANCH  14  15
ENDBRANCH   3  14
TORSDOF 2
ENDMDL
