MODEL 1
REMARK VINA RESULT:      -9.2      0.000      0.000
REMARK  4 active torsions:
REMARK  status: ('A' for Active; 'I' for Inactive)
REMARK    1  A    between atoms: C12_20  and  O2_6 
REMARK    2  A    between atoms: C5_13  and  O2_6 
REMARK    3  A    between atoms: C8_16  and  O3_7 
REMARK    4  A    between atoms: C11_19  and  C6_14 
ROOT
HETATM    1  O1  UNK     1      19.175   0.340  32.568  1.00  0.00    -0.301 OA
HETATM    2  O4  UNK     1      18.173   2.815  29.493  1.00  0.00    -0.284 OA
HETATM    3  C1  UNK     1      19.485  -0.008  31.279  1.00  0.00     0.099 A 
HETATM    4  C2  UNK     1      19.172   0.793  30.183  1.00  0.00     0.051 A 
HETATM    5  C3  UNK     1      20.144  -1.224  31.087  1.00  0.00     0.006 A 
HETATM    6  C4  UNK     1      18.478   2.069  30.414  1.00  0.00     0.221 A 
HETATM    7  C5  UNK     1      18.165   2.400  31.824  1.00  0.00     0.165 A 
HETATM    8  C6  UNK     1      18.521   1.541  32.795  1.00  0.00     0.197 A 
HETATM    9  C7  UNK     1      19.512   0.387  28.891  1.00  0.00     0.021 A 
HETATM   10  C8  UNK     1      20.485  -1.633  29.798  1.00  0.00     0.074 A 
HETATM   11  C9  UNK     1      20.170  -0.828  28.702  1.00  0.00     0.038 A 
HETATM   12  C10 UNK     1      20.486  -2.092  32.256  1.00  0.00     0.054 C 
ENDROOT
BRANCH   7  13
HETATM   13  O2  UNK     1      17.516   3.587  32.085  1.00  0.00    -0.304 OA
BRANCH  13  14
HETATM   14  C12 UNK     1      18.293   4.652  32.446  1.00  0.00     0.076 A 
HETATM   15  C13 UNK     1      19.377   5.017  31.653  1.00  0.00     0.039 A 
HETATM   16  C15 UNK     1      20.171   6.103  32.023  1.00  0.00     0.026 A 
HETATM   17  C17 UNK     1      19.876   6.820  33.182  1.00  0.00     0.034 A 
HETATM   18  C16 UNK     1      18.788   6.451  33.972  1.00  0.00     0.026 A 
HETATM   19 Cl1  UNK     1      20.856   8.160  33.638  1.00  0.00    -0.084 Cl
HETATM   20  C14 UNK     1      17.995   5.364  33.603  1.00  0.00     0.039 A 
ENDBRANCH  13  14
ENDBRANCH   7  13
BRANCH   8  21
HETATM   21  C11 UNK     1      18.253   1.782  34.250  1.00  0.00     0.442 C 
HETATM   22  F1  UNK     1      18.619   0.714  34.990  1.00  0.00    -0.164 F 
HETATM   23  F2  UNK     1      18.942   2.851  34.702  1.00  0.00    -0.164 F 
HETATM   24  F3  UNK     1      16.943   2.009  34.473  1.00  0.00    -0.164 F 
ENDBRANCH   8  21
BRANCH  10  25
HETATM   25  O3  UNK     1      21.129  -2.816  29.588  1.00  0.00    -0.360 OA
HETATM   26  H8  UNK     1      20.784  -3.480  30.210  1.00  0.00     0.217 HD
ENDBRANCH  10  25
TORSDOF 4
ENDMDL
MODEL 2
REMARK VINA RESULT:      -8.6      2.448      3.467
REMARK  4 active torsions:
REMARK  status: ('A' for Active; 'I' for Inactive)
REMARK    1  A    between atoms: C12_20  and  O2_6 
REMARK    2  A    between atoms: C5_13  and  O2_6 
REMARK    3  A    between atoms: C8_16  and  O3_7 
REMARK    4  A    between atoms: C11_19  and  C6_14 
ROOT
HETATM    1  O1  UNK     1      19.106   0.458  31.121  1.00  0.00    -0.301 OA
HETATM    2  O4  UNK     1      17.560   2.647  34.188  1.00  0.00    -0.284 OA
HETATM    3  C1  UNK     1      19.103  -0.051  32.393  1.00  0.00     0.099 A 
HETATM    4  C2  UNK     1      18.589   0.644  33.485  1.00  0.00     0.051 A 
HETATM    5  C3  UNK     1      19.646  -1.325  32.571  1.00  0.00     0.006 A 
HETATM    6  C4  UNK     1      18.024   1.985  33.269  1.00  0.00     0.221 A 
HETATM    7  C5  UNK     1      18.050   2.491  31.876  1.00  0.00     0.165 A 
HETATM    8  C6  UNK     1      18.574   1.721  30.907  1.00  0.00     0.197 A 
HETATM    9  C7  UNK     1      18.614   0.076  34.761  1.00  0.00     0.021 A 
HETATM   10  C8  UNK     1      19.672  -1.897  33.844  1.00  0.00     0.074 A 
HETATM   11  C9  UNK     1      19.156  -1.198  34.936  1.00  0.00     0.038 A 
HETATM   12  C10 UNK     1      20.199  -2.082  31.407  1.00  0.00     0.054 C 
ENDROOT
BRANCH   7  13
HETATM   13  O2  UNK     1      17.529   3.742  31.629  1.00  0.00    -0.304 OA
BRANCH  13  14
HETATM   14  C12 UNK     1      18.168   4.804  32.205  1.00  0.00     0.076 A 
HETATM   15  C13 UNK     1      19.468   5.122  31.819  1.00  0.00     0.039 A 
HETATM   16  C15 UNK     1      20.120   6.205  32.409  1.00  0.00     0.026 A 
HETATM   17  C17 UNK     1      19.471   6.966  33.380  1.00  0.00     0.034 A 
HETATM   18  C16 UNK     1      18.169   6.644  33.762  1.00  0.00     0.026 A 
HETATM   19 Cl1  UNK     1      20.276   8.302  34.107  1.00  0.00    -0.084 Cl
HETATM   20  C14 UNK     1      17.516   5.561  33.173  1.00  0.00     0.039 A 
ENDBRANCH  13  14
ENDBRANCH   7  13
BRANCH   8  21
HETATM   21  C11 UNK     1      18.647   2.138  29.469  1.00  0.00     0.442 C 
HETATM   22  F1  UNK     1      19.447   1.308  28.767  1.00  0.00    -0.164 F 
HETATM   23  F2  UNK     1      17.427   2.117  28.894  1.00  0.00    -0.164 F 
HETATM   24  F3  UNK     1      19.141   3.387  29.348  1.00  0.00    -0.164 F 
ENDBRANCH   8  21
BRANCH  10  25
HETATM   25  O3  UNK     1      20.196  -3.139  34.040  1.00  0.00    -0.360 OA
HETATM   26  H8  UNK     1      21.108  -3.157  33.701  1.00  0.00     0.217 HD
ENDBRANCH  10  25
TORSDOF 4
ENDMDL
MODEL 3
REMARK VINA RESULT:      -7.9     14.950     15.900
REMARK  4 active torsions:
REMARK  status: ('A' for Active; 'I' for Inactive)
REMARK    1  A    between atoms: C12_20  and  O2_6 
REMARK    2  A    between atoms: C5_13  and  O2_6 
REMARK    3  A    between atoms: C8_16  and  O3_7 
REMARK    4  A    between atoms: C11_19  and  C6_14 
ROOT
HETATM    1  O1  UNK     1      29.113  -6.584  38.054  1.00  0.00    -0.301 OA
HETATM    2  O4  UNK     1      30.357  -7.107  34.211  1.00  0.00    -0.284 OA
HETATM    3  C1  UNK     1      28.617  -7.621  37.307  1.00  0.00     0.099 A 
HETATM    4  C2  UNK     1      29.001  -7.856  35.989  1.00  0.00     0.051 A 
HETATM    5  C3  UNK     1      27.687  -8.461  37.923  1.00  0.00     0.006 A 
HETATM    6  C4  UNK     1      29.981  -6.954  35.366  1.00  0.00     0.221 A 
HETATM    7  C5  UNK     1      30.489  -5.849  36.213  1.00  0.00     0.165 A 
HETATM    8  C6  UNK     1      30.039  -5.729  37.474  1.00  0.00     0.197 A 
HETATM    9  C7  UNK     1      28.460  -8.928  35.276  1.00  0.00     0.021 A 
HETATM   10  C8  UNK     1      27.145  -9.534  37.214  1.00  0.00     0.074 A 
HETATM   11  C9  UNK     1      27.532  -9.767  35.893  1.00  0.00     0.038 A 
HETATM   12  C10 UNK     1      27.268  -8.220  39.338  1.00  0.00     0.054 C 
ENDROOT
BRANCH   7  13
HETATM   13  O2  UNK     1      31.410  -4.982  35.669  1.00  0.00    -0.304 OA
BRANCH  13  14
HETATM   14  C12 UNK     1      32.684  -5.451  35.509  1.00  0.00     0.076 A 
HETATM   15  C13 UNK     1      33.515  -4.883  34.548  1.00  0.00     0.039 A 
HETATM   16  C15 UNK     1      34.814  -5.364  34.384  1.00  0.00     0.026 A 
HETATM   17  C17 UNK     1      35.277  -6.409  35.182  1.00  0.00     0.034 A 
HETATM   18  C16 UNK     1      34.441  -6.975  36.144  1.00  0.00     0.026 A 
HETATM   19 Cl1  UNK     1      36.880  -7.002  34.979  1.00  0.00    -0.084 Cl
HETATM   20  C14 UNK     1      33.141  -6.495  36.308  1.00  0.00     0.039 A 
ENDBRANCH  13  14
ENDBRANCH   7  13
BRANCH   8  21
HETATM   21  C11 UNK     1      30.488  -4.650  38.412  1.00  0.00     0.442 C 
HETATM   22  F1  UNK     1      29.736  -4.641  39.532  1.00  0.00    -0.164 F 
HETATM   23  F2  UNK     1      31.773  -4.830  38.782  1.00  0.00    -0.164 F 
HETATM   24  F3  UNK     1      30.389  -3.433  37.839  1.00  0.00    -0.164 F 
ENDBRANCH   8  21
BRANCH  10  25
HETATM   25  O3  UNK     1      26.237 -10.367  37.795  1.00  0.00    -0.360 OA
HETATM   26  H8  UNK     1      26.537 -10.587  38.694  1.00  0.00     0.217 HD
ENDBRANCH  10  25
TORSDOF 4
ENDMDL
MODEL 4
REMARK VINA RESULT:      -7.9      5.607      7.420
REMARK  4 active torsions:
REMARK  status: ('A' for Active; 'I' for Inactive)
REMARK    1  A    between atoms: C12_20  and  O2_6 
REMARK    2  A    between atoms: C5_13  and  O2_6 
REMARK    3  A    between atoms: C8_16  and  O3_7 
REMARK    4  A    between atoms: C11_19  and  C6_14 
ROOT
HETATM    1  O1  UNK     1      17.096   7.037  31.938  1.00  0.00    -0.301 OA
HETATM    2  O4  UNK     1      18.624   8.136  35.550  1.00  0.00    -0.284 OA
HETATM    3  C1  UNK     1      18.426   6.843  32.208  1.00  0.00     0.099 A 
HETATM    4  C2  UNK     1      19.011   7.195  33.422  1.00  0.00     0.051 A 
HETATM    5  C3  UNK     1      19.203   6.266  31.202  1.00  0.00     0.006 A 
HETATM    6  C4  UNK     1      18.169   7.802  34.464  1.00  0.00     0.221 A 
HETATM    7  C5  UNK     1      16.738   7.990  34.125  1.00  0.00     0.165 A 
HETATM    8  C6  UNK     1      16.294   7.608  32.915  1.00  0.00     0.197 A 
HETATM    9  C7  UNK     1      20.372   6.976  33.641  1.00  0.00     0.021 A 
HETATM   10  C8  UNK     1      20.563   6.044  31.417  1.00  0.00     0.074 A 
HETATM   11  C9  UNK     1      21.147   6.398  32.634  1.00  0.00     0.038 A 
HETATM   12  C10 UNK     1      18.586   5.882  29.895  1.00  0.00     0.054 C 
ENDROOT
BRANCH   7  13
HETATM   13  O2  UNK     1      15.913   8.555  35.073  1.00  0.00    -0.304 OA
BRANCH  13  14
HETATM   14  C12 UNK     1      15.609   9.878  34.921  1.00  0.00     0.076 A 
HETATM   15  C13 UNK     1      16.565  10.755  34.415  1.00  0.00     0.039 A 
HETATM   16  C15 UNK     1      16.254  12.106  34.262  1.00  0.00     0.026 A 
HETATM   17  C17 UNK     1      14.989  12.575  34.614  1.00  0.00     0.034 A 
HETATM   18  C16 UNK     1      14.034  11.693  35.120  1.00  0.00     0.026 A 
HETATM   19 Cl1  UNK     1      14.606  14.243  34.425  1.00  0.00    -0.084 Cl
HETATM   20  C14 UNK     1      14.345  10.342  35.274  1.00  0.00     0.039 A 
ENDBRANCH  13  14
ENDBRANCH   7  13
BRANCH   8  21
HETATM   21  C11 UNK     1      14.869   7.753  32.475  1.00  0.00     0.442 C 
HETATM   22  F1  UNK     1      14.642   7.057  31.341  1.00  0.00    -0.164 F 
HETATM   23  F2  UNK     1      14.019   7.292  33.416  1.00  0.00    -0.164 F 
HETATM   24  F3  UNK     1      14.561   9.043  32.235  1.00  0.00    -0.164 F 
ENDBRANCH   8  21
BRANCH  10  25
HETATM   25  O3  UNK     1      21.340   5.481  30.449  1.00  0.00    -0.360 OA
HETATM   26  H8  UNK     1      21.070   5.830  29.582  1.00  0.00     0.217 HD
ENDBRANCH  10  25
TORSDOF 4
ENDMDL
MODEL 5
REMARK VINA RESULT:      -7.8      4.941      9.219
REMARK  4 active torsions:
REMARK  status: ('A' for Active; 'I' for Inactive)
REMARK    1  A    between atoms: C12_20  and  O2_6 
REMARK    2  A    between atoms: C5_13  and  O2_6 
REMARK    3  A    between atoms: C8_16  and  O3_7 
REMARK    4  A    between atoms: C11_19  and  C6_14 
ROOT
HETATM    1  O1  UNK     1      17.911  10.122  34.205  1.00  0.00    -0.301 OA
HETATM    2  O4  UNK     1      15.409   6.946  33.708  1.00  0.00    -0.284 OA
HETATM    3  C1  UNK     1      16.580  10.330  33.949  1.00  0.00     0.099 A 
HETATM    4  C2  UNK     1      15.672   9.289  33.770  1.00  0.00     0.051 A 
HETATM    5  C3  UNK     1      16.146  11.655  33.869  1.00  0.00     0.006 A 
HETATM    6  C4  UNK     1      16.156   7.904  33.858  1.00  0.00     0.221 A 
HETATM    7  C5  UNK     1      17.602   7.730  34.138  1.00  0.00     0.165 A 
HETATM    8  C6  UNK     1      18.376   8.818  34.291  1.00  0.00     0.197 A 
HETATM    9  C7  UNK     1      14.327   9.562  33.509  1.00  0.00     0.021 A 
HETATM   10  C8  UNK     1      14.804  11.931  33.610  1.00  0.00     0.074 A 
HETATM   11  C9  UNK     1      13.896  10.886  33.431  1.00  0.00     0.038 A 
HETATM   12  C10 UNK     1      17.112  12.781  34.061  1.00  0.00     0.054 C 
ENDROOT
BRANCH   7  13
HETATM   13  O2  UNK     1      18.097   6.448  34.230  1.00  0.00    -0.304 OA
BRANCH  13  14
HETATM   14  C12 UNK     1      18.260   5.761  33.060  1.00  0.00     0.076 A 
HETATM   15  C13 UNK     1      18.596   6.446  31.896  1.00  0.00     0.039 A 
HETATM   16  C15 UNK     1      18.761   5.744  30.702  1.00  0.00     0.026 A 
HETATM   17  C17 UNK     1      18.590   4.361  30.676  1.00  0.00     0.034 A 
HETATM   18  C16 UNK     1      18.254   3.678  31.846  1.00  0.00     0.026 A 
HETATM   19 Cl1  UNK     1      18.793   3.495  29.203  1.00  0.00    -0.084 Cl
HETATM   20  C14 UNK     1      18.089   4.380  33.040  1.00  0.00     0.039 A 
ENDBRANCH  13  14
ENDBRANCH   7  13
BRANCH   8  21
HETATM   21  C11 UNK     1      19.846   8.752  34.577  1.00  0.00     0.442 C 
HETATM   22  F1  UNK     1      20.365   9.990  34.722  1.00  0.00    -0.164 F 
HETATM   23  F2  UNK     1      20.091   8.069  35.715  1.00  0.00    -0.164 F 
HETATM   24  F3  UNK     1      20.511   8.141  33.576  1.00  0.00    -0.164 F 
ENDBRANCH   8  21
BRANCH  10  25
HETATM   25  O3  UNK     1      14.359  13.216  33.528  1.00  0.00    -0.360 OA
HETATM   26  H8  UNK     1      14.044  13.500  34.404  1.00  0.00     0.217 HD
ENDBRANCH  10  25
TORSDOF 4
ENDMDL
MODEL 6
REMARK VINA RESULT:      -7.8     14.050     17.074
REMARK  4 active torsions:
REMARK  status: ('A' for Active; 'I' for Inactive)
REMARK    1  A    between atoms: C12_20  and  O2_6 
REMARK    2  A    between atoms: C5_13  and  O2_6 
REMARK    3  A    between atoms: C8_16  and  O3_7 
REMARK    4  A    between atoms: C11_19  and  C6_14 
ROOT
HETATM    1  O1  UNK     1      29.489  -6.301  38.418  1.00  0.00    -0.301 OA
HETATM    2  O4  UNK     1      31.120 -10.033  38.425  1.00  0.00    -0.284 OA
HETATM    3  C1  UNK     1      28.682  -7.402  38.541  1.00  0.00     0.099 A 
HETATM    4  C2  UNK     1      29.175  -8.705  38.551  1.00  0.00     0.051 A 
HETATM    5  C3  UNK     1      27.309  -7.176  38.659  1.00  0.00     0.006 A 
HETATM    6  C4  UNK     1      30.625  -8.914  38.425  1.00  0.00     0.221 A 
HETATM    7  C5  UNK     1      31.456  -7.693  38.296  1.00  0.00     0.165 A 
HETATM    8  C6  UNK     1      30.859  -6.489  38.300  1.00  0.00     0.197 A 
HETATM    9  C7  UNK     1      28.305  -9.789  38.678  1.00  0.00     0.021 A 
HETATM   10  C8  UNK     1      26.436  -8.257  38.786  1.00  0.00     0.074 A 
HETATM   11  C9  UNK     1      26.933  -9.561  38.796  1.00  0.00     0.038 A 
HETATM   12  C10 UNK     1      26.768  -5.782  38.650  1.00  0.00     0.054 C 
ENDROOT
BRANCH   7  13
HETATM   13  O2  UNK     1      32.820  -7.843  38.176  1.00  0.00    -0.304 OA
BRANCH  13  14
HETATM   14  C12 UNK     1      33.340  -7.803  36.913  1.00  0.00     0.076 A 
HETATM   15  C13 UNK     1      34.452  -7.009  36.648  1.00  0.00     0.039 A 
HETATM   16  C15 UNK     1      34.981  -6.966  35.357  1.00  0.00     0.026 A 
HETATM   17  C17 UNK     1      34.396  -7.718  34.338  1.00  0.00     0.034 A 
HETATM   18  C16 UNK     1      33.282  -8.512  34.610  1.00  0.00     0.026 A 
HETATM   19 Cl1  UNK     1      35.049  -7.665  32.746  1.00  0.00    -0.084 Cl
HETATM   20  C14 UNK     1      32.753  -8.555  35.900  1.00  0.00     0.039 A 
ENDBRANCH  13  14
ENDBRANCH   7  13
BRANCH   8  21
HETATM   21  C11 UNK     1      31.606  -5.195  38.176  1.00  0.00     0.442 C 
HETATM   22  F1  UNK     1      30.834  -4.155  38.554  1.00  0.00    -0.164 F 
HETATM   23  F2  UNK     1      32.708  -5.193  38.955  1.00  0.00    -0.164 F 
HETATM   24  F3  UNK     1      31.997  -4.978  36.905  1.00  0.00    -0.164 F 
ENDBRANCH   8  21
BRANCH  10  25
HETATM   25  O3  UNK     1      25.093  -8.058  38.902  1.00  0.00    -0.360 OA
HETATM   26  H8  UNK     1      24.734  -8.685  39.554  1.00  0.00     0.217 HD
ENDBRANCH  10  25
TORSDOF 4
ENDMDL
MODEL 7
REMARK VINA RESULT:      -7.7     23.194     24.941
REMARK  4 active torsions:
REMARK  status: ('A' for Active; 'I' for Inactive)
REMARK    1  A    between atoms: C12_20  and  O2_6 
REMARK    2  A    between atoms: C5_13  and  O2_6 
REMARK    3  A    between atoms: C8_16  and  O3_7 
REMARK    4  A    between atoms: C11_19  and  C6_14 
ROOT
HETATM    1  O1  UNK     1      11.242   8.470  10.043  1.00  0.00    -0.301 OA
HETATM    2  O4  UNK     1      13.750   6.546   7.474  1.00  0.00    -0.284 OA
HETATM    3  C1  UNK     1      10.730   7.757   8.989  1.00  0.00     0.099 A 
HETATM    4  C2  UNK     1      11.532   7.076   8.076  1.00  0.00     0.051 A 
HETATM    5  C3  UNK     1       9.341   7.730   8.852  1.00  0.00     0.006 A 
HETATM    6  C4  UNK     1      12.992   7.121   8.244  1.00  0.00     0.221 A 
HETATM    7  C5  UNK     1      13.496   7.904   9.398  1.00  0.00     0.165 A 
HETATM    8  C6  UNK     1      12.618   8.517  10.209  1.00  0.00     0.197 A 
HETATM    9  C7  UNK     1      10.955   6.366   7.021  1.00  0.00     0.021 A 
HETATM   10  C8  UNK     1       8.761   7.022   7.800  1.00  0.00     0.074 A 
HETATM   11  C9  UNK     1       9.566   6.341   6.886  1.00  0.00     0.038 A 
HETATM   12  C10 UNK     1       8.470   8.457   9.827  1.00  0.00     0.054 C 
ENDROOT
BRANCH   7  13
HETATM   13  O2  UNK     1      14.858   7.971   9.593  1.00  0.00    -0.304 OA
BRANCH  13  14
HETATM   14  C12 UNK     1      15.488   9.113   9.180  1.00  0.00     0.076 A 
HETATM   15  C13 UNK     1      14.900   9.914   8.206  1.00  0.00     0.039 A 
HETATM   16  C15 UNK     1      15.544  11.078   7.784  1.00  0.00     0.026 A 
HETATM   17  C17 UNK     1      16.772  11.436   8.340  1.00  0.00     0.034 A 
HETATM   18  C16 UNK     1      17.357  10.630   9.316  1.00  0.00     0.026 A 
HETATM   19 Cl1  UNK     1      17.566  12.871   7.819  1.00  0.00    -0.084 Cl
HETATM   20  C14 UNK     1      16.713   9.466   9.738  1.00  0.00     0.039 A 
ENDBRANCH  13  14
ENDBRANCH   7  13
BRANCH   8  21
HETATM   21  C11 UNK     1      13.023   9.331  11.401  1.00  0.00     0.442 C 
HETATM   22  F1  UNK     1      11.999   9.452  12.272  1.00  0.00    -0.164 F 
HETATM   23  F2  UNK     1      14.054   8.755  12.056  1.00  0.00    -0.164 F 
HETATM   24  F3  UNK     1      13.405  10.572  11.038  1.00  0.00    -0.164 F 
ENDBRANCH   8  21
BRANCH  10  25
HETATM   25  O3  UNK     1       7.407   6.983   7.648  1.00  0.00    -0.360 OA
HETATM   26  H8  UNK     1       7.133   7.704   7.056  1.00  0.00     0.217 HD
ENDBRANCH  10  25
TORSDOF 4
ENDMDL
MODEL 8
REMARK VINA RESULT:      -7.7     23.394     24.660
REMARK  4 active torsions:
REMARK  status: ('A' for Active; 'I' for Inactive)
REMARK    1  A    between atoms: C12_20  and  O2_6 
REMARK    2  A    between atoms: C5_13  and  O2_6 
REMARK    3  A    between atoms: C8_16  and  O3_7 
REMARK    4  A    between atoms: C11_19  and  C6_14 
ROOT
HETATM    1  O1  UNK     1      15.817   8.247  10.000  1.00  0.00    -0.301 OA
HETATM    2  O4  UNK     1      11.887   8.906  10.843  1.00  0.00    -0.284 OA
HETATM    3  C1  UNK     1      15.402   9.489  10.405  1.00  0.00     0.099 A 
HETATM    4  C2  UNK     1      14.074   9.780  10.710  1.00  0.00     0.051 A 
HETATM    5  C3  UNK     1      16.375  10.485  10.508  1.00  0.00     0.006 A 
HETATM    6  C4  UNK     1      13.070   8.713  10.592  1.00  0.00     0.221 A 
HETATM    7  C5  UNK     1      13.568   7.388  10.151  1.00  0.00     0.165 A 
HETATM    8  C6  UNK     1      14.877   7.234   9.887  1.00  0.00     0.197 A 
HETATM    9  C7  UNK     1      13.708  11.065  11.117  1.00  0.00     0.021 A 
HETATM   10  C8  UNK     1      16.013  11.769  10.915  1.00  0.00     0.074 A 
HETATM   11  C9  UNK     1      14.682  12.059  11.220  1.00  0.00     0.038 A 
HETATM   12  C10 UNK     1      17.804  10.184  10.185  1.00  0.00     0.054 C 
ENDROOT
BRANCH   7  13
HETATM   13  O2  UNK     1      12.661   6.359  10.029  1.00  0.00    -0.304 OA
BRANCH  13  14
HETATM   14  C12 UNK     1      11.836   6.387   8.940  1.00  0.00     0.076 A 
HETATM   15  C13 UNK     1      12.332   6.797   7.706  1.00  0.00     0.039 A 
HETATM   16  C15 UNK     1      11.488   6.827   6.595  1.00  0.00     0.026 A 
HETATM   17  C17 UNK     1      10.153   6.445   6.722  1.00  0.00     0.034 A 
HETATM   18  C16 UNK     1       9.661   6.033   7.961  1.00  0.00     0.026 A 
HETATM   19 Cl1  UNK     1       9.113   6.482   5.351  1.00  0.00    -0.084 Cl
HETATM   20  C14 UNK     1      10.504   6.004   9.072  1.00  0.00     0.039 A 
ENDBRANCH  13  14
ENDBRANCH   7  13
BRANCH   8  21
HETATM   21  C11 UNK     1      15.482   5.938   9.437  1.00  0.00     0.442 C 
HETATM   22  F1  UNK     1      15.190   4.944  10.302  1.00  0.00    -0.164 F 
HETATM   23  F2  UNK     1      15.013   5.578   8.224  1.00  0.00    -0.164 F 
HETATM   24  F3  UNK     1      16.824   6.030   9.352  1.00  0.00    -0.164 F 
ENDBRANCH   8  21
BRANCH  10  25
HETATM   25  O3  UNK     1      16.947  12.756  11.023  1.00  0.00    -0.360 OA
HETATM   26  H8  UNK     1      17.783  12.446  10.636  1.00  0.00     0.217 HD
ENDBRANCH  10  25
TORSDOF 4
ENDMDL
MODEL 9
REMARK VINA RESULT:      -7.6     14.499     16.428
REMARK  4 active torsions:
REMARK  status: ('A' for Active; 'I' for Inactive)
REMARK    1  A    between atoms: C12_20  and  O2_6 
REMARK    2  A    between atoms: C5_13  and  O2_6 
REMARK    3  A    between atoms: C8_16  and  O3_7 
REMARK    4  A    between atoms: C11_19  and  C6_14 
ROOT
HETATM    1  O1  UNK     1      31.561  -4.953  37.127  1.00  0.00    -0.301 OA
HETATM    2  O4  UNK     1      31.356  -8.934  37.963  1.00  0.00    -0.284 OA
HETATM    3  C1  UNK     1      32.497  -5.811  36.611  1.00  0.00     0.099 A 
HETATM    4  C2  UNK     1      32.483  -7.182  36.857  1.00  0.00     0.051 A 
HETATM    5  C3  UNK     1      33.494  -5.257  35.807  1.00  0.00     0.006 A 
HETATM    6  C4  UNK     1      31.421  -7.738  37.708  1.00  0.00     0.221 A 
HETATM    7  C5  UNK     1      30.433  -6.771  38.242  1.00  0.00     0.165 A 
HETATM    8  C6  UNK     1      30.555  -5.469  37.931  1.00  0.00     0.197 A 
HETATM    9  C7  UNK     1      33.464  -8.009  36.304  1.00  0.00     0.021 A 
HETATM   10  C8  UNK     1      34.475  -6.080  35.253  1.00  0.00     0.074 A 
HETATM   11  C9  UNK     1      34.460  -7.453  35.500  1.00  0.00     0.038 A 
HETATM   12  C10 UNK     1      33.518  -3.787  35.534  1.00  0.00     0.054 C 
ENDROOT
BRANCH   7  13
HETATM   13  O2  UNK     1      29.420  -7.250  39.043  1.00  0.00    -0.304 OA
BRANCH  13  14
HETATM   14  C12 UNK     1      28.518  -8.096  38.462  1.00  0.00     0.076 A 
HETATM   15  C13 UNK     1      28.053  -7.835  37.176  1.00  0.00     0.039 A 
HETATM   16  C15 UNK     1      27.131  -8.698  36.584  1.00  0.00     0.026 A 
HETATM   17  C17 UNK     1      26.678  -9.819  37.280  1.00  0.00     0.034 A 
HETATM   18  C16 UNK     1      27.148 -10.077  38.567  1.00  0.00     0.026 A 
HETATM   19 Cl1  UNK     1      25.540 -10.884  36.549  1.00  0.00    -0.084 Cl
HETATM   20  C14 UNK     1      28.070  -9.214  39.160  1.00  0.00     0.039 A 
ENDBRANCH  13  14
ENDBRANCH   7  13
BRANCH   8  21
HETATM   21  C11 UNK     1      29.611  -4.411  38.417  1.00  0.00     0.442 C 
HETATM   22  F1  UNK     1      29.897  -3.216  37.859  1.00  0.00    -0.164 F 
HETATM   23  F2  UNK     1      28.334  -4.716  38.102  1.00  0.00    -0.164 F 
HETATM   24  F3  UNK     1      29.684  -4.270  39.756  1.00  0.00    -0.164 F 
ENDBRANCH   8  21
BRANCH  10  25
HETATM   25  O3  UNK     1      35.458  -5.561  34.464  1.00  0.00    -0.360 OA
HETATM   26  H8  UNK     1      36.177  -5.230  35.029  1.00  0.00     0.217 HD
ENDBRANCH  10  25
TORSDOF 4
ENDMDL
MODEL 10
REMARK VINA RESULT:      -7.6      5.060      9.437
REMARK  4 active torsions:
REMARK  status: ('A' for Active; 'I' for Inactive)
REMARK    1  A    between atoms: C12_20  and  O2_6 
REMARK    2  A    between atoms: C5_13  and  O2_6 
REMARK    3  A    between atoms: C8_16  and  O3_7 
REMARK    4  A    between atoms: C11_19  and  C6_14 
ROOT
HETATM    1  O1  UNK     1      16.025   9.674  34.101  1.00  0.00    -0.301 OA
HETATM    2  O4  UNK     1      20.079   9.370  34.357  1.00  0.00    -0.284 OA
HETATM    3  C1  UNK     1      16.802  10.801  34.048  1.00  0.00     0.099 A 
HETATM    4  C2  UNK     1      18.193  10.767  34.129  1.00  0.00     0.051 A 
HETATM    5  C3  UNK     1      16.143  12.024  33.906  1.00  0.00     0.006 A 
HETATM    6  C4  UNK     1      18.861   9.466  34.278  1.00  0.00     0.221 A 
HETATM    7  C5  UNK     1      17.979   8.276  34.330  1.00  0.00     0.165 A 
HETATM    8  C6  UNK     1      16.648   8.442  34.241  1.00  0.00     0.197 A 
HETATM    9  C7  UNK     1      18.934  11.950  34.070  1.00  0.00     0.021 A 
HETATM   10  C8  UNK     1      16.879  13.207  33.847  1.00  0.00     0.074 A 
HETATM   11  C9  UNK     1      18.272  13.170  33.928  1.00  0.00     0.038 A 
HETATM   12  C10 UNK     1      14.651  12.073  33.817  1.00  0.00     0.054 C 
ENDROOT
BRANCH   7  13
HETATM   13  O2  UNK     1      18.564   7.037  34.468  1.00  0.00    -0.304 OA
BRANCH  13  14
HETATM   14  C12 UNK     1      18.623   6.252  33.351  1.00  0.00     0.076 A 
HETATM   15  C13 UNK     1      19.055   6.795  32.144  1.00  0.00     0.039 A 
HETATM   16  C15 UNK     1      19.113   5.993  31.004  1.00  0.00     0.026 A 
HETATM   17  C17 UNK     1      18.740   4.651  31.076  1.00  0.00     0.034 A 
HETATM   18  C16 UNK     1      18.309   4.111  32.287  1.00  0.00     0.026 A 
HETATM   19 Cl1  UNK     1      18.812   3.662  29.669  1.00  0.00    -0.084 Cl
HETATM   20  C14 UNK     1      18.251   4.913  33.427  1.00  0.00     0.039 A 
ENDBRANCH  13  14
ENDBRANCH   7  13
BRANCH   8  21
HETATM   21  C11 UNK     1      15.670   7.307  34.281  1.00  0.00     0.442 C 
HETATM   22  F1  UNK     1      15.961   6.456  35.288  1.00  0.00    -0.164 F 
HETATM   23  F2  UNK     1      14.411   7.755  34.473  1.00  0.00    -0.164 F 
HETATM   24  F3  UNK     1      15.688   6.605  33.130  1.00  0.00    -0.164 F 
ENDBRANCH   8  21
BRANCH  10  25
HETATM   25  O3  UNK     1      16.256  14.411  33.708  1.00  0.00    -0.360 OA
HETATM   26  H8  UNK     1      16.406  14.941  34.509  1.00  0.00     0.217 HD
ENDBRANCH  10  25
TORSDOF 4
ENDMDL
