MODEL 1
REMARK VINA RESULT:     -10.5      0.000      0.000
REMARK  5 active torsions:
REMARK  status: ('A' for Active; 'I' for Inactive)
REMARK    1  A    between atoms: C15_21  and  O3_3 
REMARK    2  A    between atoms: C17_23  and  O3_3 
REMARK    3  A    between atoms: C14_20  and  O4_4 
REMARK    4  A    between atoms: C6_12  and  C7_13 
REMARK    5  A    between atoms: C17_23  and  C18_24 
ROOT
HETATM    1  C7  UNK     1      18.977   5.487  32.277  1.00  0.00    -0.032 A 
HETATM    2  C10 UNK     1      18.473   4.441  33.030  1.00  0.00     0.051 A 
HETATM    3  C11 UNK     1      19.022   5.430  30.894  1.00  0.00     0.014 A 
HETATM    4  C14 UNK     1      17.999   3.302  32.380  1.00  0.00     0.102 A 
HETATM    5  C15 UNK     1      18.035   3.226  30.988  1.00  0.00     0.113 A 
HETATM    6  C16 UNK     1      18.547   4.290  30.245  1.00  0.00     0.041 A 
ENDROOT
BRANCH   1   7
HETATM    7  C6  UNK     1      19.479   6.694  32.964  1.00  0.00     0.031 C 
HETATM    8  C1  UNK     1      18.764   7.780  33.256  1.00  0.00     0.067 A 
HETATM    9  C4  UNK     1      19.291   8.984  33.949  1.00  0.00     0.197 A 
HETATM   10  C5  UNK     1      17.325   7.965  32.938  1.00  0.00     0.197 A 
HETATM   11  C2  UNK     1      18.135   9.889  34.036  1.00  0.00     0.029 A 
HETATM   12  O1  UNK     1      20.413   9.188  34.355  1.00  0.00    -0.286 OA
HETATM   13  C3  UNK     1      17.006   9.303  33.455  1.00  0.00     0.029 A 
HETATM   14  C8  UNK     1      18.091  11.152  34.596  1.00  0.00     0.016 A 
HETATM   15  C9  UNK     1      15.791   9.959  33.415  1.00  0.00     0.016 A 
HETATM   16  C13 UNK     1      15.729  11.237  33.977  1.00  0.00     0.001 A 
HETATM   17  C12 UNK     1      16.868  11.827  34.561  1.00  0.00     0.001 A 
HETATM   18  O2  UNK     1      16.574   7.196  32.381  1.00  0.00    -0.286 OA
ENDBRANCH   1   7
BRANCH   4  19
HETATM   19  O4  UNK     1      17.502   2.268  33.116  1.00  0.00    -0.353 OA
HETATM   20  C19 UNK     1      18.261   1.859  34.253  1.00  0.00     0.210 C 
ENDBRANCH   4  19
BRANCH   5  21
HETATM   21  O3  UNK     1      17.575   2.119  30.343  1.00  0.00    -0.271 OA
BRANCH  21  22
HETATM   22  C17 UNK     1      18.255   1.794  29.151  1.00  0.00     0.322 C 
HETATM   23  O6  UNK     1      18.024   2.340  28.075  1.00  0.00    -0.257 OA
BRANCH  22  24
HETATM   24  C18 UNK     1      19.252   0.743  29.359  1.00  0.00     0.150 A 
HETATM   25  O5  UNK     1      19.509  -0.050  28.310  1.00  0.00    -0.317 OA
HETATM   26  C22 UNK     1      20.450  -0.925  28.751  1.00  0.00     0.143 A 
HETATM   27  C21 UNK     1      20.768  -0.671  30.065  1.00  0.00     0.027 A 
HETATM   28  C20 UNK     1      19.973   0.431  30.456  1.00  0.00     0.045 A 
ENDBRANCH  22  24
ENDBRANCH  21  22
ENDBRANCH   5  21
TORSDOF 5
ENDMDL
MODEL 2
REMARK VINA RESULT:      -9.3      6.908     11.915
REMARK  5 active torsions:
REMARK  status: ('A' for Active; 'I' for Inactive)
REMARK    1  A    between atoms: C15_21  and  O3_3 
REMARK    2  A    between atoms: C17_23  and  O3_3 
REMARK    3  A    between atoms: C14_20  and  O4_4 
REMARK    4  A    between atoms: C6_12  and  C7_13 
REMARK    5  A    between atoms: C17_23  and  C18_24 
ROOT
HETATM    1  C7  UNK     1      20.078  -2.716  36.360  1.00  0.00    -0.032 A 
HETATM    2  C10 UNK     1      19.031  -2.049  36.971  1.00  0.00     0.051 A 
HETATM    3  C11 UNK     1      20.349  -2.559  35.011  1.00  0.00     0.014 A 
HETATM    4  C14 UNK     1      18.230  -1.198  36.210  1.00  0.00     0.102 A 
HETATM    5  C15 UNK     1      18.488  -1.027  34.850  1.00  0.00     0.113 A 
HETATM    6  C16 UNK     1      19.548  -1.708  34.250  1.00  0.00     0.041 A 
ENDROOT
BRANCH   1   7
HETATM    7  C6  UNK     1      20.927  -3.616  37.165  1.00  0.00     0.031 C 
HETATM    8  C1  UNK     1      20.642  -4.877  37.487  1.00  0.00     0.067 A 
HETATM    9  C4  UNK     1      21.513  -5.766  38.300  1.00  0.00     0.197 A 
HETATM   10  C5  UNK     1      19.409  -5.602  37.088  1.00  0.00     0.197 A 
HETATM   11  C2  UNK     1      20.772  -7.033  38.375  1.00  0.00     0.029 A 
HETATM   12  O1  UNK     1      22.590  -5.516  38.794  1.00  0.00    -0.286 OA
HETATM   13  C3  UNK     1      19.563  -6.939  37.678  1.00  0.00     0.029 A 
HETATM   14  C8  UNK     1      21.148  -8.195  39.021  1.00  0.00     0.016 A 
HETATM   15  C9  UNK     1      18.687  -8.005  37.601  1.00  0.00     0.016 A 
HETATM   16  C13 UNK     1      19.053  -9.188  38.249  1.00  0.00     0.001 A 
HETATM   17  C12 UNK     1      20.271  -9.282  38.952  1.00  0.00     0.001 A 
HETATM   18  O2  UNK     1      18.480  -5.196  36.425  1.00  0.00    -0.286 OA
ENDBRANCH   1   7
BRANCH   4  19
HETATM   19  O4  UNK     1      17.196  -0.538  36.805  1.00  0.00    -0.353 OA
HETATM   20  C19 UNK     1      17.534   0.480  37.746  1.00  0.00     0.210 C 
ENDBRANCH   4  19
BRANCH   5  21
HETATM   21  O3  UNK     1      17.712  -0.198  34.097  1.00  0.00    -0.271 OA
BRANCH  21  22
HETATM   22  C17 UNK     1      18.256   1.082  33.862  1.00  0.00     0.322 C 
HETATM   23  O6  UNK     1      18.510   1.879  34.760  1.00  0.00    -0.257 OA
BRANCH  22  24
HETATM   24  C18 UNK     1      18.473   1.329  32.436  1.00  0.00     0.150 A 
HETATM   25  O5  UNK     1      17.904   2.432  31.930  1.00  0.00    -0.317 OA
HETATM   26  C22 UNK     1      18.247   2.436  30.616  1.00  0.00     0.143 A 
HETATM   27  C21 UNK     1      19.023   1.341  30.316  1.00  0.00     0.027 A 
HETATM   28  C20 UNK     1      19.166   0.618  31.523  1.00  0.00     0.045 A 
ENDBRANCH  22  24
ENDBRANCH  21  22
ENDBRANCH   5  21
TORSDOF 5
ENDMDL
MODEL 3
REMARK VINA RESULT:      -9.0      6.916     12.008
REMARK  5 active torsions:
REMARK  status: ('A' for Active; 'I' for Inactive)
REMARK    1  A    between atoms: C15_21  and  O3_3 
REMARK    2  A    between atoms: C17_23  and  O3_3 
REMARK    3  A    between atoms: C14_20  and  O4_4 
REMARK    4  A    between atoms: C6_12  and  C7_13 
REMARK    5  A    between atoms: C17_23  and  C18_24 
ROOT
HETATM    1  C7  UNK     1      20.118  -2.756  36.328  1.00  0.00    -0.032 A 
HETATM    2  C10 UNK     1      20.367  -2.665  34.969  1.00  0.00     0.051 A 
HETATM    3  C11 UNK     1      19.098  -2.038  36.928  1.00  0.00     0.014 A 
HETATM    4  C14 UNK     1      19.571  -1.829  34.186  1.00  0.00     0.102 A 
HETATM    5  C15 UNK     1      18.538  -1.098  34.773  1.00  0.00     0.113 A 
HETATM    6  C16 UNK     1      18.302  -1.202  36.144  1.00  0.00     0.041 A 
ENDROOT
BRANCH   1   7
HETATM    7  C6  UNK     1      20.960  -3.641  37.157  1.00  0.00     0.031 C 
HETATM    8  C1  UNK     1      20.671  -4.895  37.502  1.00  0.00     0.067 A 
HETATM    9  C4  UNK     1      21.534  -5.769  38.339  1.00  0.00     0.197 A 
HETATM   10  C5  UNK     1      19.439  -5.626  37.108  1.00  0.00     0.197 A 
HETATM   11  C2  UNK     1      20.790  -7.033  38.433  1.00  0.00     0.029 A 
HETATM   12  O1  UNK     1      22.607  -5.511  38.835  1.00  0.00    -0.286 OA
HETATM   13  C3  UNK     1      19.587  -6.951  37.726  1.00  0.00     0.029 A 
HETATM   14  C8  UNK     1      21.160  -8.183  39.105  1.00  0.00     0.016 A 
HETATM   15  C9  UNK     1      18.710  -8.017  37.663  1.00  0.00     0.016 A 
HETATM   16  C13 UNK     1      19.069  -9.187  38.337  1.00  0.00     0.001 A 
HETATM   17  C12 UNK     1      20.282  -9.269  39.051  1.00  0.00     0.001 A 
HETATM   18  O2  UNK     1      18.516  -5.232  36.430  1.00  0.00    -0.286 OA
ENDBRANCH   1   7
BRANCH   4  19
HETATM   19  O4  UNK     1      19.812  -1.734  32.849  1.00  0.00    -0.353 OA
HETATM   20  C19 UNK     1      20.930  -2.459  32.338  1.00  0.00     0.210 C 
ENDBRANCH   4  19
BRANCH   5  21
HETATM   21  O3  UNK     1      17.755  -0.278  34.018  1.00  0.00    -0.271 OA
BRANCH  21  22
HETATM   22  C17 UNK     1      18.162   1.071  33.982  1.00  0.00     0.322 C 
HETATM   23  O6  UNK     1      18.326   1.752  34.990  1.00  0.00    -0.257 OA
BRANCH  22  24
HETATM   24  C18 UNK     1      18.359   1.545  32.610  1.00  0.00     0.150 A 
HETATM   25  O5  UNK     1      17.801   2.723  32.302  1.00  0.00    -0.317 OA
HETATM   26  C22 UNK     1      18.123   2.937  30.999  1.00  0.00     0.143 A 
HETATM   27  C21 UNK     1      18.875   1.894  30.510  1.00  0.00     0.027 A 
HETATM   28  C20 UNK     1      19.026   0.982  31.581  1.00  0.00     0.045 A 
ENDBRANCH  22  24
ENDBRANCH  21  22
ENDBRANCH   5  21
TORSDOF 5
ENDMDL
MODEL 4
REMARK VINA RESULT:      -8.9      8.512     11.694
REMARK  5 active torsions:
REMARK  status: ('A' for Active; 'I' for Inactive)
REMARK    1  A    between atoms: C15_21  and  O3_3 
REMARK    2  A    between atoms: C17_23  and  O3_3 
REMARK    3  A    between atoms: C14_20  and  O4_4 
REMARK    4  A    between atoms: C6_12  and  C7_13 
REMARK    5  A    between atoms: C17_23  and  C18_24 
ROOT
HETATM    1  C7  UNK     1      20.127  -4.509  36.550  1.00  0.00    -0.032 A 
HETATM    2  C10 UNK     1      19.222  -5.556  36.563  1.00  0.00     0.051 A 
HETATM    3  C11 UNK     1      21.193  -4.460  37.433  1.00  0.00     0.014 A 
HETATM    4  C14 UNK     1      19.388  -6.587  37.488  1.00  0.00     0.102 A 
HETATM    5  C15 UNK     1      20.455  -6.555  38.385  1.00  0.00     0.113 A 
HETATM    6  C16 UNK     1      21.358  -5.491  38.358  1.00  0.00     0.041 A 
ENDROOT
BRANCH   1   7
HETATM    7  C6  UNK     1      19.954  -3.419  35.570  1.00  0.00     0.031 C 
HETATM    8  C1  UNK     1      19.382  -2.239  35.808  1.00  0.00     0.067 A 
HETATM    9  C4  UNK     1      19.218  -1.155  34.805  1.00  0.00     0.197 A 
HETATM   10  C5  UNK     1      18.816  -1.813  37.113  1.00  0.00     0.197 A 
HETATM   11  C2  UNK     1      18.543  -0.076  35.541  1.00  0.00     0.029 A 
HETATM   12  O1  UNK     1      19.558  -1.148  33.643  1.00  0.00    -0.286 OA
HETATM   13  C3  UNK     1      18.312  -0.455  36.867  1.00  0.00     0.029 A 
HETATM   14  C8  UNK     1      18.158   1.162  35.062  1.00  0.00     0.016 A 
HETATM   15  C9  UNK     1      17.690   0.393  37.764  1.00  0.00     0.016 A 
HETATM   16  C13 UNK     1      17.295   1.649  37.295  1.00  0.00     0.001 A 
HETATM   17  C12 UNK     1      17.527   2.029  35.958  1.00  0.00     0.001 A 
HETATM   18  O2  UNK     1      18.774  -2.434  38.152  1.00  0.00    -0.286 OA
ENDBRANCH   1   7
BRANCH   4  19
HETATM   19  O4  UNK     1      18.499  -7.620  37.507  1.00  0.00    -0.353 OA
HETATM   20  C19 UNK     1      18.342  -8.361  36.298  1.00  0.00     0.210 C 
ENDBRANCH   4  19
BRANCH   5  21
HETATM   21  O3  UNK     1      20.626  -7.555  39.293  1.00  0.00    -0.271 OA
BRANCH  21  22
HETATM   22  C17 UNK     1      21.814  -8.301  39.146  1.00  0.00     0.322 C 
HETATM   23  O6  UNK     1      22.744  -8.247  39.946  1.00  0.00    -0.257 OA
BRANCH  22  24
HETATM   24  C18 UNK     1      21.793  -9.129  37.940  1.00  0.00     0.150 A 
HETATM   25  O5  UNK     1      20.953 -10.174  37.949  1.00  0.00    -0.317 OA
HETATM   26  C22 UNK     1      21.117 -10.770  36.740  1.00  0.00     0.143 A 
HETATM   27  C21 UNK     1      22.054 -10.096  35.991  1.00  0.00     0.027 A 
HETATM   28  C20 UNK     1      22.492  -9.015  36.791  1.00  0.00     0.045 A 
ENDBRANCH  22  24
ENDBRANCH  21  22
ENDBRANCH   5  21
TORSDOF 5
ENDMDL
MODEL 5
REMARK VINA RESULT:      -8.9      7.006     12.245
REMARK  5 active torsions:
REMARK  status: ('A' for Active; 'I' for Inactive)
REMARK    1  A    between atoms: C15_21  and  O3_3 
REMARK    2  A    between atoms: C17_23  and  O3_3 
REMARK    3  A    between atoms: C14_20  and  O4_4 
REMARK    4  A    between atoms: C6_12  and  C7_13 
REMARK    5  A    between atoms: C17_23  and  C18_24 
ROOT
HETATM    1  C7  UNK     1      19.923  -2.842  36.280  1.00  0.00    -0.032 A 
HETATM    2  C10 UNK     1      20.200  -2.510  34.965  1.00  0.00     0.051 A 
HETATM    3  C11 UNK     1      18.726  -2.489  36.881  1.00  0.00     0.014 A 
HETATM    4  C14 UNK     1      19.250  -1.804  34.228  1.00  0.00     0.102 A 
HETATM    5  C15 UNK     1      18.039  -1.440  34.816  1.00  0.00     0.113 A 
HETATM    6  C16 UNK     1      17.777  -1.782  36.143  1.00  0.00     0.041 A 
ENDROOT
BRANCH   1   7
HETATM    7  C6  UNK     1      20.927  -3.592  37.061  1.00  0.00     0.031 C 
HETATM    8  C1  UNK     1      20.798  -4.841  37.504  1.00  0.00     0.067 A 
HETATM    9  C4  UNK     1      21.823  -5.576  38.289  1.00  0.00     0.197 A 
HETATM   10  C5  UNK     1      19.610  -5.705  37.286  1.00  0.00     0.197 A 
HETATM   11  C2  UNK     1      21.220  -6.895  38.533  1.00  0.00     0.029 A 
HETATM   12  O1  UNK     1      22.912  -5.190  38.652  1.00  0.00    -0.286 OA
HETATM   13  C3  UNK     1      19.948  -6.968  37.957  1.00  0.00     0.029 A 
HETATM   14  C8  UNK     1      21.766  -7.959  39.224  1.00  0.00     0.016 A 
HETATM   15  C9  UNK     1      19.177  -8.111  38.049  1.00  0.00     0.016 A 
HETATM   16  C13 UNK     1      19.716  -9.198  38.743  1.00  0.00     0.001 A 
HETATM   17  C12 UNK     1      20.997  -9.123  39.325  1.00  0.00     0.001 A 
HETATM   18  O2  UNK     1      18.588  -5.441  36.692  1.00  0.00    -0.286 OA
ENDBRANCH   1   7
BRANCH   4  19
HETATM   19  O4  UNK     1      19.517  -1.473  32.933  1.00  0.00    -0.353 OA
HETATM   20  C19 UNK     1      20.548  -2.208  32.276  1.00  0.00     0.210 C 
ENDBRANCH   4  19
BRANCH   5  21
HETATM   21  O3  UNK     1      17.105  -0.749  34.106  1.00  0.00    -0.271 OA
BRANCH  21  22
HETATM   22  C17 UNK     1      16.574   0.384  34.758  1.00  0.00     0.322 C 
HETATM   23  O6  UNK     1      15.498   0.376  35.350  1.00  0.00    -0.257 OA
BRANCH  22  24
HETATM   24  C18 UNK     1      17.455   1.546  34.638  1.00  0.00     0.150 A 
HETATM   25  O5  UNK     1      17.504   2.134  33.435  1.00  0.00    -0.317 OA
HETATM   26  C22 UNK     1      18.374   3.167  33.581  1.00  0.00     0.143 A 
HETATM   27  C21 UNK     1      18.857   3.214  34.869  1.00  0.00     0.027 A 
HETATM   28  C20 UNK     1      18.244   2.141  35.557  1.00  0.00     0.045 A 
ENDBRANCH  22  24
ENDBRANCH  21  22
ENDBRANCH   5  21
TORSDOF 5
ENDMDL
MODEL 6
REMARK VINA RESULT:      -8.9      1.233      2.277
REMARK  5 active torsions:
REMARK  status: ('A' for Active; 'I' for Inactive)
REMARK    1  A    between atoms: C15_21  and  O3_3 
REMARK    2  A    between atoms: C17_23  and  O3_3 
REMARK    3  A    between atoms: C14_20  and  O4_4 
REMARK    4  A    between atoms: C6_12  and  C7_13 
REMARK    5  A    between atoms: C17_23  and  C18_24 
ROOT
HETATM    1  C7  UNK     1      18.794   5.365  32.743  1.00  0.00    -0.032 A 
HETATM    2  C10 UNK     1      19.009   5.104  31.401  1.00  0.00     0.051 A 
HETATM    3  C11 UNK     1      18.368   4.378  33.615  1.00  0.00     0.014 A 
HETATM    4  C14 UNK     1      18.790   3.815  30.915  1.00  0.00     0.102 A 
HETATM    5  C15 UNK     1      18.360   2.808  31.779  1.00  0.00     0.113 A 
HETATM    6  C16 UNK     1      18.149   3.089  33.129  1.00  0.00     0.041 A 
ENDROOT
BRANCH   1   7
HETATM    7  C6  UNK     1      19.027   6.729  33.258  1.00  0.00     0.031 C 
HETATM    8  C1  UNK     1      18.115   7.696  33.349  1.00  0.00     0.067 A 
HETATM    9  C4  UNK     1      18.372   9.063  33.871  1.00  0.00     0.197 A 
HETATM   10  C5  UNK     1      16.692   7.567  32.943  1.00  0.00     0.197 A 
HETATM   11  C2  UNK     1      17.073   9.744  33.768  1.00  0.00     0.029 A 
HETATM   12  O1  UNK     1      19.411   9.525  34.290  1.00  0.00    -0.286 OA
HETATM   13  C3  UNK     1      16.108   8.883  33.235  1.00  0.00     0.029 A 
HETATM   14  C8  UNK     1      16.769  11.043  34.124  1.00  0.00     0.016 A 
HETATM   15  C9  UNK     1      14.802   9.292  33.041  1.00  0.00     0.016 A 
HETATM   16  C13 UNK     1      14.478  10.604  33.397  1.00  0.00     0.001 A 
HETATM   17  C12 UNK     1      15.452  11.471  33.933  1.00  0.00     0.001 A 
HETATM   18  O2  UNK     1      16.128   6.601  32.478  1.00  0.00    -0.286 OA
ENDBRANCH   1   7
BRANCH   4  19
HETATM   19  O4  UNK     1      18.997   3.552  29.594  1.00  0.00    -0.353 OA
HETATM   20  C19 UNK     1      17.960   2.860  28.901  1.00  0.00     0.210 C 
ENDBRANCH   4  19
BRANCH   5  21
HETATM   21  O3  UNK     1      18.142   1.546  31.315  1.00  0.00    -0.271 OA
BRANCH  21  22
HETATM   22  C17 UNK     1      18.980   0.553  31.865  1.00  0.00     0.322 C 
HETATM   23  O6  UNK     1      19.092   0.362  33.073  1.00  0.00    -0.257 OA
BRANCH  22  24
HETATM   24  C18 UNK     1      19.684  -0.203  30.828  1.00  0.00     0.150 A 
HETATM   25  O5  UNK     1      19.804  -1.522  31.032  1.00  0.00    -0.317 OA
HETATM   26  C22 UNK     1      20.481  -1.987  29.949  1.00  0.00     0.143 A 
HETATM   27  C21 UNK     1      20.775  -0.958  29.085  1.00  0.00     0.027 A 
HETATM   28  C20 UNK     1      20.244   0.214  29.674  1.00  0.00     0.045 A 
ENDBRANCH  22  24
ENDBRANCH  21  22
ENDBRANCH   5  21
TORSDOF 5
ENDMDL
MODEL 7
REMARK VINA RESULT:      -8.8     22.398     24.190
REMARK  5 active torsions:
REMARK  status: ('A' for Active; 'I' for Inactive)
REMARK    1  A    between atoms: C15_21  and  O3_3 
REMARK    2  A    between atoms: C17_23  and  O3_3 
REMARK    3  A    between atoms: C14_20  and  O4_4 
REMARK    4  A    between atoms: C6_12  and  C7_13 
REMARK    5  A    between atoms: C17_23  and  C18_24 
ROOT
HETATM    1  C7  UNK     1      11.425   5.147   9.151  1.00  0.00    -0.032 A 
HETATM    2  C10 UNK     1      10.669   5.798   8.191  1.00  0.00     0.051 A 
HETATM    3  C11 UNK     1      10.833   4.463  10.200  1.00  0.00     0.014 A 
HETATM    4  C14 UNK     1       9.277   5.763   8.283  1.00  0.00     0.102 A 
HETATM    5  C15 UNK     1       8.664   5.078   9.332  1.00  0.00     0.113 A 
HETATM    6  C16 UNK     1       9.442   4.429  10.290  1.00  0.00     0.041 A 
ENDROOT
BRANCH   1   7
HETATM    7  C6  UNK     1      12.897   5.183   9.054  1.00  0.00     0.031 C 
HETATM    8  C1  UNK     1      13.680   6.198   9.418  1.00  0.00     0.067 A 
HETATM    9  C4  UNK     1      15.162   6.211   9.311  1.00  0.00     0.197 A 
HETATM   10  C5  UNK     1      13.200   7.482   9.990  1.00  0.00     0.197 A 
HETATM   11  C2  UNK     1      15.553   7.529   9.832  1.00  0.00     0.029 A 
HETATM   12  O1  UNK     1      15.893   5.342   8.893  1.00  0.00    -0.286 OA
HETATM   13  C3  UNK     1      14.426   8.259  10.222  1.00  0.00     0.029 A 
HETATM   14  C8  UNK     1      16.829   8.046   9.951  1.00  0.00     0.016 A 
HETATM   15  C9  UNK     1      14.534   9.532  10.747  1.00  0.00     0.016 A 
HETATM   16  C13 UNK     1      15.818  10.070  10.875  1.00  0.00     0.001 A 
HETATM   17  C12 UNK     1      16.954   9.334  10.480  1.00  0.00     0.001 A 
HETATM   18  O2  UNK     1      12.061   7.823  10.220  1.00  0.00    -0.286 OA
ENDBRANCH   1   7
BRANCH   4  19
HETATM   19  O4  UNK     1       8.527   6.402   7.341  1.00  0.00    -0.353 OA
HETATM   20  C19 UNK     1       9.082   6.505   6.031  1.00  0.00     0.210 C 
ENDBRANCH   4  19
BRANCH   5  21
HETATM   21  O3  UNK     1       7.306   5.038   9.431  1.00  0.00    -0.271 OA
BRANCH  21  22
HETATM   22  C17 UNK     1       6.739   3.748   9.376  1.00  0.00     0.322 C 
HETATM   23  O6  UNK     1       6.769   3.043   8.372  1.00  0.00    -0.257 OA
BRANCH  22  24
HETATM   24  C18 UNK     1       6.124   3.368  10.649  1.00  0.00     0.150 A 
HETATM   25  O5  UNK     1       6.014   4.335  11.569  1.00  0.00    -0.317 OA
HETATM   26  C22 UNK     1       5.422   3.741  12.638  1.00  0.00     0.143 A 
HETATM   27  C21 UNK     1       5.169   2.414  12.375  1.00  0.00     0.027 A 
HETATM   28  C20 UNK     1       5.636   2.179  11.060  1.00  0.00     0.045 A 
ENDBRANCH  22  24
ENDBRANCH  21  22
ENDBRANCH   5  21
TORSDOF 5
ENDMDL
MODEL 8
REMARK VINA RESULT:      -8.8      1.925      3.599
REMARK  5 active torsions:
REMARK  status: ('A' for Active; 'I' for Inactive)
REMARK    1  A    between atoms: C15_21  and  O3_3 
REMARK    2  A    between atoms: C17_23  and  O3_3 
REMARK    3  A    between atoms: C14_20  and  O4_4 
REMARK    4  A    between atoms: C6_12  and  C7_13 
REMARK    5  A    between atoms: C17_23  and  C18_24 
ROOT
HETATM    1  C7  UNK     1      19.056   4.986  33.758  1.00  0.00    -0.032 A 
HETATM    2  C10 UNK     1      18.584   4.553  32.531  1.00  0.00     0.051 A 
HETATM    3  C11 UNK     1      19.008   4.176  34.881  1.00  0.00     0.014 A 
HETATM    4  C14 UNK     1      18.047   3.271  32.423  1.00  0.00     0.102 A 
HETATM    5  C15 UNK     1      17.990   2.441  33.542  1.00  0.00     0.113 A 
HETATM    6  C16 UNK     1      18.471   2.893  34.771  1.00  0.00     0.041 A 
ENDROOT
BRANCH   1   7
HETATM    7  C6  UNK     1      19.626   6.343  33.874  1.00  0.00     0.031 C 
HETATM    8  C1  UNK     1      18.933   7.479  33.930  1.00  0.00     0.067 A 
HETATM    9  C4  UNK     1      19.528   8.835  34.046  1.00  0.00     0.197 A 
HETATM   10  C5  UNK     1      17.451   7.577  33.886  1.00  0.00     0.197 A 
HETATM   11  C2  UNK     1      18.370   9.741  34.070  1.00  0.00     0.029 A 
HETATM   12  O1  UNK     1      20.698   9.140  34.108  1.00  0.00    -0.286 OA
HETATM   13  C3  UNK     1      17.177   9.018  33.978  1.00  0.00     0.029 A 
HETATM   14  C8  UNK     1      18.378  11.119  34.168  1.00  0.00     0.016 A 
HETATM   15  C9  UNK     1      15.947   9.647  33.982  1.00  0.00     0.016 A 
HETATM   16  C13 UNK     1      15.937  11.041  34.081  1.00  0.00     0.001 A 
HETATM   17  C12 UNK     1      17.140  11.770  34.172  1.00  0.00     0.001 A 
HETATM   18  O2  UNK     1      16.641   6.681  33.796  1.00  0.00    -0.286 OA
ENDBRANCH   1   7
BRANCH   4  19
HETATM   19  O4  UNK     1      17.579   2.840  31.218  1.00  0.00    -0.353 OA
HETATM   20  C19 UNK     1      18.548   2.556  30.210  1.00  0.00     0.210 C 
ENDBRANCH   4  19
BRANCH   5  21
HETATM   21  O3  UNK     1      17.467   1.187  33.448  1.00  0.00    -0.271 OA
BRANCH  21  22
HETATM   22  C17 UNK     1      18.412   0.140  33.478  1.00  0.00     0.322 C 
HETATM   23  O6  UNK     1      19.207  -0.074  32.567  1.00  0.00    -0.257 OA
BRANCH  22  24
HETATM   24  C18 UNK     1      18.323  -0.641  34.713  1.00  0.00     0.150 A 
HETATM   25  O5  UNK     1      19.472  -1.144  35.184  1.00  0.00    -0.317 OA
HETATM   26  C22 UNK     1      19.128  -1.813  36.315  1.00  0.00     0.143 A 
HETATM   27  C21 UNK     1      17.773  -1.721  36.538  1.00  0.00     0.027 A 
HETATM   28  C20 UNK     1      17.252  -0.946  35.476  1.00  0.00     0.045 A 
ENDBRANCH  22  24
ENDBRANCH  21  22
ENDBRANCH   5  21
TORSDOF 5
ENDMDL
MODEL 9
REMARK VINA RESULT:      -8.7      2.023      9.045
REMARK  5 active torsions:
REMARK  status: ('A' for Active; 'I' for Inactive)
REMARK    1  A    between atoms: C15_21  and  O3_3 
REMARK    2  A    between atoms: C17_23  and  O3_3 
REMARK    3  A    between atoms: C14_20  and  O4_4 
REMARK    4  A    between atoms: C6_12  and  C7_13 
REMARK    5  A    between atoms: C17_23  and  C18_24 
ROOT
HETATM    1  C7  UNK     1      18.071   5.642  32.218  1.00  0.00    -0.032 A 
HETATM    2  C10 UNK     1      16.739   5.974  32.394  1.00  0.00     0.051 A 
HETATM    3  C11 UNK     1      19.082   6.331  32.867  1.00  0.00     0.014 A 
HETATM    4  C14 UNK     1      16.407   7.027  33.246  1.00  0.00     0.102 A 
HETATM    5  C15 UNK     1      17.411   7.732  33.908  1.00  0.00     0.113 A 
HETATM    6  C16 UNK     1      18.749   7.384  33.719  1.00  0.00     0.041 A 
ENDROOT
BRANCH   1   7
HETATM    7  C6  UNK     1      18.424   4.527  31.318  1.00  0.00     0.031 C 
HETATM    8  C1  UNK     1      18.518   3.244  31.663  1.00  0.00     0.067 A 
HETATM    9  C4  UNK     1      18.875   2.137  30.739  1.00  0.00     0.197 A 
HETATM   10  C5  UNK     1      18.284   2.709  33.029  1.00  0.00     0.197 A 
HETATM   11  C2  UNK     1      18.847   0.933  31.583  1.00  0.00     0.029 A 
HETATM   12  O1  UNK     1      19.133   2.197  29.557  1.00  0.00    -0.286 OA
HETATM   13  C3  UNK     1      18.507   1.262  32.899  1.00  0.00     0.029 A 
HETATM   14  C8  UNK     1      19.108  -0.370  31.205  1.00  0.00     0.016 A 
HETATM   15  C9  UNK     1      18.414   0.299  33.885  1.00  0.00     0.016 A 
HETATM   16  C13 UNK     1      18.673  -1.024  33.519  1.00  0.00     0.001 A 
HETATM   17  C12 UNK     1      19.017  -1.356  32.193  1.00  0.00     0.001 A 
HETATM   18  O2  UNK     1      17.976   3.316  34.031  1.00  0.00    -0.286 OA
ENDBRANCH   1   7
BRANCH   4  19
HETATM   19  O4  UNK     1      15.097   7.359  33.422  1.00  0.00    -0.353 OA
HETATM   20  C19 UNK     1      14.227   7.179  32.306  1.00  0.00     0.210 C 
ENDBRANCH   4  19
BRANCH   5  21
HETATM   21  O3  UNK     1      17.098   8.763  34.742  1.00  0.00    -0.271 OA
BRANCH  21  22
HETATM   22  C17 UNK     1      16.936  10.014  34.112  1.00  0.00     0.322 C 
HETATM   23  O6  UNK     1      17.820  10.555  33.454  1.00  0.00    -0.257 OA
BRANCH  22  24
HETATM   24  C18 UNK     1      15.603  10.572  34.342  1.00  0.00     0.150 A 
HETATM   25  O5  UNK     1      15.252  10.770  35.621  1.00  0.00    -0.317 OA
HETATM   26  C22 UNK     1      13.997  11.285  35.568  1.00  0.00     0.143 A 
HETATM   27  C21 UNK     1      13.578  11.405  34.263  1.00  0.00     0.027 A 
HETATM   28  C20 UNK     1      14.645  10.932  33.463  1.00  0.00     0.045 A 
ENDBRANCH  22  24
ENDBRANCH  21  22
ENDBRANCH   5  21
TORSDOF 5
ENDMDL
MODEL 10
REMARK VINA RESULT:      -8.7      7.779     11.527
REMARK  5 active torsions:
REMARK  status: ('A' for Active; 'I' for Inactive)
REMARK    1  A    between atoms: C15_21  and  O3_3 
REMARK    2  A    between atoms: C17_23  and  O3_3 
REMARK    3  A    between atoms: C14_20  and  O4_4 
REMARK    4  A    between atoms: C6_12  and  C7_13 
REMARK    5  A    between atoms: C17_23  and  C18_24 
ROOT
HETATM    1  C7  UNK     1      19.594  -3.643  36.707  1.00  0.00    -0.032 A 
HETATM    2  C10 UNK     1      18.863  -4.813  36.592  1.00  0.00     0.051 A 
HETATM    3  C11 UNK     1      20.800  -3.604  37.387  1.00  0.00     0.014 A 
HETATM    4  C14 UNK     1      19.355  -5.981  37.175  1.00  0.00     0.102 A 
HETATM    5  C15 UNK     1      20.568  -5.961  37.863  1.00  0.00     0.113 A 
HETATM    6  C16 UNK     1      21.291  -4.773  37.969  1.00  0.00     0.041 A 
ENDROOT
BRANCH   1   7
HETATM    7  C6  UNK     1      19.075  -2.406  36.090  1.00  0.00     0.031 C 
HETATM    8  C1  UNK     1      19.296  -2.006  34.839  1.00  0.00     0.067 A 
HETATM    9  C4  UNK     1      18.763  -0.755  34.238  1.00  0.00     0.197 A 
HETATM   10  C5  UNK     1      20.111  -2.742  33.839  1.00  0.00     0.197 A 
HETATM   11  C2  UNK     1      19.278  -0.764  32.862  1.00  0.00     0.029 A 
HETATM   12  O1  UNK     1      18.062   0.087  34.754  1.00  0.00    -0.286 OA
HETATM   13  C3  UNK     1      20.053  -1.905  32.632  1.00  0.00     0.029 A 
HETATM   14  C8  UNK     1      19.071   0.183  31.876  1.00  0.00     0.016 A 
HETATM   15  C9  UNK     1      20.648  -2.142  31.408  1.00  0.00     0.016 A 
HETATM   16  C13 UNK     1      20.447  -1.195  30.400  1.00  0.00     0.001 A 
HETATM   17  C12 UNK     1      19.668  -0.044  30.632  1.00  0.00     0.001 A 
HETATM   18  O2  UNK     1      20.696  -3.794  33.975  1.00  0.00    -0.286 OA
ENDBRANCH   1   7
BRANCH   4  19
HETATM   19  O4  UNK     1      18.641  -7.137  37.067  1.00  0.00    -0.353 OA
HETATM   20  C19 UNK     1      18.366  -7.607  35.748  1.00  0.00     0.210 C 
ENDBRANCH   4  19
BRANCH   5  21
HETATM   21  O3  UNK     1      21.057  -7.096  38.436  1.00  0.00    -0.271 OA
BRANCH  21  22
HETATM   22  C17 UNK     1      22.193  -7.644  37.804  1.00  0.00     0.322 C 
HETATM   23  O6  UNK     1      23.334  -7.236  38.001  1.00  0.00    -0.257 OA
BRANCH  22  24
HETATM   24  C18 UNK     1      21.840  -8.741  36.902  1.00  0.00     0.150 A 
HETATM   25  O5  UNK     1      21.925  -8.484  35.590  1.00  0.00    -0.317 OA
HETATM   26  C22 UNK     1      21.554  -9.638  34.978  1.00  0.00     0.143 A 
HETATM   27  C21 UNK     1      21.242 -10.600  35.910  1.00  0.00     0.027 A 
HETATM   28  C20 UNK     1      21.434  -9.999  37.175  1.00  0.00     0.045 A 
ENDBRANCH  22  24
ENDBRANCH  21  22
ENDBRANCH   5  21
TORSDOF 5
ENDMDL
