MODEL 1
REMARK VINA RESULT:     -10.4      0.000      0.000
REMARK  5 active torsions:
REMARK  status: ('A' for Active; 'I' for Inactive)
REMARK    1  A    between atoms: C5_11  and  N1_4 
REMARK    2  A    between atoms: C6_12  and  N2_5 
REMARK    3  A    between atoms: C5_11  and  C7_13 
REMARK    4  A    between atoms: C6_12  and  C8_14 
REMARK    5  A    between atoms: C14_20  and  C20_26 
ROOT
HETATM    1  N1  UNK     1      19.578  -3.259  35.892  1.00  0.00     0.096 N 
HETATM    2  N2  UNK     1      18.321  -0.790  35.065  1.00  0.00     0.097 N 
HETATM    3  C1  UNK     1      20.158  -2.426  34.832  1.00  0.00     0.303 C 
HETATM    4  C2  UNK     1      18.831  -2.428  36.845  1.00  0.00     0.303 C 
HETATM    5  C3  UNK     1      19.069  -1.620  34.113  1.00  0.00     0.303 C 
HETATM    6  C4  UNK     1      17.742  -1.622  36.127  1.00  0.00     0.303 C 
ENDROOT
BRANCH   2   7
HETATM    7  C6  UNK     1      17.281  -0.025  34.380  1.00  0.00     0.334 C 
BRANCH   7   8
HETATM    8  C8  UNK     1      17.759   1.375  34.166  1.00  0.00     0.095 A 
HETATM    9  C10 UNK     1      18.393   2.216  35.048  1.00  0.00     0.078 A 
HETATM   10  C16 UNK     1      18.830   2.115  36.445  1.00  0.00     0.079 C 
HETATM   11  O1  UNK     1      18.635   3.392  34.405  1.00  0.00    -0.294 OA
HETATM   12  C14 UNK     1      18.127   3.185  33.159  1.00  0.00     0.180 A 
HETATM   13  N3  UNK     1      17.592   2.002  32.958  1.00  0.00    -0.224 NA
BRANCH  12  14
HETATM   14  C20 UNK     1      18.254   4.294  32.255  1.00  0.00     0.018 A 
HETATM   15  C22 UNK     1      17.666   5.519  32.567  1.00  0.00     0.022 A 
HETATM   16  C24 UNK     1      17.791   6.596  31.689  1.00  0.00    -0.061 A 
HETATM   17  C26 UNK     1      18.502   6.446  30.498  1.00  0.00     0.007 A 
HETATM   18  C27 UNK     1      17.164   7.907  32.022  1.00  0.00     0.048 C 
HETATM   19  C25 UNK     1      19.089   5.220  30.186  1.00  0.00     0.002 A 
HETATM   20  C23 UNK     1      18.965   4.143  31.064  1.00  0.00     0.016 A 
ENDBRANCH  12  14
ENDBRANCH   7   8
ENDBRANCH   2   7
BRANCH   1  21
HETATM   21  C5  UNK     1      20.617  -4.026  36.576  1.00  0.00     0.312 C 
BRANCH  21  22
HETATM   22  C7  UNK     1      20.220  -5.445  36.790  1.00  0.00    -0.011 A 
HETATM   23  C11 UNK     1      19.212  -5.995  36.097  1.00  0.00     0.092 A 
HETATM   24  C15 UNK     1      18.784  -7.392  36.274  1.00  0.00     0.288 A 
HETATM   25  O2  UNK     1      19.480  -8.143  37.208  1.00  0.00    -0.275 OA
HETATM   26  O3  UNK     1      17.857  -7.862  35.621  1.00  0.00    -0.260 OA
HETATM   27  C12 UNK     1      20.543  -7.593  37.951  1.00  0.00     0.090 A 
HETATM   28  C9  UNK     1      20.938  -6.267  37.774  1.00  0.00     0.006 A 
HETATM   29  C17 UNK     1      21.172  -8.441  38.866  1.00  0.00     0.045 A 
HETATM   30  C13 UNK     1      22.003  -5.795  38.551  1.00  0.00     0.015 A 
HETATM   31  C18 UNK     1      22.644  -6.633  39.471  1.00  0.00     0.007 A 
HETATM   32  C19 UNK     1      22.227  -7.955  39.628  1.00  0.00    -0.059 A 
HETATM   33  C21 UNK     1      22.914  -8.843  40.610  1.00  0.00     0.048 C 
ENDBRANCH  21  22
ENDBRANCH   1  21
TORSDOF 5
ENDMDL
MODEL 2
REMARK VINA RESULT:     -10.2      4.050     12.401
REMARK  5 active torsions:
REMARK  status: ('A' for Active; 'I' for Inactive)
REMARK    1  A    between atoms: C5_11  and  N1_4 
REMARK    2  A    between atoms: C6_12  and  N2_5 
REMARK    3  A    between atoms: C5_11  and  C7_13 
REMARK    4  A    between atoms: C6_12  and  C8_14 
REMARK    5  A    between atoms: C14_20  and  C20_26 
ROOT
HETATM    1  N1  UNK     1      18.105   5.470  31.600  1.00  0.00     0.096 N 
HETATM    2  N2  UNK     1      18.971   2.834  30.786  1.00  0.00     0.097 N 
HETATM    3  C1  UNK     1      18.128   4.348  32.547  1.00  0.00     0.303 C 
HETATM    4  C2  UNK     1      19.137   5.291  30.571  1.00  0.00     0.303 C 
HETATM    5  C3  UNK     1      17.940   3.013  31.816  1.00  0.00     0.303 C 
HETATM    6  C4  UNK     1      18.952   3.956  29.840  1.00  0.00     0.303 C 
ENDROOT
BRANCH   2   7
HETATM    7  C6  UNK     1      18.790   1.562  30.088  1.00  0.00     0.334 C 
BRANCH   7   8
HETATM    8  C8  UNK     1      19.248   0.447  30.971  1.00  0.00     0.095 A 
HETATM    9  C10 UNK     1      20.091  -0.597  30.679  1.00  0.00     0.078 A 
HETATM   10  C16 UNK     1      20.835  -1.027  29.490  1.00  0.00     0.079 C 
HETATM   11  O1  UNK     1      20.213  -1.362  31.798  1.00  0.00    -0.294 OA
HETATM   12  C14 UNK     1      19.427  -0.725  32.708  1.00  0.00     0.180 A 
HETATM   13  N3  UNK     1      18.826   0.359  32.272  1.00  0.00    -0.224 NA
BRANCH  12  14
HETATM   14  C20 UNK     1      19.374  -1.337  34.007  1.00  0.00     0.018 A 
HETATM   15  C22 UNK     1      18.513  -0.834  34.982  1.00  0.00     0.022 A 
HETATM   16  C24 UNK     1      18.462  -1.429  36.242  1.00  0.00    -0.061 A 
HETATM   17  C26 UNK     1      19.273  -2.528  36.528  1.00  0.00     0.007 A 
HETATM   18  C27 UNK     1      17.540  -0.892  37.284  1.00  0.00     0.048 C 
HETATM   19  C25 UNK     1      20.135  -3.030  35.553  1.00  0.00     0.002 A 
HETATM   20  C23 UNK     1      20.186  -2.435  34.292  1.00  0.00     0.016 A 
ENDBRANCH  12  14
ENDBRANCH   7   8
ENDBRANCH   2   7
BRANCH   1  21
HETATM   21  C5  UNK     1      18.284   6.742  32.298  1.00  0.00     0.312 C 
BRANCH  21  22
HETATM   22  C7  UNK     1      16.991   7.446  32.523  1.00  0.00    -0.011 A 
HETATM   23  C11 UNK     1      15.826   6.891  32.157  1.00  0.00     0.092 A 
HETATM   24  C15 UNK     1      14.525   7.549  32.359  1.00  0.00     0.288 A 
HETATM   25  O2  UNK     1      14.545   8.798  32.960  1.00  0.00    -0.275 OA
HETATM   26  O3  UNK     1      13.479   7.011  32.011  1.00  0.00    -0.260 OA
HETATM   27  C12 UNK     1      15.753   9.406  33.356  1.00  0.00     0.090 A 
HETATM   28  C9  UNK     1      16.980   8.771  33.157  1.00  0.00     0.006 A 
HETATM   29  C17 UNK     1      15.654  10.666  33.950  1.00  0.00     0.045 A 
HETATM   30  C13 UNK     1      18.136   9.442  33.577  1.00  0.00     0.015 A 
HETATM   31  C18 UNK     1      18.052  10.705  34.175  1.00  0.00     0.007 A 
HETATM   32  C19 UNK     1      16.812  11.316  34.360  1.00  0.00    -0.059 A 
HETATM   33  C21 UNK     1      16.730  12.662  34.998  1.00  0.00     0.048 C 
ENDBRANCH  21  22
ENDBRANCH   1  21
TORSDOF 5
ENDMDL
MODEL 3
REMARK VINA RESULT:     -10.1      2.140      3.079
REMARK  5 active torsions:
REMARK  status: ('A' for Active; 'I' for Inactive)
REMARK    1  A    between atoms: C5_11  and  N1_4 
REMARK    2  A    between atoms: C6_12  and  N2_5 
REMARK    3  A    between atoms: C5_11  and  C7_13 
REMARK    4  A    between atoms: C6_12  and  C8_14 
REMARK    5  A    between atoms: C14_20  and  C20_26 
ROOT
HETATM    1  N1  UNK     1      19.854  -4.032  36.639  1.00  0.00     0.096 N 
HETATM    2  N2  UNK     1      18.797  -1.373  36.226  1.00  0.00     0.097 N 
HETATM    3  C1  UNK     1      18.540  -3.643  37.166  1.00  0.00     0.303 C 
HETATM    4  C2  UNK     1      20.162  -3.270  35.422  1.00  0.00     0.303 C 
HETATM    5  C3  UNK     1      18.488  -2.136  37.441  1.00  0.00     0.303 C 
HETATM    6  C4  UNK     1      20.109  -1.763  35.696  1.00  0.00     0.303 C 
ENDROOT
BRANCH   2   7
HETATM    7  C6  UNK     1      18.750   0.064  36.490  1.00  0.00     0.334 C 
BRANCH   7   8
HETATM    8  C8  UNK     1      18.168   0.764  35.304  1.00  0.00     0.095 A 
HETATM    9  C10 UNK     1      16.893   0.693  34.799  1.00  0.00     0.078 A 
HETATM   10  C16 UNK     1      15.670  -0.028  35.167  1.00  0.00     0.079 C 
HETATM   11  O1  UNK     1      16.830   1.505  33.707  1.00  0.00    -0.294 OA
HETATM   12  C14 UNK     1      18.087   2.022  33.621  1.00  0.00     0.180 A 
HETATM   13  N3  UNK     1      18.927   1.617  34.545  1.00  0.00    -0.224 NA
BRANCH  12  14
HETATM   14  C20 UNK     1      18.300   2.933  32.530  1.00  0.00     0.018 A 
HETATM   15  C22 UNK     1      18.257   4.309  32.752  1.00  0.00     0.022 A 
HETATM   16  C24 UNK     1      18.465   5.193  31.693  1.00  0.00    -0.061 A 
HETATM   17  C26 UNK     1      18.715   4.700  30.412  1.00  0.00     0.007 A 
HETATM   18  C27 UNK     1      18.420   6.665  31.929  1.00  0.00     0.048 C 
HETATM   19  C25 UNK     1      18.758   3.323  30.190  1.00  0.00     0.002 A 
HETATM   20  C23 UNK     1      18.550   2.439  31.250  1.00  0.00     0.016 A 
ENDBRANCH  12  14
ENDBRANCH   7   8
ENDBRANCH   2   7
BRANCH   1  21
HETATM   21  C5  UNK     1      19.902  -5.470  36.376  1.00  0.00     0.312 C 
BRANCH  21  22
HETATM   22  C7  UNK     1      21.057  -6.125  37.050  1.00  0.00    -0.011 A 
HETATM   23  C11 UNK     1      21.726  -5.510  38.036  1.00  0.00     0.092 A 
HETATM   24  C15 UNK     1      22.873  -6.118  38.730  1.00  0.00     0.288 A 
HETATM   25  O2  UNK     1      23.249  -7.386  38.319  1.00  0.00    -0.275 OA
HETATM   26  O3  UNK     1      23.460  -5.524  39.629  1.00  0.00    -0.260 OA
HETATM   27  C12 UNK     1      22.565  -8.059  37.286  1.00  0.00     0.090 A 
HETATM   28  C9  UNK     1      21.480  -7.470  36.635  1.00  0.00     0.006 A 
HETATM   29  C17 UNK     1      23.032  -9.332  36.953  1.00  0.00     0.045 A 
HETATM   30  C13 UNK     1      20.855  -8.202  35.618  1.00  0.00     0.015 A 
HETATM   31  C18 UNK     1      21.310  -9.480  35.274  1.00  0.00     0.007 A 
HETATM   32  C19 UNK     1      22.398 -10.044  35.941  1.00  0.00    -0.059 A 
HETATM   33  C21 UNK     1      22.879 -11.406  35.569  1.00  0.00     0.048 C 
ENDBRANCH  21  22
ENDBRANCH   1  21
TORSDOF 5
ENDMDL
MODEL 4
REMARK VINA RESULT:      -9.8      5.352     14.117
REMARK  5 active torsions:
REMARK  status: ('A' for Active; 'I' for Inactive)
REMARK    1  A    between atoms: C5_11  and  N1_4 
REMARK    2  A    between atoms: C6_12  and  N2_5 
REMARK    3  A    between atoms: C5_11  and  C7_13 
REMARK    4  A    between atoms: C6_12  and  C8_14 
REMARK    5  A    between atoms: C14_20  and  C20_26 
ROOT
HETATM    1  N1  UNK     1      16.545   8.535  33.833  1.00  0.00     0.096 N 
HETATM    2  N2  UNK     1      17.637   6.125  32.667  1.00  0.00     0.097 N 
HETATM    3  C1  UNK     1      15.703   7.358  33.586  1.00  0.00     0.303 C 
HETATM    4  C2  UNK     1      17.932   8.126  34.086  1.00  0.00     0.303 C 
HETATM    5  C3  UNK     1      16.249   6.532  32.415  1.00  0.00     0.303 C 
HETATM    6  C4  UNK     1      18.480   7.300  32.917  1.00  0.00     0.303 C 
ENDROOT
BRANCH   2   7
HETATM    7  C6  UNK     1      18.158   5.340  31.549  1.00  0.00     0.334 C 
BRANCH   7   8
HETATM    8  C8  UNK     1      18.209   3.899  31.941  1.00  0.00     0.095 A 
HETATM    9  C10 UNK     1      18.370   2.792  31.144  1.00  0.00     0.078 A 
HETATM   10  C16 UNK     1      18.545   2.566  29.706  1.00  0.00     0.079 C 
HETATM   11  O1  UNK     1      18.351   1.692  31.948  1.00  0.00    -0.294 OA
HETATM   12  C14 UNK     1      18.179   2.210  33.194  1.00  0.00     0.180 A 
HETATM   13  N3  UNK     1      18.087   3.519  33.253  1.00  0.00    -0.224 NA
BRANCH  12  14
HETATM   14  C20 UNK     1      18.123   1.244  34.256  1.00  0.00     0.018 A 
HETATM   15  C22 UNK     1      17.892   1.660  35.567  1.00  0.00     0.022 A 
HETATM   16  C24 UNK     1      17.837   0.722  36.597  1.00  0.00    -0.061 A 
HETATM   17  C26 UNK     1      18.014  -0.633  36.317  1.00  0.00     0.007 A 
HETATM   18  C27 UNK     1      17.588   1.166  37.999  1.00  0.00     0.048 C 
HETATM   19  C25 UNK     1      18.246  -1.049  35.006  1.00  0.00     0.002 A 
HETATM   20  C23 UNK     1      18.301  -0.110  33.975  1.00  0.00     0.016 A 
ENDBRANCH  12  14
ENDBRANCH   7   8
ENDBRANCH   2   7
BRANCH   1  21
HETATM   21  C5  UNK     1      16.023   9.321  34.949  1.00  0.00     0.312 C 
BRANCH  21  22
HETATM   22  C7  UNK     1      15.332  10.558  34.491  1.00  0.00    -0.011 A 
HETATM   23  C11 UNK     1      13.997  10.602  34.368  1.00  0.00     0.092 A 
HETATM   24  C15 UNK     1      13.271  11.801  33.920  1.00  0.00     0.288 A 
HETATM   25  O2  UNK     1      14.036  12.917  33.621  1.00  0.00    -0.275 OA
HETATM   26  O3  UNK     1      12.049  11.804  33.819  1.00  0.00    -0.260 OA
HETATM   27  C12 UNK     1      15.440  12.902  33.742  1.00  0.00     0.090 A 
HETATM   28  C9  UNK     1      16.116  11.758  34.167  1.00  0.00     0.006 A 
HETATM   29  C17 UNK     1      16.109  14.083  33.413  1.00  0.00     0.045 A 
HETATM   30  C13 UNK     1      17.512  11.823  34.260  1.00  0.00     0.015 A 
HETATM   31  C18 UNK     1      18.196  13.000  33.935  1.00  0.00     0.007 A 
HETATM   32  C19 UNK     1      17.495  14.129  33.512  1.00  0.00    -0.059 A 
HETATM   33  C21 UNK     1      18.229  15.380  33.167  1.00  0.00     0.048 C 
ENDBRANCH  21  22
ENDBRANCH   1  21
TORSDOF 5
ENDMDL
MODEL 5
REMARK VINA RESULT:      -9.7      1.701      2.935
REMARK  5 active torsions:
REMARK  status: ('A' for Active; 'I' for Inactive)
REMARK    1  A    between atoms: C5_11  and  N1_4 
REMARK    2  A    between atoms: C6_12  and  N2_5 
REMARK    3  A    between atoms: C5_11  and  C7_13 
REMARK    4  A    between atoms: C6_12  and  C8_14 
REMARK    5  A    between atoms: C14_20  and  C20_26 
ROOT
HETATM    1  N1  UNK     1      19.547  -3.610  36.652  1.00  0.00     0.096 N 
HETATM    2  N2  UNK     1      18.731  -0.891  36.101  1.00  0.00     0.097 N 
HETATM    3  C1  UNK     1      18.158  -3.176  36.847  1.00  0.00     0.303 C 
HETATM    4  C2  UNK     1      20.183  -2.824  35.587  1.00  0.00     0.303 C 
HETATM    5  C3  UNK     1      18.094  -1.678  37.165  1.00  0.00     0.303 C 
HETATM    6  C4  UNK     1      20.119  -1.326  35.903  1.00  0.00     0.303 C 
ENDROOT
BRANCH   2   7
HETATM    7  C6  UNK     1      18.672   0.537  36.406  1.00  0.00     0.334 C 
BRANCH   7   8
HETATM    8  C8  UNK     1      18.421   1.300  35.146  1.00  0.00     0.095 A 
HETATM    9  C10 UNK     1      18.038   0.831  33.913  1.00  0.00     0.078 A 
HETATM   10  C16 UNK     1      17.739  -0.492  33.354  1.00  0.00     0.079 C 
HETATM   11  O1  UNK     1      17.936   1.898  33.073  1.00  0.00    -0.294 OA
HETATM   12  C14 UNK     1      18.266   2.958  33.861  1.00  0.00     0.180 A 
HETATM   13  N3  UNK     1      18.566   2.663  35.105  1.00  0.00    -0.224 NA
BRANCH  12  14
HETATM   14  C20 UNK     1      18.238   4.238  33.208  1.00  0.00     0.018 A 
HETATM   15  C22 UNK     1      18.666   4.356  31.886  1.00  0.00     0.022 A 
HETATM   16  C24 UNK     1      18.637   5.599  31.253  1.00  0.00    -0.061 A 
HETATM   17  C26 UNK     1      18.180   6.722  31.942  1.00  0.00     0.007 A 
HETATM   18  C27 UNK     1      19.093   5.726  29.839  1.00  0.00     0.048 C 
HETATM   19  C25 UNK     1      17.753   6.604  33.264  1.00  0.00     0.002 A 
HETATM   20  C23 UNK     1      17.782   5.361  33.898  1.00  0.00     0.016 A 
ENDBRANCH  12  14
ENDBRANCH   7   8
ENDBRANCH   2   7
BRANCH   1  21
HETATM   21  C5  UNK     1      19.607  -5.038  36.348  1.00  0.00     0.312 C 
BRANCH  21  22
HETATM   22  C7  UNK     1      20.510  -5.773  37.277  1.00  0.00    -0.011 A 
HETATM   23  C11 UNK     1      21.646  -5.218  37.723  1.00  0.00     0.092 A 
HETATM   24  C15 UNK     1      22.569  -5.905  38.641  1.00  0.00     0.288 A 
HETATM   25  O2  UNK     1      22.212  -7.183  39.043  1.00  0.00    -0.275 OA
HETATM   26  O3  UNK     1      23.601  -5.366  39.028  1.00  0.00    -0.260 OA
HETATM   27  C12 UNK     1      21.024  -7.792  38.592  1.00  0.00     0.090 A 
HETATM   28  C9  UNK     1      20.158  -7.129  37.721  1.00  0.00     0.006 A 
HETATM   29  C17 UNK     1      20.765  -9.082  39.060  1.00  0.00     0.045 A 
HETATM   30  C13 UNK     1      18.998  -7.802  37.318  1.00  0.00     0.015 A 
HETATM   31  C18 UNK     1      18.725  -9.095  37.780  1.00  0.00     0.007 A 
HETATM   32  C19 UNK     1      19.608  -9.734  38.650  1.00  0.00    -0.059 A 
HETATM   33  C21 UNK     1      19.312 -11.111  39.138  1.00  0.00     0.048 C 
ENDBRANCH  21  22
ENDBRANCH   1  21
TORSDOF 5
ENDMDL
MODEL 6
REMARK VINA RESULT:      -9.6      5.383     14.354
REMARK  5 active torsions:
REMARK  status: ('A' for Active; 'I' for Inactive)
REMARK    1  A    between atoms: C5_11  and  N1_4 
REMARK    2  A    between atoms: C6_12  and  N2_5 
REMARK    3  A    between atoms: C5_11  and  C7_13 
REMARK    4  A    between atoms: C6_12  and  C8_14 
REMARK    5  A    between atoms: C14_20  and  C20_26 
ROOT
HETATM    1  N1  UNK     1      16.859   8.646  33.610  1.00  0.00     0.096 N 
HETATM    2  N2  UNK     1      17.769   6.132  32.508  1.00  0.00     0.097 N 
HETATM    3  C1  UNK     1      15.921   7.551  33.332  1.00  0.00     0.303 C 
HETATM    4  C2  UNK     1      18.189   8.111  33.927  1.00  0.00     0.303 C 
HETATM    5  C3  UNK     1      16.438   6.666  32.191  1.00  0.00     0.303 C 
HETATM    6  C4  UNK     1      18.707   7.226  32.788  1.00  0.00     0.303 C 
ENDROOT
BRANCH   2   7
HETATM    7  C6  UNK     1      18.262   5.291  31.418  1.00  0.00     0.334 C 
BRANCH   7   8
HETATM    8  C8  UNK     1      18.253   3.862  31.856  1.00  0.00     0.095 A 
HETATM    9  C10 UNK     1      18.329   2.724  31.093  1.00  0.00     0.078 A 
HETATM   10  C16 UNK     1      18.442   2.443  29.658  1.00  0.00     0.079 C 
HETATM   11  O1  UNK     1      18.283   1.653  31.933  1.00  0.00    -0.294 OA
HETATM   12  C14 UNK     1      18.180   2.219  33.167  1.00  0.00     0.180 A 
HETATM   13  N3  UNK     1      18.158   3.532  33.184  1.00  0.00    -0.224 NA
BRANCH  12  14
HETATM   14  C20 UNK     1      18.113   1.292  34.262  1.00  0.00     0.018 A 
HETATM   15  C22 UNK     1      17.896   1.758  35.559  1.00  0.00     0.022 A 
HETATM   16  C24 UNK     1      17.830   0.857  36.621  1.00  0.00    -0.061 A 
HETATM   17  C26 UNK     1      17.980  -0.510  36.387  1.00  0.00     0.007 A 
HETATM   18  C27 UNK     1      17.597   1.354  38.008  1.00  0.00     0.048 C 
HETATM   19  C25 UNK     1      18.197  -0.976  35.091  1.00  0.00     0.002 A 
HETATM   20  C23 UNK     1      18.264  -0.075  34.027  1.00  0.00     0.016 A 
ENDBRANCH  12  14
ENDBRANCH   7   8
ENDBRANCH   2   7
BRANCH   1  21
HETATM   21  C5  UNK     1      16.365   9.488  34.697  1.00  0.00     0.312 C 
BRANCH  21  22
HETATM   22  C7  UNK     1      16.339  10.930  34.324  1.00  0.00    -0.011 A 
HETATM   23  C11 UNK     1      17.463  11.661  34.303  1.00  0.00     0.092 A 
HETATM   24  C15 UNK     1      17.486  13.087  33.941  1.00  0.00     0.288 A 
HETATM   25  O2  UNK     1      16.271  13.666  33.612  1.00  0.00    -0.275 OA
HETATM   26  O3  UNK     1      18.534  13.725  33.933  1.00  0.00    -0.260 OA
HETATM   27  C12 UNK     1      15.073  12.924  33.625  1.00  0.00     0.090 A 
HETATM   28  C9  UNK     1      15.066  11.572  33.971  1.00  0.00     0.006 A 
HETATM   29  C17 UNK     1      13.907  13.610  33.277  1.00  0.00     0.045 A 
HETATM   30  C13 UNK     1      13.835  10.904  33.960  1.00  0.00     0.015 A 
HETATM   31  C18 UNK     1      12.658  11.578  33.613  1.00  0.00     0.007 A 
HETATM   32  C19 UNK     1      12.695  12.930  33.272  1.00  0.00    -0.059 A 
HETATM   33  C21 UNK     1      11.438  13.642  32.903  1.00  0.00     0.048 C 
ENDBRANCH  21  22
ENDBRANCH   1  21
TORSDOF 5
ENDMDL
MODEL 7
REMARK VINA RESULT:      -9.5      4.281     11.526
REMARK  5 active torsions:
REMARK  status: ('A' for Active; 'I' for Inactive)
REMARK    1  A    between atoms: C5_11  and  N1_4 
REMARK    2  A    between atoms: C6_12  and  N2_5 
REMARK    3  A    between atoms: C5_11  and  C7_13 
REMARK    4  A    between atoms: C6_12  and  C8_14 
REMARK    5  A    between atoms: C14_20  and  C20_26 
ROOT
HETATM    1  N1  UNK     1      19.998  -3.723  36.723  1.00  0.00     0.096 N 
HETATM    2  N2  UNK     1      20.905  -6.468  36.795  1.00  0.00     0.097 N 
HETATM    3  C1  UNK     1      20.952  -4.185  37.739  1.00  0.00     0.303 C 
HETATM    4  C2  UNK     1      20.141  -4.511  35.492  1.00  0.00     0.303 C 
HETATM    5  C3  UNK     1      20.763  -5.679  38.025  1.00  0.00     0.303 C 
HETATM    6  C4  UNK     1      19.953  -6.006  35.777  1.00  0.00     0.303 C 
ENDROOT
BRANCH   2   7
HETATM    7  C6  UNK     1      20.722  -7.892  37.069  1.00  0.00     0.334 C 
BRANCH   7   8
HETATM    8  C8  UNK     1      22.030  -8.596  36.908  1.00  0.00     0.095 A 
HETATM    9  C10 UNK     1      22.308  -9.762  36.237  1.00  0.00     0.078 A 
HETATM   10  C16 UNK     1      21.518 -10.727  35.465  1.00  0.00     0.079 C 
HETATM   11  O1  UNK     1      23.640 -10.012  36.366  1.00  0.00    -0.294 OA
HETATM   12  C14 UNK     1      24.090  -8.968  37.115  1.00  0.00     0.180 A 
HETATM   13  N3  UNK     1      23.176  -8.093  37.467  1.00  0.00    -0.224 NA
BRANCH  12  14
HETATM   14  C20 UNK     1      25.497  -8.985  37.405  1.00  0.00     0.018 A 
HETATM   15  C22 UNK     1      26.028  -8.093  38.337  1.00  0.00     0.022 A 
HETATM   16  C24 UNK     1      27.394  -8.110  38.619  1.00  0.00    -0.061 A 
HETATM   17  C26 UNK     1      28.229  -9.019  37.969  1.00  0.00     0.007 A 
HETATM   18  C27 UNK     1      27.962  -7.157  39.616  1.00  0.00     0.048 C 
HETATM   19  C25 UNK     1      27.698  -9.911  37.037  1.00  0.00     0.002 A 
HETATM   20  C23 UNK     1      26.331  -9.894  36.754  1.00  0.00     0.016 A 
ENDBRANCH  12  14
ENDBRANCH   7   8
ENDBRANCH   2   7
BRANCH   1  21
HETATM   21  C5  UNK     1      20.179  -2.299  36.450  1.00  0.00     0.312 C 
BRANCH  21  22
HETATM   22  C7  UNK     1      19.199  -1.788  35.452  1.00  0.00    -0.011 A 
HETATM   23  C11 UNK     1      17.997  -1.328  35.832  1.00  0.00     0.092 A 
HETATM   24  C15 UNK     1      16.997  -0.814  34.882  1.00  0.00     0.288 A 
HETATM   25  O2  UNK     1      17.350  -0.821  33.542  1.00  0.00    -0.275 OA
HETATM   26  O3  UNK     1      15.908  -0.401  35.266  1.00  0.00    -0.260 OA
HETATM   27  C12 UNK     1      18.605  -1.298  33.112  1.00  0.00     0.090 A 
HETATM   28  C9  UNK     1      19.543  -1.783  34.024  1.00  0.00     0.006 A 
HETATM   29  C17 UNK     1      18.852  -1.258  31.738  1.00  0.00     0.045 A 
HETATM   30  C13 UNK     1      20.767  -2.240  33.518  1.00  0.00     0.015 A 
HETATM   31  C18 UNK     1      21.030  -2.206  32.143  1.00  0.00     0.007 A 
HETATM   32  C19 UNK     1      20.072  -1.716  31.255  1.00  0.00    -0.059 A 
HETATM   33  C21 UNK     1      20.358  -1.683  29.792  1.00  0.00     0.048 C 
ENDBRANCH  21  22
ENDBRANCH   1  21
TORSDOF 5
ENDMDL
MODEL 8
REMARK VINA RESULT:      -9.5      9.742     13.434
REMARK  5 active torsions:
REMARK  status: ('A' for Active; 'I' for Inactive)
REMARK    1  A    between atoms: C5_11  and  N1_4 
REMARK    2  A    between atoms: C6_12  and  N2_5 
REMARK    3  A    between atoms: C5_11  and  C7_13 
REMARK    4  A    between atoms: C6_12  and  C8_14 
REMARK    5  A    between atoms: C14_20  and  C20_26 
ROOT
HETATM    1  N1  UNK     1      30.280  -6.693  35.104  1.00  0.00     0.096 N 
HETATM    2  N2  UNK     1      29.012  -7.089  37.671  1.00  0.00     0.097 N 
HETATM    3  C1  UNK     1      31.073  -6.876  36.326  1.00  0.00     0.303 C 
HETATM    4  C2  UNK     1      28.995  -7.393  35.219  1.00  0.00     0.303 C 
HETATM    5  C3  UNK     1      30.298  -6.391  37.556  1.00  0.00     0.303 C 
HETATM    6  C4  UNK     1      28.220  -6.909  36.449  1.00  0.00     0.303 C 
ENDROOT
BRANCH   2   7
HETATM    7  C6  UNK     1      28.273  -6.623  38.844  1.00  0.00     0.334 C 
BRANCH   7   8
HETATM    8  C8  UNK     1      27.008  -7.410  38.972  1.00  0.00     0.095 A 
HETATM    9  C10 UNK     1      26.830  -8.691  39.433  1.00  0.00     0.078 A 
HETATM   10  C16 UNK     1      27.716  -9.740  39.947  1.00  0.00     0.079 C 
HETATM   11  O1  UNK     1      25.501  -8.979  39.363  1.00  0.00    -0.294 OA
HETATM   12  C14 UNK     1      24.952  -7.840  38.860  1.00  0.00     0.180 A 
HETATM   13  N3  UNK     1      25.802  -6.870  38.607  1.00  0.00    -0.224 NA
BRANCH  12  14
HETATM   14  C20 UNK     1      23.527  -7.874  38.681  1.00  0.00     0.018 A 
HETATM   15  C22 UNK     1      22.979  -8.492  37.558  1.00  0.00     0.022 A 
HETATM   16  C24 UNK     1      21.595  -8.525  37.386  1.00  0.00    -0.061 A 
HETATM   17  C26 UNK     1      20.760  -7.940  38.338  1.00  0.00     0.007 A 
HETATM   18  C27 UNK     1      21.008  -9.187  36.186  1.00  0.00     0.048 C 
HETATM   19  C25 UNK     1      21.308  -7.321  39.461  1.00  0.00     0.002 A 
HETATM   20  C23 UNK     1      22.693  -7.287  39.633  1.00  0.00     0.016 A 
ENDBRANCH  12  14
ENDBRANCH   7   8
ENDBRANCH   2   7
BRANCH   1  21
HETATM   21  C5  UNK     1      31.020  -7.157  33.931  1.00  0.00     0.312 C 
BRANCH  21  22
HETATM   22  C7  UNK     1      30.477  -6.592  32.665  1.00  0.00    -0.011 A 
HETATM   23  C11 UNK     1      30.432  -5.268  32.459  1.00  0.00     0.092 A 
HETATM   24  C15 UNK     1      29.904  -4.665  31.224  1.00  0.00     0.288 A 
HETATM   25  O2  UNK     1      29.444  -5.538  30.251  1.00  0.00    -0.275 OA
HETATM   26  O3  UNK     1      29.878  -3.448  31.071  1.00  0.00    -0.260 OA
HETATM   27  C12 UNK     1      29.479  -6.935  30.438  1.00  0.00     0.090 A 
HETATM   28  C9  UNK     1      29.981  -7.493  31.615  1.00  0.00     0.006 A 
HETATM   29  C17 UNK     1      28.988  -7.719  29.392  1.00  0.00     0.045 A 
HETATM   30  C13 UNK     1      29.981  -8.889  31.724  1.00  0.00     0.015 A 
HETATM   31  C18 UNK     1      29.493  -9.688  30.684  1.00  0.00     0.007 A 
HETATM   32  C19 UNK     1      28.996  -9.103  29.519  1.00  0.00    -0.059 A 
HETATM   33  C21 UNK     1      28.477  -9.960  28.415  1.00  0.00     0.048 C 
ENDBRANCH  21  22
ENDBRANCH   1  21
TORSDOF 5
ENDMDL
MODEL 9
REMARK VINA RESULT:      -9.4     13.135     17.919
REMARK  5 active torsions:
REMARK  status: ('A' for Active; 'I' for Inactive)
REMARK    1  A    between atoms: C5_11  and  N1_4 
REMARK    2  A    between atoms: C6_12  and  N2_5 
REMARK    3  A    between atoms: C5_11  and  C7_13 
REMARK    4  A    between atoms: C6_12  and  C8_14 
REMARK    5  A    between atoms: C14_20  and  C20_26 
ROOT
HETATM    1  N1  UNK     1      31.700  -5.832  35.660  1.00  0.00     0.096 N 
HETATM    2  N2  UNK     1      34.242  -6.208  34.336  1.00  0.00     0.097 N 
HETATM    3  C1  UNK     1      32.200  -4.860  34.679  1.00  0.00     0.303 C 
HETATM    4  C2  UNK     1      32.209  -7.175  35.354  1.00  0.00     0.303 C 
HETATM    5  C3  UNK     1      33.733  -4.865  34.640  1.00  0.00     0.303 C 
HETATM    6  C4  UNK     1      33.741  -7.180  35.314  1.00  0.00     0.303 C 
ENDROOT
BRANCH   2   7
HETATM    7  C6  UNK     1      35.704  -6.211  34.302  1.00  0.00     0.334 C 
BRANCH   7   8
HETATM    8  C8  UNK     1      36.174  -7.376  33.491  1.00  0.00     0.095 A 
HETATM    9  C10 UNK     1      35.938  -7.660  32.168  1.00  0.00     0.078 A 
HETATM   10  C16 UNK     1      35.195  -7.008  31.084  1.00  0.00     0.079 C 
HETATM   11  O1  UNK     1      36.570  -8.829  31.872  1.00  0.00    -0.294 OA
HETATM   12  C14 UNK     1      37.156  -9.182  33.049  1.00  0.00     0.180 A 
HETATM   13  N3  UNK     1      36.955  -8.355  34.049  1.00  0.00    -0.224 NA
BRANCH  12  14
HETATM   14  C20 UNK     1      37.906 -10.407  33.015  1.00  0.00     0.018 A 
HETATM   15  C22 UNK     1      39.092 -10.480  32.285  1.00  0.00     0.022 A 
HETATM   16  C24 UNK     1      39.820 -11.670  32.254  1.00  0.00    -0.061 A 
HETATM   17  C26 UNK     1      39.361 -12.787  32.953  1.00  0.00     0.007 A 
HETATM   18  C27 UNK     1      41.089 -11.748  31.474  1.00  0.00     0.048 C 
HETATM   19  C25 UNK     1      38.174 -12.714  33.682  1.00  0.00     0.002 A 
HETATM   20  C23 UNK     1      37.446 -11.524  33.713  1.00  0.00     0.016 A 
ENDBRANCH  12  14
ENDBRANCH   7   8
ENDBRANCH   2   7
BRANCH   1  21
HETATM   21  C5  UNK     1      30.238  -5.827  35.696  1.00  0.00     0.312 C 
BRANCH  21  22
HETATM   22  C7  UNK     1      29.711  -5.763  37.087  1.00  0.00    -0.011 A 
HETATM   23  C11 UNK     1      29.830  -4.649  37.824  1.00  0.00     0.092 A 
HETATM   24  C15 UNK     1      29.324  -4.539  39.202  1.00  0.00     0.288 A 
HETATM   25  O2  UNK     1      28.701  -5.660  39.728  1.00  0.00    -0.275 OA
HETATM   26  O3  UNK     1      29.451  -3.503  39.846  1.00  0.00    -0.260 OA
HETATM   27  C12 UNK     1      28.560  -6.845  38.978  1.00  0.00     0.090 A 
HETATM   28  C9  UNK     1      29.046  -6.935  37.673  1.00  0.00     0.006 A 
HETATM   29  C17 UNK     1      27.917  -7.912  39.609  1.00  0.00     0.045 A 
HETATM   30  C13 UNK     1      28.867  -8.147  36.994  1.00  0.00     0.015 A 
HETATM   31  C18 UNK     1      28.223  -9.225  37.613  1.00  0.00     0.007 A 
HETATM   32  C19 UNK     1      27.749  -9.107  38.919  1.00  0.00    -0.059 A 
HETATM   33  C21 UNK     1      27.065 -10.259  39.573  1.00  0.00     0.048 C 
ENDBRANCH  21  22
ENDBRANCH   1  21
TORSDOF 5
ENDMDL
MODEL 10
REMARK VINA RESULT:      -9.3      5.366     14.106
REMARK  5 active torsions:
REMARK  status: ('A' for Active; 'I' for Inactive)
REMARK    1  A    between atoms: C5_11  and  N1_4 
REMARK    2  A    between atoms: C6_12  and  N2_5 
REMARK    3  A    between atoms: C5_11  and  C7_13 
REMARK    4  A    between atoms: C6_12  and  C8_14 
REMARK    5  A    between atoms: C14_20  and  C20_26 
ROOT
HETATM    1  N1  UNK     1      16.378   8.567  33.758  1.00  0.00     0.096 N 
HETATM    2  N2  UNK     1      17.342   6.130  32.538  1.00  0.00     0.097 N 
HETATM    3  C1  UNK     1      15.611   7.885  32.708  1.00  0.00     0.303 C 
HETATM    4  C2  UNK     1      17.177   7.598  34.519  1.00  0.00     0.303 C 
HETATM    5  C3  UNK     1      16.542   7.098  31.778  1.00  0.00     0.303 C 
HETATM    6  C4  UNK     1      18.107   6.810  33.590  1.00  0.00     0.303 C 
ENDROOT
BRANCH   2   7
HETATM    7  C6  UNK     1      18.232   5.382  31.650  1.00  0.00     0.334 C 
BRANCH   7   8
HETATM    8  C8  UNK     1      18.223   3.941  32.045  1.00  0.00     0.095 A 
HETATM    9  C10 UNK     1      18.303   2.826  31.248  1.00  0.00     0.078 A 
HETATM   10  C16 UNK     1      18.420   2.588  29.806  1.00  0.00     0.079 C 
HETATM   11  O1  UNK     1      18.256   1.730  32.056  1.00  0.00    -0.294 OA
HETATM   12  C14 UNK     1      18.149   2.259  33.306  1.00  0.00     0.180 A 
HETATM   13  N3  UNK     1      18.125   3.571  33.362  1.00  0.00    -0.224 NA
BRANCH  12  14
HETATM   14  C20 UNK     1      18.080   1.298  34.372  1.00  0.00     0.018 A 
HETATM   15  C22 UNK     1      17.859   1.725  35.682  1.00  0.00     0.022 A 
HETATM   16  C24 UNK     1      17.791   0.792  36.717  1.00  0.00    -0.061 A 
HETATM   17  C26 UNK     1      17.944  -0.567  36.442  1.00  0.00     0.007 A 
HETATM   18  C27 UNK     1      17.554   1.248  38.117  1.00  0.00     0.048 C 
HETATM   19  C25 UNK     1      18.165  -0.993  35.133  1.00  0.00     0.002 A 
HETATM   20  C23 UNK     1      18.234  -0.060  34.097  1.00  0.00     0.016 A 
ENDBRANCH  12  14
ENDBRANCH   7   8
ENDBRANCH   2   7
BRANCH   1  21
HETATM   21  C5  UNK     1      15.490   9.317  34.645  1.00  0.00     0.312 C 
BRANCH  21  22
HETATM   22  C7  UNK     1      15.890  10.746  34.764  1.00  0.00    -0.011 A 
HETATM   23  C11 UNK     1      16.943  11.230  34.090  1.00  0.00     0.092 A 
HETATM   24  C15 UNK     1      17.375  12.634  34.176  1.00  0.00     0.288 A 
HETATM   25  O2  UNK     1      16.634  13.465  35.001  1.00  0.00    -0.275 OA
HETATM   26  O3  UNK     1      18.344  13.042  33.544  1.00  0.00    -0.260 OA
HETATM   27  C12 UNK     1      15.522  12.986  35.722  1.00  0.00     0.090 A 
HETATM   28  C9  UNK     1      15.124  11.651  35.632  1.00  0.00     0.006 A 
HETATM   29  C17 UNK     1      14.850  13.911  36.524  1.00  0.00     0.045 A 
HETATM   30  C13 UNK     1      14.009  11.252  36.380  1.00  0.00     0.015 A 
HETATM   31  C18 UNK     1      13.325  12.168  37.188  1.00  0.00     0.007 A 
HETATM   32  C19 UNK     1      13.746  13.496  37.259  1.00  0.00    -0.059 A 
HETATM   33  C21 UNK     1      13.013  14.467  38.122  1.00  0.00     0.048 C 
ENDBRANCH  21  22
ENDBRANCH   1  21
TORSDOF 5
ENDMDL
