MODEL 1
REMARK VINA RESULT:      -8.8      0.000      0.000
REMARK  3 active torsions:
REMARK  status: ('A' for Active; 'I' for Inactive)
REMARK    1  A    between atoms: C5_11  and  N1_5 
REMARK       I    between atoms: C6_12  and  N1_5 
REMARK    2  A    between atoms: C2_8  and  C6_12 
REMARK    3  A    between atoms: C5_11  and  C7_13 
ROOT
HETATM    1 Cl1  UNK     1      21.285  -3.081  32.637  1.00  0.00    -0.084 Cl
HETATM    2  O1  UNK     1      18.964   0.491  28.559  1.00  0.00    -0.274 OA
HETATM    3  O3  UNK     1      18.033   2.494  27.974  1.00  0.00    -0.259 OA
HETATM    4  C1  UNK     1      19.623   0.103  30.867  1.00  0.00     0.001 A 
HETATM    5  C2  UNK     1      18.638   2.227  30.250  1.00  0.00     0.108 A 
HETATM    6  C3  UNK     1      19.515  -0.342  29.553  1.00  0.00     0.089 A 
HETATM    7  C4  UNK     1      19.160   1.441  31.198  1.00  0.00     0.037 A 
HETATM    8  C8  UNK     1      20.175  -0.753  31.824  1.00  0.00     0.038 A 
HETATM    9  C9  UNK     1      18.511   1.776  28.845  1.00  0.00     0.304 A 
HETATM   10  C10 UNK     1      19.941  -1.612  29.170  1.00  0.00     0.040 A 
HETATM   11  C11 UNK     1      20.606  -2.030  31.454  1.00  0.00     0.035 A 
HETATM   12  C12 UNK     1      20.490  -2.459  30.130  1.00  0.00     0.026 A 
ENDROOT
BRANCH   5  13
HETATM   13  C6  UNK     1      18.197   3.560  30.681  1.00  0.00     0.258 C 
HETATM   14  O2  UNK     1      17.419   3.693  31.623  1.00  0.00    -0.267 OA
HETATM   15  N1  UNK     1      18.747   4.579  29.926  1.00  0.00    -0.352 N 
HETATM   16  H4  UNK     1      19.397   4.366  29.174  1.00  0.00     0.163 HD
BRANCH  15  17
HETATM   17  C5  UNK     1      18.461   5.976  30.160  1.00  0.00     0.162 C 
BRANCH  17  18
HETATM   18  C7  UNK     1      19.063   6.398  31.466  1.00  0.00    -0.023 A 
HETATM   19  C13 UNK     1      20.387   6.115  31.757  1.00  0.00     0.012 A 
HETATM   20  C15 UNK     1      20.918   6.518  32.978  1.00  0.00     0.020 A 
HETATM   21  C16 UNK     1      20.085   7.193  33.856  1.00  0.00     0.116 A 
HETATM   22  N2  UNK     1      18.791   7.484  33.598  1.00  0.00    -0.273 NA
HETATM   23  C14 UNK     1      18.309   7.077  32.403  1.00  0.00     0.124 A 
ENDBRANCH  17  18
ENDBRANCH  15  17
ENDBRANCH   5  13
TORSDOF 3
ENDMDL
MODEL 2
REMARK VINA RESULT:      -8.5      5.789      9.081
REMARK  3 active torsions:
REMARK  status: ('A' for Active; 'I' for Inactive)
REMARK    1  A    between atoms: C5_11  and  N1_5 
REMARK       I    between atoms: C6_12  and  N1_5 
REMARK    2  A    between atoms: C2_8  and  C6_12 
REMARK    3  A    between atoms: C5_11  and  C7_13 
ROOT
HETATM    1 Cl1  UNK     1      18.274   2.298  28.858  1.00  0.00    -0.084 Cl
HETATM    2  O1  UNK     1      20.789  -2.656  30.836  1.00  0.00    -0.274 OA
HETATM    3  O3  UNK     1      21.353  -4.043  32.563  1.00  0.00    -0.259 OA
HETATM    4  C1  UNK     1      19.588  -0.593  31.298  1.00  0.00     0.001 A 
HETATM    5  C2  UNK     1      20.183  -2.061  33.130  1.00  0.00     0.108 A 
HETATM    6  C3  UNK     1      20.181  -1.466  30.391  1.00  0.00     0.089 A 
HETATM    7  C4  UNK     1      19.605  -0.929  32.712  1.00  0.00     0.037 A 
HETATM    8  C8  UNK     1      18.995   0.577  30.816  1.00  0.00     0.038 A 
HETATM    9  C9  UNK     1      20.821  -3.005  32.184  1.00  0.00     0.304 A 
HETATM   10  C10 UNK     1      20.198  -1.204  29.023  1.00  0.00     0.040 A 
HETATM   11  C11 UNK     1      19.005   0.854  29.447  1.00  0.00     0.035 A 
HETATM   12  C12 UNK     1      19.605  -0.035  28.551  1.00  0.00     0.026 A 
ENDROOT
BRANCH   5  13
HETATM   13  C6  UNK     1      20.151  -2.312  34.576  1.00  0.00     0.258 C 
HETATM   14  O2  UNK     1      20.339  -1.400  35.379  1.00  0.00    -0.267 OA
HETATM   15  N1  UNK     1      19.896  -3.635  34.887  1.00  0.00    -0.352 N 
HETATM   16  H4  UNK     1      19.737  -4.313  34.147  1.00  0.00     0.163 HD
BRANCH  15  17
HETATM   17  C5  UNK     1      19.817  -4.124  36.244  1.00  0.00     0.162 C 
BRANCH  17  18
HETATM   18  C7  UNK     1      20.379  -5.512  36.310  1.00  0.00    -0.023 A 
HETATM   19  C13 UNK     1      20.090  -6.438  35.321  1.00  0.00     0.012 A 
HETATM   20  C15 UNK     1      20.625  -7.719  35.410  1.00  0.00     0.020 A 
HETATM   21  C16 UNK     1      21.433  -8.011  36.497  1.00  0.00     0.116 A 
HETATM   22  N2  UNK     1      21.732  -7.128  37.476  1.00  0.00    -0.273 NA
HETATM   23  C14 UNK     1      21.194  -5.893  37.357  1.00  0.00     0.124 A 
ENDBRANCH  17  18
ENDBRANCH  15  17
ENDBRANCH   5  13
TORSDOF 3
ENDMDL
MODEL 3
REMARK VINA RESULT:      -8.5      1.489      2.358
REMARK  3 active torsions:
REMARK  status: ('A' for Active; 'I' for Inactive)
REMARK    1  A    between atoms: C5_11  and  N1_5 
REMARK       I    between atoms: C6_12  and  N1_5 
REMARK    2  A    between atoms: C2_8  and  C6_12 
REMARK    3  A    between atoms: C5_11  and  C7_13 
ROOT
HETATM    1 Cl1  UNK     1      21.645  -3.892  30.043  1.00  0.00    -0.084 Cl
HETATM    2  O1  UNK     1      18.699   0.482  32.682  1.00  0.00    -0.274 OA
HETATM    3  O3  UNK     1      17.806   2.585  32.634  1.00  0.00    -0.259 OA
HETATM    4  C1  UNK     1      19.851  -0.377  30.721  1.00  0.00     0.001 A 
HETATM    5  C2  UNK     1      18.905   1.852  30.667  1.00  0.00     0.108 A 
HETATM    6  C3  UNK     1      19.405  -0.546  32.028  1.00  0.00     0.089 A 
HETATM    7  C4  UNK     1      19.576   0.879  30.041  1.00  0.00     0.037 A 
HETATM    8  C8  UNK     1      20.547  -1.421  30.107  1.00  0.00     0.038 A 
HETATM    9  C9  UNK     1      18.422   1.695  32.057  1.00  0.00     0.304 A 
HETATM   10  C10 UNK     1      19.635  -1.725  32.735  1.00  0.00     0.040 A 
HETATM   11  C11 UNK     1      20.786  -2.608  30.804  1.00  0.00     0.035 A 
HETATM   12  C12 UNK     1      20.330  -2.760  32.116  1.00  0.00     0.026 A 
ENDROOT
BRANCH   5  13
HETATM   13  C6  UNK     1      18.677   3.082  29.898  1.00  0.00     0.258 C 
HETATM   14  O2  UNK     1      18.169   3.042  28.779  1.00  0.00    -0.267 OA
HETATM   15  N1  UNK     1      19.090   4.219  30.568  1.00  0.00    -0.352 N 
HETATM   16  H4  UNK     1      19.485   4.148  31.501  1.00  0.00     0.163 HD
BRANCH  15  17
HETATM   17  C5  UNK     1      18.969   5.548  30.012  1.00  0.00     0.162 C 
BRANCH  17  18
HETATM   18  C7  UNK     1      18.550   6.504  31.087  1.00  0.00    -0.023 A 
HETATM   19  C13 UNK     1      19.303   6.643  32.241  1.00  0.00     0.012 A 
HETATM   20  C15 UNK     1      18.888   7.537  33.222  1.00  0.00     0.020 A 
HETATM   21  C16 UNK     1      17.726   8.257  32.994  1.00  0.00     0.116 A 
HETATM   22  N2  UNK     1      16.972   8.142  31.878  1.00  0.00    -0.273 NA
HETATM   23  C14 UNK     1      17.406   7.264  30.947  1.00  0.00     0.124 A 
ENDBRANCH  17  18
ENDBRANCH  15  17
ENDBRANCH   5  13
TORSDOF 3
ENDMDL
MODEL 4
REMARK VINA RESULT:      -8.4      1.595      2.160
REMARK  3 active torsions:
REMARK  status: ('A' for Active; 'I' for Inactive)
REMARK    1  A    between atoms: C5_11  and  N1_5 
REMARK       I    between atoms: C6_12  and  N1_5 
REMARK    2  A    between atoms: C2_8  and  C6_12 
REMARK    3  A    between atoms: C5_11  and  C7_13 
ROOT
HETATM    1 Cl1  UNK     1      20.094  -3.011  35.502  1.00  0.00    -0.084 Cl
HETATM    2  O1  UNK     1      20.385  -1.413  29.833  1.00  0.00    -0.274 OA
HETATM    3  O3  UNK     1      19.919   0.078  28.165  1.00  0.00    -0.259 OA
HETATM    4  C1  UNK     1      19.664  -0.935  32.105  1.00  0.00     0.001 A 
HETATM    5  C2  UNK     1      19.169   0.647  30.340  1.00  0.00     0.108 A 
HETATM    6  C3  UNK     1      20.302  -1.770  31.193  1.00  0.00     0.089 A 
HETATM    7  C4  UNK     1      19.086   0.313  31.633  1.00  0.00     0.037 A 
HETATM    8  C8  UNK     1      19.602  -1.325  33.446  1.00  0.00     0.038 A 
HETATM    9  C9  UNK     1      19.841  -0.225  29.351  1.00  0.00     0.304 A 
HETATM   10  C10 UNK     1      20.876  -2.979  31.581  1.00  0.00     0.040 A 
HETATM   11  C11 UNK     1      20.173  -2.534  33.849  1.00  0.00     0.035 A 
HETATM   12  C12 UNK     1      20.810  -3.360  32.919  1.00  0.00     0.026 A 
ENDROOT
BRANCH   5  13
HETATM   13  C6  UNK     1      18.555   1.926  29.959  1.00  0.00     0.258 C 
HETATM   14  O2  UNK     1      17.459   1.958  29.403  1.00  0.00    -0.267 OA
HETATM   15  N1  UNK     1      19.335   3.018  30.293  1.00  0.00    -0.352 N 
HETATM   16  H4  UNK     1      20.223   2.886  30.769  1.00  0.00     0.163 HD
BRANCH  15  17
HETATM   17  C5  UNK     1      18.941   4.381  30.017  1.00  0.00     0.162 C 
BRANCH  17  18
HETATM   18  C7  UNK     1      18.894   5.158  31.298  1.00  0.00    -0.023 A 
HETATM   19  C13 UNK     1      19.908   6.043  31.623  1.00  0.00     0.012 A 
HETATM   20  C15 UNK     1      19.837   6.750  32.820  1.00  0.00     0.020 A 
HETATM   21  C16 UNK     1      18.741   6.530  33.639  1.00  0.00     0.116 A 
HETATM   22  N2  UNK     1      17.738   5.673  33.347  1.00  0.00    -0.273 NA
HETATM   23  C14 UNK     1      17.840   5.004  32.177  1.00  0.00     0.124 A 
ENDBRANCH  17  18
ENDBRANCH  15  17
ENDBRANCH   5  13
TORSDOF 3
ENDMDL
MODEL 5
REMARK VINA RESULT:      -8.0      4.108      7.771
REMARK  3 active torsions:
REMARK  status: ('A' for Active; 'I' for Inactive)
REMARK    1  A    between atoms: C5_11  and  N1_5 
REMARK       I    between atoms: C6_12  and  N1_5 
REMARK    2  A    between atoms: C2_8  and  C6_12 
REMARK    3  A    between atoms: C5_11  and  C7_13 
ROOT
HETATM    1 Cl1  UNK     1      17.492   9.275  34.546  1.00  0.00    -0.084 Cl
HETATM    2  O1  UNK     1      17.960   4.323  31.377  1.00  0.00    -0.274 OA
HETATM    3  O3  UNK     1      18.246   2.059  31.265  1.00  0.00    -0.259 OA
HETATM    4  C1  UNK     1      17.934   5.423  33.545  1.00  0.00     0.001 A 
HETATM    5  C2  UNK     1      18.236   3.023  33.429  1.00  0.00     0.108 A 
HETATM    6  C3  UNK     1      17.851   5.490  32.158  1.00  0.00     0.089 A 
HETATM    7  C4  UNK     1      18.134   4.128  34.176  1.00  0.00     0.037 A 
HETATM    8  C8  UNK     1      17.821   6.603  34.285  1.00  0.00     0.038 A 
HETATM    9  C9  UNK     1      18.152   3.070  31.952  1.00  0.00     0.304 A 
HETATM   10  C10 UNK     1      17.660   6.699  31.492  1.00  0.00     0.040 A 
HETATM   11  C11 UNK     1      17.630   7.823  33.630  1.00  0.00     0.035 A 
HETATM   12  C12 UNK     1      17.549   7.871  32.237  1.00  0.00     0.026 A 
ENDROOT
BRANCH   5  13
HETATM   13  C6  UNK     1      18.438   1.764  34.157  1.00  0.00     0.258 C 
HETATM   14  O2  UNK     1      19.121   1.727  35.178  1.00  0.00    -0.267 OA
HETATM   15  N1  UNK     1      17.791   0.692  33.569  1.00  0.00    -0.352 N 
HETATM   16  H4  UNK     1      17.233   0.829  32.730  1.00  0.00     0.163 HD
BRANCH  15  17
HETATM   17  C5  UNK     1      17.844  -0.650  34.102  1.00  0.00     0.162 C 
BRANCH  17  18
HETATM   18  C7  UNK     1      18.981  -1.395  33.472  1.00  0.00    -0.023 A 
HETATM   19  C13 UNK     1      19.186  -1.343  32.104  1.00  0.00     0.012 A 
HETATM   20  C15 UNK     1      20.249  -2.047  31.547  1.00  0.00     0.020 A 
HETATM   21  C16 UNK     1      21.063  -2.774  32.400  1.00  0.00     0.116 A 
HETATM   22  N2  UNK     1      20.887  -2.842  33.739  1.00  0.00    -0.273 NA
HETATM   23  C14 UNK     1      19.844  -2.146  34.244  1.00  0.00     0.124 A 
ENDBRANCH  17  18
ENDBRANCH  15  17
ENDBRANCH   5  13
TORSDOF 3
ENDMDL
MODEL 6
REMARK VINA RESULT:      -8.0     14.787     17.897
REMARK  3 active torsions:
REMARK  status: ('A' for Active; 'I' for Inactive)
REMARK    1  A    between atoms: C5_11  and  N1_5 
REMARK       I    between atoms: C6_12  and  N1_5 
REMARK    2  A    between atoms: C2_8  and  C6_12 
REMARK    3  A    between atoms: C5_11  and  C7_13 
ROOT
HETATM    1 Cl1  UNK     1      18.863   2.094  20.976  1.00  0.00    -0.084 Cl
HETATM    2  O1  UNK     1      19.228   0.927  15.207  1.00  0.00    -0.274 OA
HETATM    3  O3  UNK     1      19.210  -0.569  13.480  1.00  0.00    -0.259 OA
HETATM    4  C1  UNK     1      18.945   0.132  17.487  1.00  0.00     0.001 A 
HETATM    5  C2  UNK     1      18.924  -1.457  15.659  1.00  0.00     0.108 A 
HETATM    6  C3  UNK     1      19.137   1.178  16.590  1.00  0.00     0.089 A 
HETATM    7  C4  UNK     1      18.838  -1.225  16.973  1.00  0.00     0.037 A 
HETATM    8  C8  UNK     1      18.859   0.421  18.851  1.00  0.00     0.038 A 
HETATM    9  C9  UNK     1      19.130  -0.360  14.686  1.00  0.00     0.304 A 
HETATM   10  C10 UNK     1      19.247   2.500  17.017  1.00  0.00     0.040 A 
HETATM   11  C11 UNK     1      18.968   1.742  19.294  1.00  0.00     0.035 A 
HETATM   12  C12 UNK     1      19.161   2.780  18.379  1.00  0.00     0.026 A 
ENDROOT
BRANCH   5  13
HETATM   13  C6  UNK     1      18.806  -2.858  15.237  1.00  0.00     0.258 C 
HETATM   14  O2  UNK     1      17.793  -3.509  15.488  1.00  0.00    -0.267 OA
HETATM   15  N1  UNK     1      19.923  -3.314  14.562  1.00  0.00    -0.352 N 
HETATM   16  H4  UNK     1      20.706  -2.690  14.389  1.00  0.00     0.163 HD
BRANCH  15  17
HETATM   17  C5  UNK     1      20.040  -4.660  14.051  1.00  0.00     0.162 C 
BRANCH  17  18
HETATM   18  C7  UNK     1      19.488  -4.718  12.659  1.00  0.00    -0.023 A 
HETATM   19  C13 UNK     1      19.319  -5.934  12.017  1.00  0.00     0.012 A 
HETATM   20  C15 UNK     1      18.806  -5.956  10.724  1.00  0.00     0.020 A 
HETATM   21  C16 UNK     1      18.484  -4.745  10.133  1.00  0.00     0.116 A 
HETATM   22  N2  UNK     1      18.638  -3.544  10.735  1.00  0.00    -0.273 NA
HETATM   23  C14 UNK     1      19.140  -3.561  11.991  1.00  0.00     0.124 A 
ENDBRANCH  17  18
ENDBRANCH  15  17
ENDBRANCH   5  13
TORSDOF 3
ENDMDL
MODEL 7
REMARK VINA RESULT:      -8.0     22.525     24.691
REMARK  3 active torsions:
REMARK  status: ('A' for Active; 'I' for Inactive)
REMARK    1  A    between atoms: C5_11  and  N1_5 
REMARK       I    between atoms: C6_12  and  N1_5 
REMARK    2  A    between atoms: C2_8  and  C6_12 
REMARK    3  A    between atoms: C5_11  and  C7_13 
ROOT
HETATM    1 Cl1  UNK     1      16.132  13.891   6.883  1.00  0.00    -0.084 Cl
HETATM    2  O1  UNK     1      17.360   8.883   9.746  1.00  0.00    -0.274 OA
HETATM    3  O3  UNK     1      16.697   6.863  10.584  1.00  0.00    -0.259 OA
HETATM    4  C1  UNK     1      15.747  10.291   8.594  1.00  0.00     0.001 A 
HETATM    5  C2  UNK     1      15.042   8.150   9.481  1.00  0.00     0.108 A 
HETATM    6  C3  UNK     1      17.039  10.070   9.058  1.00  0.00     0.089 A 
HETATM    7  C4  UNK     1      14.732   9.276   8.828  1.00  0.00     0.037 A 
HETATM    8  C8  UNK     1      15.468  11.481   7.917  1.00  0.00     0.038 A 
HETATM    9  C9  UNK     1      16.410   7.894   9.985  1.00  0.00     0.304 A 
HETATM   10  C10 UNK     1      18.057  11.002   8.867  1.00  0.00     0.040 A 
HETATM   11  C11 UNK     1      16.479  12.425   7.717  1.00  0.00     0.035 A 
HETATM   12  C12 UNK     1      17.772  12.186   8.191  1.00  0.00     0.026 A 
ENDROOT
BRANCH   5  13
HETATM   13  C6  UNK     1      13.950   7.187   9.669  1.00  0.00     0.258 C 
HETATM   14  O2  UNK     1      13.104   7.355  10.546  1.00  0.00    -0.267 OA
HETATM   15  N1  UNK     1      14.004   6.131   8.778  1.00  0.00    -0.352 N 
HETATM   16  H4  UNK     1      14.737   6.091   8.075  1.00  0.00     0.163 HD
BRANCH  15  17
HETATM   17  C5  UNK     1      13.038   5.056   8.769  1.00  0.00     0.162 C 
BRANCH  17  18
HETATM   18  C7  UNK     1      11.818   5.485   8.012  1.00  0.00    -0.023 A 
HETATM   19  C13 UNK     1      11.921   5.931   6.704  1.00  0.00     0.012 A 
HETATM   20  C15 UNK     1      10.771   6.325   6.027  1.00  0.00     0.020 A 
HETATM   21  C16 UNK     1       9.563   6.249   6.701  1.00  0.00     0.116 A 
HETATM   22  N2  UNK     1       9.433   5.818   7.976  1.00  0.00    -0.273 NA
HETATM   23  C14 UNK     1      10.571   5.444   8.603  1.00  0.00     0.124 A 
ENDBRANCH  17  18
ENDBRANCH  15  17
ENDBRANCH   5  13
TORSDOF 3
ENDMDL
MODEL 8
REMARK VINA RESULT:      -8.0      6.219      9.867
REMARK  3 active torsions:
REMARK  status: ('A' for Active; 'I' for Inactive)
REMARK    1  A    between atoms: C5_11  and  N1_5 
REMARK       I    between atoms: C6_12  and  N1_5 
REMARK    2  A    between atoms: C2_8  and  C6_12 
REMARK    3  A    between atoms: C5_11  and  C7_13 
ROOT
HETATM    1 Cl1  UNK     1      20.922  -0.922  28.890  1.00  0.00    -0.084 Cl
HETATM    2  O1  UNK     1      18.663  -0.417  34.314  1.00  0.00    -0.274 OA
HETATM    3  O3  UNK     1      18.425  -1.204  36.446  1.00  0.00    -0.259 OA
HETATM    4  C1  UNK     1      20.036  -1.645  32.728  1.00  0.00     0.001 A 
HETATM    5  C2  UNK     1      19.787  -2.481  34.987  1.00  0.00     0.108 A 
HETATM    6  C3  UNK     1      19.216  -0.562  33.027  1.00  0.00     0.089 A 
HETATM    7  C4  UNK     1      20.315  -2.625  33.766  1.00  0.00     0.037 A 
HETATM    8  C8  UNK     1      20.565  -1.753  31.439  1.00  0.00     0.038 A 
HETATM    9  C9  UNK     1      18.911  -1.338  35.328  1.00  0.00     0.304 A 
HETATM   10  C10 UNK     1      18.911   0.412  32.078  1.00  0.00     0.040 A 
HETATM   11  C11 UNK     1      20.268  -0.784  30.477  1.00  0.00     0.035 A 
HETATM   12  C12 UNK     1      19.442   0.297  30.796  1.00  0.00     0.026 A 
ENDROOT
BRANCH   5  13
HETATM   13  C6  UNK     1      20.125  -3.522  35.966  1.00  0.00     0.258 C 
HETATM   14  O2  UNK     1      21.145  -3.440  36.648  1.00  0.00    -0.267 OA
HETATM   15  N1  UNK     1      19.193  -4.542  36.011  1.00  0.00    -0.352 N 
HETATM   16  H4  UNK     1      18.370  -4.510  35.416  1.00  0.00     0.163 HD
BRANCH  15  17
HETATM   17  C5  UNK     1      19.311  -5.679  36.896  1.00  0.00     0.162 C 
BRANCH  17  18
HETATM   18  C7  UNK     1      20.028  -6.791  36.191  1.00  0.00    -0.023 A 
HETATM   19  C13 UNK     1      20.501  -7.883  36.898  1.00  0.00     0.012 A 
HETATM   20  C15 UNK     1      21.165  -8.899  36.217  1.00  0.00     0.020 A 
HETATM   21  C16 UNK     1      21.320  -8.768  34.847  1.00  0.00     0.116 A 
HETATM   22  N2  UNK     1      20.868  -7.713  34.132  1.00  0.00    -0.273 NA
HETATM   23  C14 UNK     1      20.229  -6.746  34.826  1.00  0.00     0.124 A 
ENDBRANCH  17  18
ENDBRANCH  15  17
ENDBRANCH   5  13
TORSDOF 3
ENDMDL
MODEL 9
REMARK VINA RESULT:      -8.0      3.486      4.467
REMARK  3 active torsions:
REMARK  status: ('A' for Active; 'I' for Inactive)
REMARK    1  A    between atoms: C5_11  and  N1_5 
REMARK       I    between atoms: C6_12  and  N1_5 
REMARK    2  A    between atoms: C2_8  and  C6_12 
REMARK    3  A    between atoms: C5_11  and  C7_13 
ROOT
HETATM    1 Cl1  UNK     1      18.071  -0.627  37.906  1.00  0.00    -0.084 Cl
HETATM    2  O1  UNK     1      18.296   1.376  32.364  1.00  0.00    -0.274 OA
HETATM    3  O3  UNK     1      18.398   3.116  30.885  1.00  0.00    -0.259 OA
HETATM    4  C1  UNK     1      18.245   1.833  34.751  1.00  0.00     0.001 A 
HETATM    5  C2  UNK     1      18.354   3.678  33.187  1.00  0.00     0.108 A 
HETATM    6  C3  UNK     1      18.244   0.925  33.697  1.00  0.00     0.089 A 
HETATM    7  C4  UNK     1      18.304   3.256  34.455  1.00  0.00     0.037 A 
HETATM    8  C8  UNK     1      18.192   1.346  36.060  1.00  0.00     0.038 A 
HETATM    9  C9  UNK     1      18.352   2.732  32.049  1.00  0.00     0.304 A 
HETATM   10  C10 UNK     1      18.190  -0.451  33.913  1.00  0.00     0.040 A 
HETATM   11  C11 UNK     1      18.138  -0.031  36.292  1.00  0.00     0.035 A 
HETATM   12  C12 UNK     1      18.137  -0.928  35.221  1.00  0.00     0.026 A 
ENDROOT
BRANCH   5  13
HETATM   13  C6  UNK     1      18.410   5.132  32.989  1.00  0.00     0.258 C 
HETATM   14  O2  UNK     1      19.140   5.836  33.684  1.00  0.00    -0.267 OA
HETATM   15  N1  UNK     1      17.578   5.569  31.975  1.00  0.00    -0.352 N 
HETATM   16  H4  UNK     1      17.024   4.903  31.444  1.00  0.00     0.163 HD
BRANCH  15  17
HETATM   17  C5  UNK     1      17.461   6.959  31.596  1.00  0.00     0.162 C 
BRANCH  17  18
HETATM   18  C7  UNK     1      16.353   7.600  32.377  1.00  0.00    -0.023 A 
HETATM   19  C13 UNK     1      15.048   7.157  32.242  1.00  0.00     0.012 A 
HETATM   20  C15 UNK     1      14.041   7.772  32.979  1.00  0.00     0.020 A 
HETATM   21  C16 UNK     1      14.397   8.811  33.824  1.00  0.00     0.116 A 
HETATM   22  N2  UNK     1      15.662   9.262  33.976  1.00  0.00    -0.273 NA
HETATM   23  C14 UNK     1      16.614   8.642  33.244  1.00  0.00     0.124 A 
ENDBRANCH  17  18
ENDBRANCH  15  17
ENDBRANCH   5  13
TORSDOF 3
ENDMDL
MODEL 10
REMARK VINA RESULT:      -8.0      3.758      7.836
REMARK  3 active torsions:
REMARK  status: ('A' for Active; 'I' for Inactive)
REMARK    1  A    between atoms: C5_11  and  N1_5 
REMARK       I    between atoms: C6_12  and  N1_5 
REMARK    2  A    between atoms: C2_8  and  C6_12 
REMARK    3  A    between atoms: C5_11  and  C7_13 
ROOT
HETATM    1 Cl1  UNK     1      17.754  10.980  33.801  1.00  0.00    -0.084 Cl
HETATM    2  O1  UNK     1      17.544   5.090  34.007  1.00  0.00    -0.274 OA
HETATM    3  O3  UNK     1      17.879   3.057  33.019  1.00  0.00    -0.259 OA
HETATM    4  C1  UNK     1      18.063   7.121  32.776  1.00  0.00     0.001 A 
HETATM    5  C2  UNK     1      18.420   4.968  31.727  1.00  0.00     0.108 A 
HETATM    6  C3  UNK     1      17.605   6.495  33.931  1.00  0.00     0.089 A 
HETATM    7  C4  UNK     1      18.480   6.302  31.649  1.00  0.00     0.037 A 
HETATM    8  C8  UNK     1      18.109   8.518  32.740  1.00  0.00     0.038 A 
HETATM    9  C9  UNK     1      17.935   4.279  32.944  1.00  0.00     0.304 A 
HETATM   10  C10 UNK     1      17.192   7.222  35.046  1.00  0.00     0.040 A 
HETATM   11  C11 UNK     1      17.698   9.260  33.850  1.00  0.00     0.035 A 
HETATM   12  C12 UNK     1      17.240   8.614  35.001  1.00  0.00     0.026 A 
ENDROOT
BRANCH   5  13
HETATM   13  C6  UNK     1      18.861   4.228  30.538  1.00  0.00     0.258 C 
HETATM   14  O2  UNK     1      19.695   4.705  29.771  1.00  0.00    -0.267 OA
HETATM   15  N1  UNK     1      18.245   2.996  30.412  1.00  0.00    -0.352 N 
HETATM   16  H4  UNK     1      17.579   2.683  31.112  1.00  0.00     0.163 HD
BRANCH  15  17
HETATM   17  C5  UNK     1      18.516   2.088  29.321  1.00  0.00     0.162 C 
BRANCH  17  18
HETATM   18  C7  UNK     1      19.271   0.899  29.835  1.00  0.00    -0.023 A 
HETATM   19  C13 UNK     1      20.004   0.103  28.971  1.00  0.00     0.012 A 
HETATM   20  C15 UNK     1      20.693  -0.995  29.476  1.00  0.00     0.020 A 
HETATM   21  C16 UNK     1      20.611  -1.242  30.837  1.00  0.00     0.116 A 
HETATM   22  N2  UNK     1      19.904  -0.482  31.703  1.00  0.00    -0.273 NA
HETATM   23  C14 UNK     1      19.247   0.576  31.176  1.00  0.00     0.124 A 
ENDBRANCH  17  18
ENDBRANCH  15  17
ENDBRANCH   5  13
TORSDOF 3
ENDMDL
