MODEL 1
REMARK VINA RESULT:      -8.2      0.000      0.000
REMARK  5 active torsions:
REMARK  status: ('A' for Active; 'I' for Inactive)
REMARK    1  A    between atoms: C16_23  and  O2_3 
REMARK    2  A    between atoms: C5_12  and  O2_3 
REMARK    3  A    between atoms: C7_14  and  O3_4 
REMARK    4  A    between atoms: C11_18  and  O4_5 
REMARK    5  A    between atoms: C1_8  and  C2_9 
ROOT
HETATM    1 Cl1  UNK     1      18.520   6.172  30.140  1.00  0.00    -0.084 Cl
HETATM    2  O1  UNK     1      18.384   1.690  33.943  1.00  0.00    -0.306 OA
HETATM    3  O5  UNK     1      19.131   0.845  30.027  1.00  0.00    -0.284 OA
HETATM    4  C1  UNK     1      18.612   0.391  33.513  1.00  0.00     0.127 A 
HETATM    5  C3  UNK     1      18.680   2.479  31.666  1.00  0.00     0.052 A 
HETATM    6  C4  UNK     1      18.426   2.700  33.018  1.00  0.00     0.090 A 
HETATM    7  C5  UNK     1      18.857   0.041  32.238  1.00  0.00     0.164 A 
HETATM    8  C6  UNK     1      18.910   1.101  31.202  1.00  0.00     0.221 A 
HETATM    9  C9  UNK     1      18.710   3.549  30.769  1.00  0.00     0.042 A 
HETATM   10  C10 UNK     1      18.202   3.997  33.483  1.00  0.00     0.040 A 
HETATM   11  C14 UNK     1      18.486   4.845  31.236  1.00  0.00     0.035 A 
HETATM   12  C15 UNK     1      18.233   5.069  32.590  1.00  0.00     0.026 A 
ENDROOT
BRANCH   4  13
HETATM   13  C2  UNK     1      18.537  -0.596  34.605  1.00  0.00     0.037 A 
HETATM   14  C7  UNK     1      17.338  -0.833  35.279  1.00  0.00     0.081 A 
HETATM   15  C12 UNK     1      17.290  -1.771  36.311  1.00  0.00     0.040 A 
HETATM   16  C13 UNK     1      18.441  -2.473  36.667  1.00  0.00     0.039 A 
HETATM   17  C11 UNK     1      19.639  -2.238  35.993  1.00  0.00     0.069 A 
HETATM   18  C8  UNK     1      19.687  -1.299  34.963  1.00  0.00     0.054 A 
BRANCH  14  19
HETATM   19  O3  UNK     1      16.198  -0.160  34.950  1.00  0.00    -0.355 OA
HETATM   20  C17 UNK     1      15.545   0.557  35.994  1.00  0.00     0.210 C 
ENDBRANCH  14  19
BRANCH  17  21
HETATM   21  O4  UNK     1      20.762  -2.924  36.342  1.00  0.00    -0.356 OA
HETATM   22  C18 UNK     1      20.588  -4.081  37.159  1.00  0.00     0.210 C 
ENDBRANCH  17  21
ENDBRANCH   4  13
BRANCH   7  23
HETATM   23  O2  UNK     1      19.047  -1.264  31.838  1.00  0.00    -0.272 OA
BRANCH  23  24
HETATM   24  C16 UNK     1      20.323  -1.540  31.416  1.00  0.00     0.260 C 
HETATM   25  O6  UNK     1      21.372  -1.224  31.964  1.00  0.00    -0.265 OA
HETATM   26  C19 UNK     1      20.258  -2.329  30.142  1.00  0.00     0.126 C 
ENDBRANCH  23  24
ENDBRANCH   7  23
TORSDOF 5
ENDMDL
MODEL 2
REMARK VINA RESULT:      -7.7     12.218     14.287
REMARK  5 active torsions:
REMARK  status: ('A' for Active; 'I' for Inactive)
REMARK    1  A    between atoms: C16_23  and  O2_3 
REMARK    2  A    between atoms: C5_12  and  O2_3 
REMARK    3  A    between atoms: C7_14  and  O3_4 
REMARK    4  A    between atoms: C11_18  and  O4_5 
REMARK    5  A    between atoms: C1_8  and  C2_9 
ROOT
HETATM    1 Cl1  UNK     1      27.645  -9.215  29.116  1.00  0.00    -0.084 Cl
HETATM    2  O1  UNK     1      28.805  -6.461  34.179  1.00  0.00    -0.306 OA
HETATM    3  O5  UNK     1      30.655 -10.024  33.480  1.00  0.00    -0.284 OA
HETATM    4  C1  UNK     1      29.691  -7.008  35.095  1.00  0.00     0.127 A 
HETATM    5  C3  UNK     1      29.170  -8.361  32.713  1.00  0.00     0.052 A 
HETATM    6  C4  UNK     1      28.567  -7.141  33.013  1.00  0.00     0.090 A 
HETATM    7  C5  UNK     1      30.329  -8.181  34.932  1.00  0.00     0.164 A 
HETATM    8  C6  UNK     1      30.101  -8.953  33.686  1.00  0.00     0.221 A 
HETATM    9  C9  UNK     1      28.888  -9.008  31.508  1.00  0.00     0.042 A 
HETATM   10  C10 UNK     1      27.678  -6.560  32.108  1.00  0.00     0.040 A 
HETATM   11  C14 UNK     1      27.999  -8.426  30.603  1.00  0.00     0.035 A 
HETATM   12  C15 UNK     1      27.396  -7.203  30.903  1.00  0.00     0.026 A 
ENDROOT
BRANCH   4  13
HETATM   13  C2  UNK     1      29.854  -6.179  36.302  1.00  0.00     0.037 A 
HETATM   14  C7  UNK     1      30.798  -5.153  36.348  1.00  0.00     0.081 A 
HETATM   15  C12 UNK     1      30.937  -4.382  37.502  1.00  0.00     0.040 A 
HETATM   16  C13 UNK     1      30.129  -4.636  38.610  1.00  0.00     0.039 A 
HETATM   17  C11 UNK     1      29.185  -5.661  38.565  1.00  0.00     0.069 A 
HETATM   18  C8  UNK     1      29.047  -6.433  37.412  1.00  0.00     0.054 A 
BRANCH  14  19
HETATM   19  O3  UNK     1      31.600  -4.883  35.278  1.00  0.00    -0.355 OA
HETATM   20  C17 UNK     1      32.912  -4.401  35.557  1.00  0.00     0.210 C 
ENDBRANCH  14  19
BRANCH  17  21
HETATM   21  O4  UNK     1      28.397  -5.908  39.647  1.00  0.00    -0.356 OA
HETATM   22  C18 UNK     1      27.756  -7.182  39.706  1.00  0.00     0.210 C 
ENDBRANCH  17  21
ENDBRANCH   4  13
BRANCH   7  23
HETATM   23  O2  UNK     1      31.179  -8.713  35.877  1.00  0.00    -0.272 OA
BRANCH  23  24
HETATM   24  C16 UNK     1      32.471  -8.259  35.788  1.00  0.00     0.260 C 
HETATM   25  O6  UNK     1      33.119  -8.057  34.769  1.00  0.00    -0.265 OA
HETATM   26  C19 UNK     1      33.001  -8.018  37.171  1.00  0.00     0.126 C 
ENDBRANCH  23  24
ENDBRANCH   7  23
TORSDOF 5
ENDMDL
MODEL 3
REMARK VINA RESULT:      -7.6     24.158     26.937
REMARK  5 active torsions:
REMARK  status: ('A' for Active; 'I' for Inactive)
REMARK    1  A    between atoms: C16_23  and  O2_3 
REMARK    2  A    between atoms: C5_12  and  O2_3 
REMARK    3  A    between atoms: C7_14  and  O3_4 
REMARK    4  A    between atoms: C11_18  and  O4_5 
REMARK    5  A    between atoms: C1_8  and  C2_9 
ROOT
HETATM    1 Cl1  UNK     1       8.159   5.532   7.154  1.00  0.00    -0.084 Cl
HETATM    2  O1  UNK     1      13.409   8.046   7.985  1.00  0.00    -0.306 OA
HETATM    3  O5  UNK     1      10.309   9.292  10.317  1.00  0.00    -0.284 OA
HETATM    4  C1  UNK     1      13.580   9.022   8.955  1.00  0.00     0.127 A 
HETATM    5  C3  UNK     1      11.066   7.869   8.596  1.00  0.00     0.052 A 
HETATM    6  C4  UNK     1      12.166   7.490   7.829  1.00  0.00     0.090 A 
HETATM    7  C5  UNK     1      12.600   9.485   9.752  1.00  0.00     0.164 A 
HETATM    8  C6  UNK     1      11.238   8.914   9.618  1.00  0.00     0.221 A 
HETATM    9  C9  UNK     1       9.823   7.267   8.392  1.00  0.00     0.042 A 
HETATM   10  C10 UNK     1      12.028   6.504   6.851  1.00  0.00     0.040 A 
HETATM   11  C14 UNK     1       9.687   6.281   7.414  1.00  0.00     0.035 A 
HETATM   12  C15 UNK     1      10.788   5.900   6.646  1.00  0.00     0.026 A 
ENDROOT
BRANCH   4  13
HETATM   13  C2  UNK     1      14.960   9.536   9.016  1.00  0.00     0.037 A 
HETATM   14  C7  UNK     1      15.922   8.920   9.817  1.00  0.00     0.081 A 
HETATM   15  C12 UNK     1      17.221   9.424   9.860  1.00  0.00     0.040 A 
HETATM   16  C13 UNK     1      17.560  10.544   9.101  1.00  0.00     0.039 A 
HETATM   17  C11 UNK     1      16.599  11.161   8.300  1.00  0.00     0.069 A 
HETATM   18  C8  UNK     1      15.299  10.657   8.257  1.00  0.00     0.054 A 
BRANCH  14  19
HETATM   19  O3  UNK     1      15.618   7.822  10.568  1.00  0.00    -0.355 OA
HETATM   20  C17 UNK     1      16.168   6.577  10.147  1.00  0.00     0.210 C 
ENDBRANCH  14  19
BRANCH  17  21
HETATM   21  O4  UNK     1      16.930  12.254   7.560  1.00  0.00    -0.356 OA
HETATM   22  C18 UNK     1      18.253  12.302   7.028  1.00  0.00     0.210 C 
ENDBRANCH  17  21
ENDBRANCH   4  13
BRANCH   7  23
HETATM   23  O2  UNK     1      12.796  10.480  10.685  1.00  0.00    -0.272 OA
BRANCH  23  24
HETATM   24  C16 UNK     1      13.141  10.020  11.931  1.00  0.00     0.260 C 
HETATM   25  O6  UNK     1      12.679   9.051  12.520  1.00  0.00    -0.265 OA
HETATM   26  C19 UNK     1      14.219  10.897  12.495  1.00  0.00     0.126 C 
ENDBRANCH  23  24
ENDBRANCH   7  23
TORSDOF 5
ENDMDL
MODEL 4
REMARK VINA RESULT:      -7.6     24.612     26.479
REMARK  5 active torsions:
REMARK  status: ('A' for Active; 'I' for Inactive)
REMARK    1  A    between atoms: C16_23  and  O2_3 
REMARK    2  A    between atoms: C5_12  and  O2_3 
REMARK    3  A    between atoms: C7_14  and  O3_4 
REMARK    4  A    between atoms: C11_18  and  O4_5 
REMARK    5  A    between atoms: C1_8  and  C2_9 
ROOT
HETATM    1 Cl1  UNK     1      19.734  12.200   9.434  1.00  0.00    -0.084 Cl
HETATM    2  O1  UNK     1      14.497   9.731   8.409  1.00  0.00    -0.306 OA
HETATM    3  O5  UNK     1      17.052   7.804  10.932  1.00  0.00    -0.284 OA
HETATM    4  C1  UNK     1      14.147   8.537   9.021  1.00  0.00     0.127 A 
HETATM    5  C3  UNK     1      16.647   9.660   9.535  1.00  0.00     0.052 A 
HETATM    6  C4  UNK     1      15.730  10.266   8.680  1.00  0.00     0.090 A 
HETATM    7  C5  UNK     1      14.943   7.846   9.856  1.00  0.00     0.164 A 
HETATM    8  C6  UNK     1      16.286   8.386  10.177  1.00  0.00     0.221 A 
HETATM    9  C9  UNK     1      17.889  10.253   9.772  1.00  0.00     0.042 A 
HETATM   10  C10 UNK     1      16.049  11.474   8.056  1.00  0.00     0.040 A 
HETATM   11  C14 UNK     1      18.207  11.460   9.149  1.00  0.00     0.035 A 
HETATM   12  C15 UNK     1      17.288  12.070   8.292  1.00  0.00     0.026 A 
ENDROOT
BRANCH   4  13
HETATM   13  C2  UNK     1      12.800   8.072   8.643  1.00  0.00     0.037 A 
HETATM   14  C7  UNK     1      11.697   8.324   9.459  1.00  0.00     0.081 A 
HETATM   15  C12 UNK     1      10.432   7.873   9.083  1.00  0.00     0.040 A 
HETATM   16  C13 UNK     1      10.270   7.170   7.889  1.00  0.00     0.039 A 
HETATM   17  C11 UNK     1      11.372   6.917   7.073  1.00  0.00     0.069 A 
HETATM   18  C8  UNK     1      12.638   7.368   7.450  1.00  0.00     0.054 A 
BRANCH  14  19
HETATM   19  O3  UNK     1      11.828   9.010  10.631  1.00  0.00    -0.355 OA
HETATM   20  C17 UNK     1      11.315  10.340  10.664  1.00  0.00     0.210 C 
ENDBRANCH  14  19
BRANCH  17  21
HETATM   21  O4  UNK     1      11.214   6.231   5.909  1.00  0.00    -0.356 OA
HETATM   22  C18 UNK     1       9.878   6.048   5.440  1.00  0.00     0.210 C 
ENDBRANCH  17  21
ENDBRANCH   4  13
BRANCH   7  23
HETATM   23  O2  UNK     1      14.577   6.644  10.423  1.00  0.00    -0.272 OA
BRANCH  23  24
HETATM   24  C16 UNK     1      14.915   5.545   9.673  1.00  0.00     0.260 C 
HETATM   25  O6  UNK     1      16.031   5.227   9.281  1.00  0.00    -0.265 OA
HETATM   26  C19 UNK     1      13.679   4.741   9.397  1.00  0.00     0.126 C 
ENDBRANCH  23  24
ENDBRANCH   7  23
TORSDOF 5
ENDMDL
MODEL 5
REMARK VINA RESULT:      -7.5     12.041     13.941
REMARK  5 active torsions:
REMARK  status: ('A' for Active; 'I' for Inactive)
REMARK    1  A    between atoms: C16_23  and  O2_3 
REMARK    2  A    between atoms: C5_12  and  O2_3 
REMARK    3  A    between atoms: C7_14  and  O3_4 
REMARK    4  A    between atoms: C11_18  and  O4_5 
REMARK    5  A    between atoms: C1_8  and  C2_9 
ROOT
HETATM    1 Cl1  UNK     1      28.004  -9.170  29.059  1.00  0.00    -0.084 Cl
HETATM    2  O1  UNK     1      28.369  -6.802  34.428  1.00  0.00    -0.306 OA
HETATM    3  O5  UNK     1      29.664 -10.635  33.944  1.00  0.00    -0.284 OA
HETATM    4  C1  UNK     1      28.892  -7.528  35.488  1.00  0.00     0.127 A 
HETATM    5  C3  UNK     1      28.733  -8.703  32.963  1.00  0.00     0.052 A 
HETATM    6  C4  UNK     1      28.305  -7.398  33.196  1.00  0.00     0.090 A 
HETATM    7  C5  UNK     1      29.329  -8.797  35.400  1.00  0.00     0.164 A 
HETATM    8  C6  UNK     1      29.277  -9.483  34.086  1.00  0.00     0.221 A 
HETATM    9  C9  UNK     1      28.643  -9.258  31.685  1.00  0.00     0.042 A 
HETATM   10  C10 UNK     1      27.782  -6.637  32.149  1.00  0.00     0.040 A 
HETATM   11  C14 UNK     1      28.121  -8.496  30.638  1.00  0.00     0.035 A 
HETATM   12  C15 UNK     1      27.692  -7.188  30.870  1.00  0.00     0.026 A 
ENDROOT
BRANCH   4  13
HETATM   13  C2  UNK     1      28.901  -6.773  36.753  1.00  0.00     0.037 A 
HETATM   14  C7  UNK     1      27.808  -6.806  37.619  1.00  0.00     0.081 A 
HETATM   15  C12 UNK     1      27.839  -6.081  38.810  1.00  0.00     0.040 A 
HETATM   16  C13 UNK     1      28.964  -5.325  39.137  1.00  0.00     0.039 A 
HETATM   17  C11 UNK     1      30.057  -5.291  38.272  1.00  0.00     0.069 A 
HETATM   18  C8  UNK     1      30.026  -6.015  37.080  1.00  0.00     0.054 A 
BRANCH  14  19
HETATM   19  O3  UNK     1      26.696  -7.538  37.324  1.00  0.00    -0.355 OA
HETATM   20  C17 UNK     1      26.164  -8.355  38.364  1.00  0.00     0.210 C 
ENDBRANCH  14  19
BRANCH  17  21
HETATM   21  O4  UNK     1      31.155  -4.552  38.591  1.00  0.00    -0.356 OA
HETATM   22  C18 UNK     1      32.428  -5.170  38.409  1.00  0.00     0.210 C 
ENDBRANCH  17  21
ENDBRANCH   4  13
BRANCH   7  23
HETATM   23  O2  UNK     1      29.814  -9.503  36.480  1.00  0.00    -0.272 OA
BRANCH  23  24
HETATM   24  C16 UNK     1      31.157  -9.335  36.702  1.00  0.00     0.260 C 
HETATM   25  O6  UNK     1      32.045  -9.252  35.863  1.00  0.00    -0.265 OA
HETATM   26  C19 UNK     1      31.402  -9.249  38.180  1.00  0.00     0.126 C 
ENDBRANCH  23  24
ENDBRANCH   7  23
TORSDOF 5
ENDMDL
MODEL 6
REMARK VINA RESULT:      -7.4      3.472      7.545
REMARK  5 active torsions:
REMARK  status: ('A' for Active; 'I' for Inactive)
REMARK    1  A    between atoms: C16_23  and  O2_3 
REMARK    2  A    between atoms: C5_12  and  O2_3 
REMARK    3  A    between atoms: C7_14  and  O3_4 
REMARK    4  A    between atoms: C11_18  and  O4_5 
REMARK    5  A    between atoms: C1_8  and  C2_9 
ROOT
HETATM    1 Cl1  UNK     1      18.940  -1.884  35.323  1.00  0.00    -0.084 Cl
HETATM    2  O1  UNK     1      18.208   3.903  34.585  1.00  0.00    -0.306 OA
HETATM    3  O5  UNK     1      18.246   1.547  31.260  1.00  0.00    -0.284 OA
HETATM    4  C1  UNK     1      18.043   4.439  33.316  1.00  0.00     0.127 A 
HETATM    5  C3  UNK     1      18.395   1.688  33.609  1.00  0.00     0.052 A 
HETATM    6  C4  UNK     1      18.376   2.548  34.705  1.00  0.00     0.090 A 
HETATM    7  C5  UNK     1      18.052   3.721  32.179  1.00  0.00     0.164 A 
HETATM    8  C6  UNK     1      18.232   2.252  32.260  1.00  0.00     0.221 A 
HETATM    9  C9  UNK     1      18.569   0.315  33.794  1.00  0.00     0.042 A 
HETATM   10  C10 UNK     1      18.531   2.039  35.995  1.00  0.00     0.040 A 
HETATM   11  C14 UNK     1      18.724  -0.194  35.084  1.00  0.00     0.035 A 
HETATM   12  C15 UNK     1      18.704   0.667  36.183  1.00  0.00     0.026 A 
ENDROOT
BRANCH   4  13
HETATM   13  C2  UNK     1      17.875   5.903  33.329  1.00  0.00     0.037 A 
HETATM   14  C7  UNK     1      18.957   6.749  33.576  1.00  0.00     0.081 A 
HETATM   15  C12 UNK     1      18.775   8.131  33.585  1.00  0.00     0.040 A 
HETATM   16  C13 UNK     1      17.511   8.669  33.344  1.00  0.00     0.039 A 
HETATM   17  C11 UNK     1      16.429   7.824  33.096  1.00  0.00     0.069 A 
HETATM   18  C8  UNK     1      16.611   6.441  33.089  1.00  0.00     0.054 A 
BRANCH  14  19
HETATM   19  O3  UNK     1      20.204   6.249  33.814  1.00  0.00    -0.355 OA
HETATM   20  C17 UNK     1      21.219   6.561  32.863  1.00  0.00     0.210 C 
ENDBRANCH  14  19
BRANCH  17  21
HETATM   21  O4  UNK     1      15.196   8.350  32.862  1.00  0.00    -0.356 OA
HETATM   22  C18 UNK     1      14.173   7.445  32.448  1.00  0.00     0.210 C 
ENDBRANCH  17  21
ENDBRANCH   4  13
BRANCH   7  23
HETATM   23  O2  UNK     1      17.917   4.289  30.930  1.00  0.00    -0.272 OA
BRANCH  23  24
HETATM   24  C16 UNK     1      19.050   4.915  30.473  1.00  0.00     0.260 C 
HETATM   25  O6  UNK     1      20.197   4.488  30.502  1.00  0.00    -0.265 OA
HETATM   26  C19 UNK     1      18.674   6.247  29.895  1.00  0.00     0.126 C 
ENDBRANCH  23  24
ENDBRANCH   7  23
TORSDOF 5
ENDMDL
MODEL 7
REMARK VINA RESULT:      -7.3     12.140     15.006
REMARK  5 active torsions:
REMARK  status: ('A' for Active; 'I' for Inactive)
REMARK    1  A    between atoms: C16_23  and  O2_3 
REMARK    2  A    between atoms: C5_12  and  O2_3 
REMARK    3  A    between atoms: C7_14  and  O3_4 
REMARK    4  A    between atoms: C11_18  and  O4_5 
REMARK    5  A    between atoms: C1_8  and  C2_9 
ROOT
HETATM    1 Cl1  UNK     1      25.983  -6.666  30.222  1.00  0.00    -0.084 Cl
HETATM    2  O1  UNK     1      31.196  -5.918  32.837  1.00  0.00    -0.306 OA
HETATM    3  O5  UNK     1      28.247  -7.765  34.957  1.00  0.00    -0.284 OA
HETATM    4  C1  UNK     1      31.409  -6.370  34.130  1.00  0.00     0.127 A 
HETATM    5  C3  UNK     1      28.915  -6.742  32.940  1.00  0.00     0.052 A 
HETATM    6  C4  UNK     1      29.963  -6.116  32.271  1.00  0.00     0.090 A 
HETATM    7  C5  UNK     1      30.480  -6.980  34.888  1.00  0.00     0.164 A 
HETATM    8  C6  UNK     1      29.131  -7.213  34.318  1.00  0.00     0.221 A 
HETATM    9  C9  UNK     1      27.680  -6.916  32.312  1.00  0.00     0.042 A 
HETATM   10  C10 UNK     1      29.783  -5.657  30.965  1.00  0.00     0.040 A 
HETATM   11  C14 UNK     1      27.501  -6.458  31.006  1.00  0.00     0.035 A 
HETATM   12  C15 UNK     1      28.551  -5.830  30.334  1.00  0.00     0.026 A 
ENDROOT
BRANCH   4  13
HETATM   13  C2  UNK     1      32.772  -6.093  34.618  1.00  0.00     0.037 A 
HETATM   14  C7  UNK     1      33.097  -4.859  35.184  1.00  0.00     0.081 A 
HETATM   15  C12 UNK     1      34.394  -4.618  35.636  1.00  0.00     0.040 A 
HETATM   16  C13 UNK     1      35.366  -5.612  35.526  1.00  0.00     0.039 A 
HETATM   17  C11 UNK     1      35.042  -6.845  34.961  1.00  0.00     0.069 A 
HETATM   18  C8  UNK     1      33.746  -7.086  34.507  1.00  0.00     0.054 A 
BRANCH  14  19
HETATM   19  O3  UNK     1      32.165  -3.871  35.305  1.00  0.00    -0.355 OA
HETATM   20  C17 UNK     1      32.176  -3.114  36.513  1.00  0.00     0.210 C 
ENDBRANCH  14  19
BRANCH  17  21
HETATM   21  O4  UNK     1      35.992  -7.814  34.853  1.00  0.00    -0.356 OA
HETATM   22  C18 UNK     1      37.194  -7.471  34.163  1.00  0.00     0.210 C 
ENDBRANCH  17  21
ENDBRANCH   4  13
BRANCH   7  23
HETATM   23  O2  UNK     1      30.715  -7.388  36.183  1.00  0.00    -0.272 OA
BRANCH  23  24
HETATM   24  C16 UNK     1      30.498  -6.415  37.126  1.00  0.00     0.260 C 
HETATM   25  O6  UNK     1      29.605  -5.577  37.137  1.00  0.00    -0.265 OA
HETATM   26  C19 UNK     1      31.543  -6.529  38.197  1.00  0.00     0.126 C 
ENDBRANCH  23  24
ENDBRANCH   7  23
TORSDOF 5
ENDMDL
MODEL 8
REMARK VINA RESULT:      -7.3     12.541     14.271
REMARK  5 active torsions:
REMARK  status: ('A' for Active; 'I' for Inactive)
REMARK    1  A    between atoms: C16_23  and  O2_3 
REMARK    2  A    between atoms: C5_12  and  O2_3 
REMARK    3  A    between atoms: C7_14  and  O3_4 
REMARK    4  A    between atoms: C11_18  and  O4_5 
REMARK    5  A    between atoms: C1_8  and  C2_9 
ROOT
HETATM    1 Cl1  UNK     1      31.084  -6.555  28.875  1.00  0.00    -0.084 Cl
HETATM    2  O1  UNK     1      29.327  -6.153  34.472  1.00  0.00    -0.306 OA
HETATM    3  O5  UNK     1      32.126  -8.967  33.550  1.00  0.00    -0.284 OA
HETATM    4  C1  UNK     1      29.863  -6.986  35.442  1.00  0.00     0.127 A 
HETATM    5  C3  UNK     1      30.725  -7.225  32.801  1.00  0.00     0.052 A 
HETATM    6  C4  UNK     1      29.769  -6.286  33.181  1.00  0.00     0.090 A 
HETATM    7  C5  UNK     1      30.782  -7.938  35.207  1.00  0.00     0.164 A 
HETATM    8  C6  UNK     1      31.288  -8.120  33.825  1.00  0.00     0.221 A 
HETATM    9  C9  UNK     1      31.136  -7.314  31.470  1.00  0.00     0.042 A 
HETATM   10  C10 UNK     1      29.217  -5.427  32.229  1.00  0.00     0.040 A 
HETATM   11  C14 UNK     1      30.584  -6.454  30.519  1.00  0.00     0.035 A 
HETATM   12  C15 UNK     1      29.627  -5.512  30.898  1.00  0.00     0.026 A 
ENDROOT
BRANCH   4  13
HETATM   13  C2  UNK     1      29.301  -6.740  36.783  1.00  0.00     0.037 A 
HETATM   14  C7  UNK     1      29.686  -5.628  37.532  1.00  0.00     0.081 A 
HETATM   15  C12 UNK     1      29.143  -5.417  38.799  1.00  0.00     0.040 A 
HETATM   16  C13 UNK     1      28.213  -6.318  39.317  1.00  0.00     0.039 A 
HETATM   17  C11 UNK     1      27.828  -7.430  38.569  1.00  0.00     0.069 A 
HETATM   18  C8  UNK     1      28.371  -7.641  37.302  1.00  0.00     0.054 A 
BRANCH  14  19
HETATM   19  O3  UNK     1      30.593  -4.731  37.048  1.00  0.00    -0.355 OA
HETATM   20  C17 UNK     1      31.857  -4.670  37.704  1.00  0.00     0.210 C 
ENDBRANCH  14  19
BRANCH  17  21
HETATM   21  O4  UNK     1      26.920  -8.309  39.076  1.00  0.00    -0.356 OA
HETATM   22  C18 UNK     1      27.367  -9.645  39.302  1.00  0.00     0.210 C 
ENDBRANCH  17  21
ENDBRANCH   4  13
BRANCH   7  23
HETATM   23  O2  UNK     1      31.271  -8.772  36.189  1.00  0.00    -0.272 OA
BRANCH  23  24
HETATM   24  C16 UNK     1      32.339  -8.258  36.880  1.00  0.00     0.260 C 
HETATM   25  O6  UNK     1      33.369  -7.788  36.414  1.00  0.00    -0.265 OA
HETATM   26  C19 UNK     1      32.057  -8.341  38.351  1.00  0.00     0.126 C 
ENDBRANCH  23  24
ENDBRANCH   7  23
TORSDOF 5
ENDMDL
MODEL 9
REMARK VINA RESULT:      -7.2     12.160     14.714
REMARK  5 active torsions:
REMARK  status: ('A' for Active; 'I' for Inactive)
REMARK    1  A    between atoms: C16_23  and  O2_3 
REMARK    2  A    between atoms: C5_12  and  O2_3 
REMARK    3  A    between atoms: C7_14  and  O3_4 
REMARK    4  A    between atoms: C11_18  and  O4_5 
REMARK    5  A    between atoms: C1_8  and  C2_9 
ROOT
HETATM    1 Cl1  UNK     1      28.169  -7.752  39.247  1.00  0.00    -0.084 Cl
HETATM    2  O1  UNK     1      28.512  -9.211  33.562  1.00  0.00    -0.306 OA
HETATM    3  O5  UNK     1      30.641  -5.978  34.831  1.00  0.00    -0.284 OA
HETATM    4  C1  UNK     1      29.304  -8.479  32.690  1.00  0.00     0.127 A 
HETATM    5  C3  UNK     1      29.170  -7.739  35.375  1.00  0.00     0.052 A 
HETATM    6  C4  UNK     1      28.464  -8.831  34.878  1.00  0.00     0.090 A 
HETATM    7  C5  UNK     1      30.025  -7.400  33.040  1.00  0.00     0.164 A 
HETATM    8  C6  UNK     1      30.003  -6.950  34.453  1.00  0.00     0.221 A 
HETATM    9  C9  UNK     1      29.083  -7.399  36.727  1.00  0.00     0.042 A 
HETATM   10  C10 UNK     1      27.665  -9.594  35.731  1.00  0.00     0.040 A 
HETATM   11  C14 UNK     1      28.284  -8.162  37.580  1.00  0.00     0.035 A 
HETATM   12  C15 UNK     1      27.577  -9.258  37.082  1.00  0.00     0.026 A 
ENDROOT
BRANCH   4  13
HETATM   13  C2  UNK     1      29.264  -8.992  31.309  1.00  0.00     0.037 A 
HETATM   14  C7  UNK     1      28.169  -8.740  30.480  1.00  0.00     0.081 A 
HETATM   15  C12 UNK     1      28.152  -9.237  29.177  1.00  0.00     0.040 A 
HETATM   16  C13 UNK     1      29.229  -9.984  28.702  1.00  0.00     0.039 A 
HETATM   17  C11 UNK     1      30.323 -10.235  29.529  1.00  0.00     0.069 A 
HETATM   18  C8  UNK     1      30.341  -9.740  30.833  1.00  0.00     0.054 A 
BRANCH  14  19
HETATM   19  O3  UNK     1      27.103  -8.012  30.920  1.00  0.00    -0.355 OA
HETATM   20  C17 UNK     1      26.743  -6.864  30.156  1.00  0.00     0.210 C 
ENDBRANCH  14  19
BRANCH  17  21
HETATM   21  O4  UNK     1      31.374 -10.964  29.064  1.00  0.00    -0.356 OA
HETATM   22  C18 UNK     1      32.205 -11.598  30.037  1.00  0.00     0.210 C 
ENDBRANCH  17  21
ENDBRANCH   4  13
BRANCH   7  23
HETATM   23  O2  UNK     1      30.778  -6.674  32.142  1.00  0.00    -0.272 OA
BRANCH  23  24
HETATM   24  C16 UNK     1      30.067  -5.722  31.455  1.00  0.00     0.260 C 
HETATM   25  O6  UNK     1      29.239  -4.943  31.908  1.00  0.00    -0.265 OA
HETATM   26  C19 UNK     1      30.470  -5.758  30.010  1.00  0.00     0.126 C 
ENDBRANCH  23  24
ENDBRANCH   7  23
TORSDOF 5
ENDMDL
MODEL 10
REMARK VINA RESULT:      -7.2     13.146     15.974
REMARK  5 active torsions:
REMARK  status: ('A' for Active; 'I' for Inactive)
REMARK    1  A    between atoms: C16_23  and  O2_3 
REMARK    2  A    between atoms: C5_12  and  O2_3 
REMARK    3  A    between atoms: C7_14  and  O3_4 
REMARK    4  A    between atoms: C11_18  and  O4_5 
REMARK    5  A    between atoms: C1_8  and  C2_9 
ROOT
HETATM    1 Cl1  UNK     1      37.436  -7.343  33.944  1.00  0.00    -0.084 Cl
HETATM    2  O1  UNK     1      31.894  -8.288  35.667  1.00  0.00    -0.306 OA
HETATM    3  O5  UNK     1      34.087  -5.538  37.724  1.00  0.00    -0.284 OA
HETATM    4  C1  UNK     1      31.356  -7.584  36.733  1.00  0.00     0.127 A 
HETATM    5  C3  UNK     1      33.992  -7.103  35.963  1.00  0.00     0.052 A 
HETATM    6  C4  UNK     1      33.191  -8.032  35.304  1.00  0.00     0.090 A 
HETATM    7  C5  UNK     1      32.024  -6.670  37.458  1.00  0.00     0.164 A 
HETATM    8  C6  UNK     1      33.430  -6.362  37.103  1.00  0.00     0.221 A 
HETATM    9  C9  UNK     1      35.307  -6.885  35.547  1.00  0.00     0.042 A 
HETATM   10  C10 UNK     1      33.701  -8.751  34.221  1.00  0.00     0.040 A 
HETATM   11  C14 UNK     1      35.816  -7.603  34.464  1.00  0.00     0.035 A 
HETATM   12  C15 UNK     1      35.014  -8.534  33.802  1.00  0.00     0.026 A 
ENDROOT
BRANCH   4  13
HETATM   13  C2  UNK     1      29.958  -7.956  37.019  1.00  0.00     0.037 A 
HETATM   14  C7  UNK     1      28.898  -7.323  36.370  1.00  0.00     0.081 A 
HETATM   15  C12 UNK     1      27.584  -7.690  36.658  1.00  0.00     0.040 A 
HETATM   16  C13 UNK     1      27.329  -8.691  37.595  1.00  0.00     0.039 A 
HETATM   17  C11 UNK     1      28.389  -9.324  38.244  1.00  0.00     0.069 A 
HETATM   18  C8  UNK     1      29.703  -8.957  37.957  1.00  0.00     0.054 A 
BRANCH  14  19
HETATM   19  O3  UNK     1      29.119  -6.342  35.449  1.00  0.00    -0.355 OA
HETATM   20  C17 UNK     1      28.892  -6.674  34.081  1.00  0.00     0.210 C 
ENDBRANCH  14  19
BRANCH  17  21
HETATM   21  O4  UNK     1      28.140 -10.301  39.159  1.00  0.00    -0.356 OA
HETATM   22  C18 UNK     1      27.012 -10.117  40.014  1.00  0.00     0.210 C 
ENDBRANCH  17  21
ENDBRANCH   4  13
BRANCH   7  23
HETATM   23  O2  UNK     1      31.469  -6.010  38.534  1.00  0.00    -0.272 OA
BRANCH  23  24
HETATM   24  C16 UNK     1      30.774  -4.875  38.197  1.00  0.00     0.260 C 
HETATM   25  O6  UNK     1      31.058  -4.061  37.328  1.00  0.00    -0.265 OA
HETATM   26  C19 UNK     1      29.558  -4.769  39.069  1.00  0.00     0.126 C 
ENDBRANCH  23  24
ENDBRANCH   7  23
TORSDOF 5
ENDMDL
