MODEL 1
REMARK VINA RESULT:      -8.6      0.000      0.000
REMARK  4 active torsions:
REMARK  status: ('A' for Active; 'I' for Inactive)
REMARK    1  A    between atoms: C11_18  and  O3_4 
REMARK    2  A    between atoms: C17_24  and  O3_4 
REMARK    3  A    between atoms: C1_8  and  C10_17 
REMARK    4  A    between atoms: C11_18  and  C6_13 
ROOT
HETATM    1  O1  UNK     1      32.075  -7.068  34.212  1.00  0.00    -0.293 OA
HETATM    2  N1  UNK     1      29.487  -5.117  37.668  1.00  0.00    -0.362 N 
HETATM    3  C1  UNK     1      29.629  -7.192  35.738  1.00  0.00     0.104 C 
HETATM    4  C2  UNK     1      30.681  -6.097  35.871  1.00  0.00     0.024 C 
HETATM    5  C3  UNK     1      30.556  -5.117  36.791  1.00  0.00     0.020 C 
HETATM    6  C4  UNK     1      31.537  -3.984  36.933  1.00  0.00     0.058 C 
HETATM    7  C5  UNK     1      32.361  -3.776  35.669  1.00  0.00     0.014 C 
HETATM    8  C6  UNK     1      28.590  -7.152  36.859  1.00  0.00     0.052 C 
HETATM    9  C7  UNK     1      32.966  -5.085  35.196  1.00  0.00     0.084 C 
HETATM   10  C8  UNK     1      31.905  -6.147  35.009  1.00  0.00     0.158 C 
HETATM   11  C9  UNK     1      28.543  -6.129  37.744  1.00  0.00     0.018 C 
HETATM   12  C13 UNK     1      27.533  -5.972  38.847  1.00  0.00     0.069 C 
HETATM   13  H8  UNK     1      29.430  -4.366  38.346  1.00  0.00     0.165 HD
ENDROOT
BRANCH   3  14
HETATM   14  C10 UNK     1      28.951  -7.102  34.396  1.00  0.00     0.029 A 
HETATM   15  C12 UNK     1      29.158  -8.203  33.423  1.00  0.00     0.194 A 
HETATM   16  O5  UNK     1      29.858  -9.176  33.677  1.00  0.00    -0.287 OA
HETATM   17  C15 UNK     1      28.472  -8.065  32.124  1.00  0.00     0.050 A 
HETATM   18  C16 UNK     1      27.687  -6.936  31.889  1.00  0.00     0.089 A 
HETATM   19  C18 UNK     1      28.604  -9.048  31.140  1.00  0.00     0.042 A 
HETATM   20  O2  UNK     1      27.522  -5.941  32.819  1.00  0.00    -0.321 OA
HETATM   21  C19 UNK     1      27.029  -6.784  30.668  1.00  0.00     0.040 A 
HETATM   22  C14 UNK     1      28.168  -6.083  34.023  1.00  0.00     0.154 A 
HETATM   23  C23 UNK     1      27.159  -7.765  29.685  1.00  0.00     0.026 A 
HETATM   24  C20 UNK     1      27.944  -8.894  29.920  1.00  0.00     0.035 A 
HETATM   25 Cl1  UNK     1      28.099 -10.101  28.701  1.00  0.00    -0.084 Cl
ENDBRANCH   3  14
BRANCH   8  26
HETATM   26  C11 UNK     1      27.681  -8.307  36.953  1.00  0.00     0.292 C 
HETATM   27  O4  UNK     1      26.483  -8.233  36.756  1.00  0.00    -0.259 OA
BRANCH  26  28
HETATM   28  O3  UNK     1      28.413  -9.400  37.279  1.00  0.00    -0.313 OA
BRANCH  28  29
HETATM   29  C17 UNK     1      29.023  -9.357  38.573  1.00  0.00     0.124 C 
HETATM   30  C21 UNK     1      28.170 -10.143  39.556  1.00  0.00     0.040 C 
HETATM   31  C22 UNK     1      30.437  -9.910  38.479  1.00  0.00     0.040 C 
ENDBRANCH  28  29
ENDBRANCH  26  28
ENDBRANCH   8  26
TORSDOF 4
ENDMDL
MODEL 2
REMARK VINA RESULT:      -8.4      1.676      1.874
REMARK  4 active torsions:
REMARK  status: ('A' for Active; 'I' for Inactive)
REMARK    1  A    between atoms: C11_18  and  O3_4 
REMARK    2  A    between atoms: C17_24  and  O3_4 
REMARK    3  A    between atoms: C1_8  and  C10_17 
REMARK    4  A    between atoms: C11_18  and  C6_13 
ROOT
HETATM    1  O1  UNK     1      32.895  -8.716  34.925  1.00  0.00    -0.293 OA
HETATM    2  N1  UNK     1      31.063  -5.800  38.179  1.00  0.00    -0.362 N 
HETATM    3  C1  UNK     1      30.488  -7.688  36.139  1.00  0.00     0.104 C 
HETATM    4  C2  UNK     1      31.899  -7.215  36.472  1.00  0.00     0.024 C 
HETATM    5  C3  UNK     1      32.118  -6.296  37.437  1.00  0.00     0.020 C 
HETATM    6  C4  UNK     1      33.483  -5.758  37.773  1.00  0.00     0.058 C 
HETATM    7  C5  UNK     1      34.474  -5.953  36.632  1.00  0.00     0.014 C 
HETATM    8  C6  UNK     1      29.443  -7.171  37.130  1.00  0.00     0.052 C 
HETATM    9  C7  UNK     1      34.460  -7.389  36.143  1.00  0.00     0.084 C 
HETATM   10  C8  UNK     1      33.064  -7.828  35.759  1.00  0.00     0.158 C 
HETATM   11  C9  UNK     1      29.756  -6.252  38.072  1.00  0.00     0.018 C 
HETATM   12  C13 UNK     1      28.795  -5.645  39.057  1.00  0.00     0.069 C 
HETATM   13  H8  UNK     1      31.269  -5.115  38.896  1.00  0.00     0.165 HD
ENDROOT
BRANCH   3  14
HETATM   14  C10 UNK     1      30.120  -7.281  34.737  1.00  0.00     0.029 A 
HETATM   15  C12 UNK     1      29.587  -8.316  33.816  1.00  0.00     0.194 A 
HETATM   16  O5  UNK     1      29.438  -9.482  34.162  1.00  0.00    -0.287 OA
HETATM   17  C15 UNK     1      29.243  -7.866  32.455  1.00  0.00     0.050 A 
HETATM   18  C16 UNK     1      29.433  -6.526  32.115  1.00  0.00     0.089 A 
HETATM   19  C18 UNK     1      28.734  -8.764  31.513  1.00  0.00     0.042 A 
HETATM   20  O2  UNK     1      29.929  -5.601  32.999  1.00  0.00    -0.321 OA
HETATM   21  C19 UNK     1      29.115  -6.077  30.833  1.00  0.00     0.040 A 
HETATM   22  C14 UNK     1      30.245  -6.036  34.264  1.00  0.00     0.154 A 
HETATM   23  C23 UNK     1      28.607  -6.973  29.893  1.00  0.00     0.026 A 
HETATM   24  C20 UNK     1      28.416  -8.313  30.232  1.00  0.00     0.035 A 
HETATM   25 Cl1  UNK     1      27.788  -9.413  29.065  1.00  0.00    -0.084 Cl
ENDBRANCH   3  14
BRANCH   8  26
HETATM   26  C11 UNK     1      28.100  -7.765  37.035  1.00  0.00     0.292 C 
HETATM   27  O4  UNK     1      27.132  -7.165  36.605  1.00  0.00    -0.259 OA
BRANCH  26  28
HETATM   28  O3  UNK     1      28.163  -9.038  37.494  1.00  0.00    -0.313 OA
BRANCH  28  29
HETATM   29  C17 UNK     1      26.931  -9.561  38.003  1.00  0.00     0.124 C 
HETATM   30  C21 UNK     1      26.297 -10.461  36.955  1.00  0.00     0.040 C 
HETATM   31  C22 UNK     1      27.202 -10.305  39.302  1.00  0.00     0.040 C 
ENDBRANCH  28  29
ENDBRANCH  26  28
ENDBRANCH   8  26
TORSDOF 4
ENDMDL
MODEL 3
REMARK VINA RESULT:      -8.2      3.544      7.061
REMARK  4 active torsions:
REMARK  status: ('A' for Active; 'I' for Inactive)
REMARK    1  A    between atoms: C11_18  and  O3_4 
REMARK    2  A    between atoms: C17_24  and  O3_4 
REMARK    3  A    between atoms: C1_8  and  C10_17 
REMARK    4  A    between atoms: C11_18  and  C6_13 
ROOT
HETATM    1  O1  UNK     1      32.368  -9.255  34.750  1.00  0.00    -0.293 OA
HETATM    2  N1  UNK     1      28.966 -10.075  31.555  1.00  0.00    -0.362 N 
HETATM    3  C1  UNK     1      30.085  -8.182  33.349  1.00  0.00     0.104 C 
HETATM    4  C2  UNK     1      30.583  -9.618  33.226  1.00  0.00     0.024 C 
HETATM    5  C3  UNK     1      30.001 -10.488  32.373  1.00  0.00     0.020 C 
HETATM    6  C4  UNK     1      30.419 -11.928  32.247  1.00  0.00     0.058 C 
HETATM    7  C5  UNK     1      31.174 -12.418  33.477  1.00  0.00     0.014 C 
HETATM    8  C6  UNK     1      29.043  -7.826  32.288  1.00  0.00     0.052 C 
HETATM    9  C7  UNK     1      32.294 -11.460  33.840  1.00  0.00     0.084 C 
HETATM   10  C8  UNK     1      31.778 -10.049  34.018  1.00  0.00     0.158 C 
HETATM   11  C9  UNK     1      28.517  -8.766  31.469  1.00  0.00     0.018 C 
HETATM   12  C13 UNK     1      27.455  -8.529  30.431  1.00  0.00     0.069 C 
HETATM   13  H8  UNK     1      28.558 -10.757  30.927  1.00  0.00     0.165 HD
ENDROOT
BRANCH   3  14
HETATM   14  C10 UNK     1      29.528  -7.941  34.727  1.00  0.00     0.029 A 
HETATM   15  C12 UNK     1      29.924  -6.703  35.444  1.00  0.00     0.194 A 
HETATM   16  O5  UNK     1      30.684  -5.879  34.951  1.00  0.00    -0.287 OA
HETATM   17  C15 UNK     1      29.351  -6.516  36.790  1.00  0.00     0.050 A 
HETATM   18  C16 UNK     1      28.490  -7.487  37.302  1.00  0.00     0.089 A 
HETATM   19  C18 UNK     1      29.662  -5.383  37.546  1.00  0.00     0.042 A 
HETATM   20  O2  UNK     1      28.149  -8.617  36.603  1.00  0.00    -0.321 OA
HETATM   21  C19 UNK     1      27.936  -7.331  38.572  1.00  0.00     0.040 A 
HETATM   22  C14 UNK     1      28.692  -8.778  35.351  1.00  0.00     0.154 A 
HETATM   23  C23 UNK     1      28.246  -6.201  39.329  1.00  0.00     0.026 A 
HETATM   24  C20 UNK     1      29.107  -5.229  38.817  1.00  0.00     0.035 A 
HETATM   25 Cl1  UNK     1      29.484  -3.836  39.757  1.00  0.00    -0.084 Cl
ENDBRANCH   3  14
BRANCH   8  26
HETATM   26  C11 UNK     1      28.683  -6.403  32.173  1.00  0.00     0.292 C 
HETATM   27  O4  UNK     1      27.563  -5.977  32.383  1.00  0.00    -0.259 OA
BRANCH  26  28
HETATM   28  O3  UNK     1      29.790  -5.711  31.812  1.00  0.00    -0.313 OA
BRANCH  28  29
HETATM   29  C17 UNK     1      29.845  -5.332  30.432  1.00  0.00     0.124 C 
HETATM   30  C21 UNK     1      30.064  -3.830  30.333  1.00  0.00     0.040 C 
HETATM   31  C22 UNK     1      30.952  -6.114  29.741  1.00  0.00     0.040 C 
ENDBRANCH  28  29
ENDBRANCH  26  28
ENDBRANCH   8  26
TORSDOF 4
ENDMDL
MODEL 4
REMARK VINA RESULT:      -8.2      2.301      4.495
REMARK  4 active torsions:
REMARK  status: ('A' for Active; 'I' for Inactive)
REMARK    1  A    between atoms: C11_18  and  O3_4 
REMARK    2  A    between atoms: C17_24  and  O3_4 
REMARK    3  A    between atoms: C1_8  and  C10_17 
REMARK    4  A    between atoms: C11_18  and  C6_13 
ROOT
HETATM    1  O1  UNK     1      30.577  -3.757  37.201  1.00  0.00    -0.293 OA
HETATM    2  N1  UNK     1      30.042  -8.378  38.099  1.00  0.00    -0.362 N 
HETATM    3  C1  UNK     1      31.400  -6.440  36.532  1.00  0.00     0.104 C 
HETATM    4  C2  UNK     1      30.303  -6.092  37.531  1.00  0.00     0.024 C 
HETATM    5  C3  UNK     1      29.670  -7.054  38.236  1.00  0.00     0.020 C 
HETATM    6  C4  UNK     1      28.547  -6.772  39.199  1.00  0.00     0.058 C 
HETATM    7  C5  UNK     1      27.881  -5.429  38.927  1.00  0.00     0.014 C 
HETATM    8  C6  UNK     1      31.807  -7.914  36.591  1.00  0.00     0.052 C 
HETATM    9  C7  UNK     1      28.917  -4.325  38.818  1.00  0.00     0.084 C 
HETATM   10  C8  UNK     1      29.967  -4.655  37.780  1.00  0.00     0.158 C 
HETATM   11  C9  UNK     1      31.115  -8.809  37.333  1.00  0.00     0.018 C 
HETATM   12  C13 UNK     1      31.402 -10.283  37.419  1.00  0.00     0.069 C 
HETATM   13  H8  UNK     1      29.546  -9.070  38.647  1.00  0.00     0.165 HD
ENDROOT
BRANCH   3  14
HETATM   14  C10 UNK     1      30.967  -6.076  35.137  1.00  0.00     0.029 A 
HETATM   15  C12 UNK     1      29.712  -6.665  34.608  1.00  0.00     0.194 A 
HETATM   16  O5  UNK     1      29.023  -7.432  35.269  1.00  0.00    -0.287 OA
HETATM   17  C15 UNK     1      29.334  -6.277  33.236  1.00  0.00     0.050 A 
HETATM   18  C16 UNK     1      30.156  -5.400  32.529  1.00  0.00     0.089 A 
HETATM   19  C18 UNK     1      28.170  -6.778  32.648  1.00  0.00     0.042 A 
HETATM   20  O2  UNK     1      31.309  -4.877  33.057  1.00  0.00    -0.321 OA
HETATM   21  C19 UNK     1      29.819  -5.018  31.230  1.00  0.00     0.040 A 
HETATM   22  C14 UNK     1      31.649  -5.248  34.336  1.00  0.00     0.154 A 
HETATM   23  C23 UNK     1      28.657  -5.517  30.642  1.00  0.00     0.026 A 
HETATM   24  C20 UNK     1      27.835  -6.395  31.349  1.00  0.00     0.035 A 
HETATM   25 Cl1  UNK     1      26.402  -7.007  30.616  1.00  0.00    -0.084 Cl
ENDBRANCH   3  14
BRANCH   8  26
HETATM   26  C11 UNK     1      33.017  -8.290  35.841  1.00  0.00     0.292 C 
HETATM   27  O4  UNK     1      33.001  -9.029  34.874  1.00  0.00    -0.259 OA
BRANCH  26  28
HETATM   28  O3  UNK     1      34.081  -7.680  36.414  1.00  0.00    -0.313 OA
BRANCH  28  29
HETATM   29  C17 UNK     1      34.739  -6.710  35.593  1.00  0.00     0.124 C 
HETATM   30  C21 UNK     1      35.064  -5.482  36.429  1.00  0.00     0.040 C 
HETATM   31  C22 UNK     1      35.988  -7.331  34.986  1.00  0.00     0.040 C 
ENDBRANCH  28  29
ENDBRANCH  26  28
ENDBRANCH   8  26
TORSDOF 4
ENDMDL
MODEL 5
REMARK VINA RESULT:      -8.1      1.896      2.444
REMARK  4 active torsions:
REMARK  status: ('A' for Active; 'I' for Inactive)
REMARK    1  A    between atoms: C11_18  and  O3_4 
REMARK    2  A    between atoms: C17_24  and  O3_4 
REMARK    3  A    between atoms: C1_8  and  C10_17 
REMARK    4  A    between atoms: C11_18  and  C6_13 
ROOT
HETATM    1  O1  UNK     1      33.566  -8.707  34.128  1.00  0.00    -0.293 OA
HETATM    2  N1  UNK     1      32.660  -5.372  37.368  1.00  0.00    -0.362 N 
HETATM    3  C1  UNK     1      31.538  -7.335  35.654  1.00  0.00     0.104 C 
HETATM    4  C2  UNK     1      33.023  -6.994  35.679  1.00  0.00     0.024 C 
HETATM    5  C3  UNK     1      33.505  -6.034  36.498  1.00  0.00     0.020 C 
HETATM    6  C4  UNK     1      34.953  -5.622  36.529  1.00  0.00     0.058 C 
HETATM    7  C5  UNK     1      35.688  -6.009  35.251  1.00  0.00     0.014 C 
HETATM    8  C6  UNK     1      30.752  -6.635  36.764  1.00  0.00     0.052 C 
HETATM    9  C7  UNK     1      35.449  -7.469  34.912  1.00  0.00     0.084 C 
HETATM   10  C8  UNK     1      33.971  -7.781  34.830  1.00  0.00     0.158 C 
HETATM   11  C9  UNK     1      31.321  -5.686  37.542  1.00  0.00     0.018 C 
HETATM   12  C13 UNK     1      30.623  -4.906  38.623  1.00  0.00     0.069 C 
HETATM   13  H8  UNK     1      33.060  -4.660  37.968  1.00  0.00     0.165 HD
ENDROOT
BRANCH   3  14
HETATM   14  C10 UNK     1      30.950  -6.999  34.309  1.00  0.00     0.029 A 
HETATM   15  C12 UNK     1      30.293  -8.080  33.533  1.00  0.00     0.194 A 
HETATM   16  O5  UNK     1      30.215  -9.229  33.952  1.00  0.00    -0.287 OA
HETATM   17  C15 UNK     1      29.735  -7.698  32.222  1.00  0.00     0.050 A 
HETATM   18  C16 UNK     1      29.852  -6.376  31.795  1.00  0.00     0.089 A 
HETATM   19  C18 UNK     1      29.097  -8.644  31.416  1.00  0.00     0.042 A 
HETATM   20  O2  UNK     1      30.467  -5.406  32.546  1.00  0.00    -0.321 OA
HETATM   21  C19 UNK     1      29.331  -5.991  30.559  1.00  0.00     0.040 A 
HETATM   22  C14 UNK     1      30.983  -5.777  33.764  1.00  0.00     0.154 A 
HETATM   23  C23 UNK     1      28.694  -6.934  29.753  1.00  0.00     0.026 A 
HETATM   24  C20 UNK     1      28.577  -8.257  30.180  1.00  0.00     0.035 A 
HETATM   25 Cl1  UNK     1      27.788  -9.415  29.179  1.00  0.00    -0.084 Cl
ENDBRANCH   3  14
BRANCH   8  26
HETATM   26  C11 UNK     1      29.365  -7.086  36.970  1.00  0.00     0.292 C 
HETATM   27  O4  UNK     1      28.411  -6.597  36.396  1.00  0.00    -0.259 OA
BRANCH  26  28
HETATM   28  O3  UNK     1      29.375  -8.096  37.872  1.00  0.00    -0.313 OA
BRANCH  28  29
HETATM   29  C17 UNK     1      28.125  -8.336  38.528  1.00  0.00     0.124 C 
HETATM   30  C21 UNK     1      28.120  -9.747  39.095  1.00  0.00     0.040 C 
HETATM   31  C22 UNK     1      27.918  -7.288  39.610  1.00  0.00     0.040 C 
ENDBRANCH  28  29
ENDBRANCH  26  28
ENDBRANCH   8  26
TORSDOF 4
ENDMDL
MODEL 6
REMARK VINA RESULT:      -8.1      2.549      5.477
REMARK  4 active torsions:
REMARK  status: ('A' for Active; 'I' for Inactive)
REMARK    1  A    between atoms: C11_18  and  O3_4 
REMARK    2  A    between atoms: C17_24  and  O3_4 
REMARK    3  A    between atoms: C1_8  and  C10_17 
REMARK    4  A    between atoms: C11_18  and  C6_13 
ROOT
HETATM    1  O1  UNK     1      26.963  -8.983  36.174  1.00  0.00    -0.293 OA
HETATM    2  N1  UNK     1      30.136  -5.722  37.495  1.00  0.00    -0.362 N 
HETATM    3  C1  UNK     1      29.256  -7.415  35.394  1.00  0.00     0.104 C 
HETATM    4  C2  UNK     1      28.641  -7.419  36.789  1.00  0.00     0.024 C 
HETATM    5  C3  UNK     1      29.111  -6.610  37.762  1.00  0.00     0.020 C 
HETATM    6  C4  UNK     1      28.574  -6.608  39.168  1.00  0.00     0.058 C 
HETATM    7  C5  UNK     1      27.841  -7.900  39.506  1.00  0.00     0.014 C 
HETATM    8  C6  UNK     1      30.274  -6.289  35.201  1.00  0.00     0.052 C 
HETATM    9  C7  UNK     1      26.819  -8.236  38.435  1.00  0.00     0.084 C 
HETATM   10  C8  UNK     1      27.453  -8.289  37.063  1.00  0.00     0.158 C 
HETATM   11  C9  UNK     1      30.684  -5.521  36.237  1.00  0.00     0.018 C 
HETATM   12  C13 UNK     1      31.712  -4.426  36.162  1.00  0.00     0.069 C 
HETATM   13  H8  UNK     1      30.459  -5.130  38.251  1.00  0.00     0.165 HD
ENDROOT
BRANCH   3  14
HETATM   14  C10 UNK     1      29.894  -8.748  35.104  1.00  0.00     0.029 A 
HETATM   15  C12 UNK     1      29.568  -9.425  33.824  1.00  0.00     0.194 A 
HETATM   16  O5  UNK     1      28.801  -8.935  33.004  1.00  0.00    -0.287 OA
HETATM   17  C15 UNK     1      30.219 -10.728  33.589  1.00  0.00     0.050 A 
HETATM   18  C16 UNK     1      31.083 -11.238  34.557  1.00  0.00     0.089 A 
HETATM   19  C18 UNK     1      29.976 -11.445  32.415  1.00  0.00     0.042 A 
HETATM   20  O2  UNK     1      31.358 -10.577  35.727  1.00  0.00    -0.321 OA
HETATM   21  C19 UNK     1      31.711 -12.468  34.357  1.00  0.00     0.040 A 
HETATM   22  C14 UNK     1      30.744  -9.365  35.933  1.00  0.00     0.154 A 
HETATM   23  C23 UNK     1      31.469 -13.185  33.185  1.00  0.00     0.026 A 
HETATM   24  C20 UNK     1      30.604 -12.675  32.216  1.00  0.00     0.035 A 
HETATM   25 Cl1  UNK     1      30.312 -13.565  30.772  1.00  0.00    -0.084 Cl
ENDBRANCH   3  14
BRANCH   8  26
HETATM   26  C11 UNK     1      30.739  -6.055  33.824  1.00  0.00     0.292 C 
HETATM   27  O4  UNK     1      31.866  -6.318  33.445  1.00  0.00    -0.259 OA
BRANCH  26  28
HETATM   28  O3  UNK     1      29.717  -5.524  33.112  1.00  0.00    -0.313 OA
BRANCH  28  29
HETATM   29  C17 UNK     1      29.985  -5.326  31.720  1.00  0.00     0.124 C 
HETATM   30  C21 UNK     1      28.960  -6.092  30.899  1.00  0.00     0.040 C 
HETATM   31  C22 UNK     1      29.961  -3.837  31.412  1.00  0.00     0.040 C 
ENDBRANCH  28  29
ENDBRANCH  26  28
ENDBRANCH   8  26
TORSDOF 4
ENDMDL
MODEL 7
REMARK VINA RESULT:      -7.9      2.982      6.130
REMARK  4 active torsions:
REMARK  status: ('A' for Active; 'I' for Inactive)
REMARK    1  A    between atoms: C11_18  and  O3_4 
REMARK    2  A    between atoms: C17_24  and  O3_4 
REMARK    3  A    between atoms: C1_8  and  C10_17 
REMARK    4  A    between atoms: C11_18  and  C6_13 
ROOT
HETATM    1  O1  UNK     1      31.200  -5.285  36.461  1.00  0.00    -0.293 OA
HETATM    2  N1  UNK     1      33.413  -8.691  34.021  1.00  0.00    -0.362 N 
HETATM    3  C1  UNK     1      30.901  -7.642  34.825  1.00  0.00     0.104 C 
HETATM    4  C2  UNK     1      32.236  -7.073  35.291  1.00  0.00     0.024 C 
HETATM    5  C3  UNK     1      33.405  -7.623  34.898  1.00  0.00     0.020 C 
HETATM    6  C4  UNK     1      34.749  -7.133  35.367  1.00  0.00     0.058 C 
HETATM    7  C5  UNK     1      34.651  -6.334  36.661  1.00  0.00     0.014 C 
HETATM    8  C6  UNK     1      31.061  -8.719  33.750  1.00  0.00     0.052 C 
HETATM    9  C7  UNK     1      33.585  -5.259  36.552  1.00  0.00     0.084 C 
HETATM   10  C8  UNK     1      32.250  -5.845  36.147  1.00  0.00     0.158 C 
HETATM   11  C9  UNK     1      32.278  -9.208  33.415  1.00  0.00     0.018 C 
HETATM   12  C13 UNK     1      32.538 -10.298  32.412  1.00  0.00     0.069 C 
HETATM   13  H8  UNK     1      34.310  -9.073  33.748  1.00  0.00     0.165 HD
ENDROOT
BRANCH   3  14
HETATM   14  C10 UNK     1      30.131  -8.189  35.997  1.00  0.00     0.029 A 
HETATM   15  C12 UNK     1      28.733  -7.731  36.202  1.00  0.00     0.194 A 
HETATM   16  O5  UNK     1      28.194  -6.929  35.451  1.00  0.00    -0.287 OA
HETATM   17  C15 UNK     1      28.024  -8.296  37.365  1.00  0.00     0.050 A 
HETATM   18  C16 UNK     1      28.688  -9.206  38.187  1.00  0.00     0.089 A 
HETATM   19  C18 UNK     1      26.706  -7.928  37.644  1.00  0.00     0.042 A 
HETATM   20  O2  UNK     1      29.981  -9.604  37.961  1.00  0.00    -0.321 OA
HETATM   21  C19 UNK     1      28.037  -9.754  39.293  1.00  0.00     0.040 A 
HETATM   22  C14 UNK     1      30.630  -9.068  36.874  1.00  0.00     0.154 A 
HETATM   23  C23 UNK     1      26.721  -9.388  39.573  1.00  0.00     0.026 A 
HETATM   24  C20 UNK     1      26.056  -8.477  38.750  1.00  0.00     0.035 A 
HETATM   25 Cl1  UNK     1      24.431  -8.030  39.102  1.00  0.00    -0.084 Cl
ENDBRANCH   3  14
BRANCH   8  26
HETATM   26  C11 UNK     1      29.831  -9.153  33.068  1.00  0.00     0.292 C 
HETATM   27  O4  UNK     1      29.229 -10.170  33.359  1.00  0.00    -0.259 OA
BRANCH  26  28
HETATM   28  O3  UNK     1      29.528  -8.241  32.113  1.00  0.00    -0.313 OA
BRANCH  28  29
HETATM   29  C17 UNK     1      28.129  -8.019  31.909  1.00  0.00     0.124 C 
HETATM   30  C21 UNK     1      27.836  -6.531  32.020  1.00  0.00     0.040 C 
HETATM   31  C22 UNK     1      27.726  -8.578  30.553  1.00  0.00     0.040 C 
ENDBRANCH  28  29
ENDBRANCH  26  28
ENDBRANCH   8  26
TORSDOF 4
ENDMDL
MODEL 8
REMARK VINA RESULT:      -7.8      3.937      6.929
REMARK  4 active torsions:
REMARK  status: ('A' for Active; 'I' for Inactive)
REMARK    1  A    between atoms: C11_18  and  O3_4 
REMARK    2  A    between atoms: C17_24  and  O3_4 
REMARK    3  A    between atoms: C1_8  and  C10_17 
REMARK    4  A    between atoms: C11_18  and  C6_13 
ROOT
HETATM    1  O1  UNK     1      35.033  -5.724  34.338  1.00  0.00    -0.293 OA
HETATM    2  N1  UNK     1      33.560  -8.836  31.083  1.00  0.00    -0.362 N 
HETATM    3  C1  UNK     1      32.806  -6.689  32.778  1.00  0.00     0.104 C 
HETATM    4  C2  UNK     1      34.199  -7.308  32.778  1.00  0.00     0.024 C 
HETATM    5  C3  UNK     1      34.502  -8.344  31.967  1.00  0.00     0.020 C 
HETATM    6  C4  UNK     1      35.844  -9.025  31.961  1.00  0.00     0.058 C 
HETATM    7  C5  UNK     1      36.619  -8.782  33.251  1.00  0.00     0.014 C 
HETATM    8  C6  UNK     1      31.919  -7.230  31.656  1.00  0.00     0.052 C 
HETATM    9  C7  UNK     1      36.657  -7.302  33.586  1.00  0.00     0.084 C 
HETATM   10  C8  UNK     1      35.265  -6.713  33.643  1.00  0.00     0.158 C 
HETATM   11  C9  UNK     1      32.309  -8.272  30.886  1.00  0.00     0.018 C 
HETATM   12  C13 UNK     1      31.493  -8.908  29.794  1.00  0.00     0.069 C 
HETATM   13  H8  UNK     1      33.827  -9.613  30.490  1.00  0.00     0.165 HD
ENDROOT
BRANCH   3  14
HETATM   14  C10 UNK     1      32.142  -6.902  34.113  1.00  0.00     0.029 A 
HETATM   15  C12 UNK     1      31.745  -5.711  34.905  1.00  0.00     0.194 A 
HETATM   16  O5  UNK     1      31.940  -4.569  34.508  1.00  0.00    -0.287 OA
HETATM   17  C15 UNK     1      31.101  -5.976  36.205  1.00  0.00     0.050 A 
HETATM   18  C16 UNK     1      30.904  -7.296  36.608  1.00  0.00     0.089 A 
HETATM   19  C18 UNK     1      30.691  -4.922  37.026  1.00  0.00     0.042 A 
HETATM   20  O2  UNK     1      31.286  -8.369  35.843  1.00  0.00    -0.321 OA
HETATM   21  C19 UNK     1      30.296  -7.571  37.833  1.00  0.00     0.040 A 
HETATM   22  C14 UNK     1      31.886  -8.107  34.635  1.00  0.00     0.154 A 
HETATM   23  C23 UNK     1      29.886  -6.520  38.653  1.00  0.00     0.026 A 
HETATM   24  C20 UNK     1      30.083  -5.198  38.250  1.00  0.00     0.035 A 
HETATM   25 Cl1  UNK     1      29.574  -3.906  39.268  1.00  0.00    -0.084 Cl
ENDBRANCH   3  14
BRANCH   8  26
HETATM   26  C11 UNK     1      30.647  -6.523  31.426  1.00  0.00     0.292 C 
HETATM   27  O4  UNK     1      30.554  -5.521  30.742  1.00  0.00    -0.259 OA
BRANCH  26  28
HETATM   28  O3  UNK     1      29.667  -7.182  32.089  1.00  0.00    -0.313 OA
BRANCH  28  29
HETATM   29  C17 UNK     1      28.552  -6.375  32.482  1.00  0.00     0.124 C 
HETATM   30  C21 UNK     1      27.356  -6.711  31.605  1.00  0.00     0.040 C 
HETATM   31  C22 UNK     1      28.259  -6.609  33.956  1.00  0.00     0.040 C 
ENDBRANCH  28  29
ENDBRANCH  26  28
ENDBRANCH   8  26
TORSDOF 4
ENDMDL
MODEL 9
REMARK VINA RESULT:      -7.8      3.951      7.631
REMARK  4 active torsions:
REMARK  status: ('A' for Active; 'I' for Inactive)
REMARK    1  A    between atoms: C11_18  and  O3_4 
REMARK    2  A    between atoms: C17_24  and  O3_4 
REMARK    3  A    between atoms: C1_8  and  C10_17 
REMARK    4  A    between atoms: C11_18  and  C6_13 
ROOT
HETATM    1  O1  UNK     1      33.149 -10.847  32.771  1.00  0.00    -0.293 OA
HETATM    2  N1  UNK     1      29.573 -11.571  29.749  1.00  0.00    -0.362 N 
HETATM    3  C1  UNK     1      31.218  -9.630  31.006  1.00  0.00     0.104 C 
HETATM    4  C2  UNK     1      31.296 -11.122  31.313  1.00  0.00     0.024 C 
HETATM    5  C3  UNK     1      30.474 -12.003  30.704  1.00  0.00     0.020 C 
HETATM    6  C4  UNK     1      30.473 -13.478  31.005  1.00  0.00     0.058 C 
HETATM    7  C5  UNK     1      31.094 -13.788  32.362  1.00  0.00     0.014 C 
HETATM    8  C6  UNK     1      30.289  -9.316  29.833  1.00  0.00     0.052 C 
HETATM    9  C7  UNK     1      32.445 -13.111  32.505  1.00  0.00     0.084 C 
HETATM   10  C8  UNK     1      32.344 -11.622  32.257  1.00  0.00     0.158 C 
HETATM   11  C9  UNK     1      29.503 -10.269  29.279  1.00  0.00     0.018 C 
HETATM   12  C13 UNK     1      28.521 -10.052  28.160  1.00  0.00     0.069 C 
HETATM   13  H8  UNK     1      28.976 -12.264  29.313  1.00  0.00     0.165 HD
ENDROOT
BRANCH   3  14
HETATM   14  C10 UNK     1      30.785  -8.869  32.231  1.00  0.00     0.029 A 
HETATM   15  C12 UNK     1      31.619  -7.729  32.688  1.00  0.00     0.194 A 
HETATM   16  O5  UNK     1      32.640  -7.392  32.102  1.00  0.00    -0.287 OA
HETATM   17  C15 UNK     1      31.151  -7.018  33.892  1.00  0.00     0.050 A 
HETATM   18  C16 UNK     1      29.980  -7.445  34.519  1.00  0.00     0.089 A 
HETATM   19  C18 UNK     1      31.866  -5.932  34.402  1.00  0.00     0.042 A 
HETATM   20  O2  UNK     1      29.239  -8.504  34.062  1.00  0.00    -0.321 OA
HETATM   21  C19 UNK     1      29.518  -6.787  35.660  1.00  0.00     0.040 A 
HETATM   22  C14 UNK     1      29.688  -9.157  32.939  1.00  0.00     0.154 A 
HETATM   23  C23 UNK     1      30.231  -5.702  36.170  1.00  0.00     0.026 A 
HETATM   24  C20 UNK     1      31.402  -5.275  35.543  1.00  0.00     0.035 A 
HETATM   25 Cl1  UNK     1      32.276  -3.935  36.178  1.00  0.00    -0.084 Cl
ENDBRANCH   3  14
BRANCH   8  26
HETATM   26  C11 UNK     1      30.335  -7.941  29.309  1.00  0.00     0.292 C 
HETATM   27  O4  UNK     1      31.362  -7.397  28.950  1.00  0.00    -0.259 OA
BRANCH  26  28
HETATM   28  O3  UNK     1      29.075  -7.442  29.308  1.00  0.00    -0.313 OA
BRANCH  28  29
HETATM   29  C17 UNK     1      28.627  -6.924  30.565  1.00  0.00     0.124 C 
HETATM   30  C21 UNK     1      29.160  -5.511  30.743  1.00  0.00     0.040 C 
HETATM   31  C22 UNK     1      27.108  -6.967  30.612  1.00  0.00     0.040 C 
ENDBRANCH  28  29
ENDBRANCH  26  28
ENDBRANCH   8  26
TORSDOF 4
ENDMDL
MODEL 10
REMARK VINA RESULT:      -7.8      1.595      2.448
REMARK  4 active torsions:
REMARK  status: ('A' for Active; 'I' for Inactive)
REMARK    1  A    between atoms: C11_18  and  O3_4 
REMARK    2  A    between atoms: C17_24  and  O3_4 
REMARK    3  A    between atoms: C1_8  and  C10_17 
REMARK    4  A    between atoms: C11_18  and  C6_13 
ROOT
HETATM    1  O1  UNK     1      33.662  -7.496  34.944  1.00  0.00    -0.293 OA
HETATM    2  N1  UNK     1      30.497  -5.184  37.605  1.00  0.00    -0.362 N 
HETATM    3  C1  UNK     1      31.185  -7.666  36.414  1.00  0.00     0.104 C 
HETATM    4  C2  UNK     1      31.988  -6.386  36.209  1.00  0.00     0.024 C 
HETATM    5  C3  UNK     1      31.605  -5.224  36.780  1.00  0.00     0.020 C 
HETATM    6  C4  UNK     1      32.331  -3.921  36.572  1.00  0.00     0.058 C 
HETATM    7  C5  UNK     1      33.187  -3.935  35.311  1.00  0.00     0.014 C 
HETATM    8  C6  UNK     1      30.080  -7.509  37.459  1.00  0.00     0.052 C 
HETATM    9  C7  UNK     1      34.070  -5.169  35.272  1.00  0.00     0.084 C 
HETATM   10  C8  UNK     1      33.256  -6.435  35.415  1.00  0.00     0.158 C 
HETATM   11  C9  UNK     1      29.769  -6.301  37.983  1.00  0.00     0.018 C 
HETATM   12  C13 UNK     1      28.670  -6.034  38.976  1.00  0.00     0.069 C 
HETATM   13  H8  UNK     1      30.244  -4.293  38.016  1.00  0.00     0.165 HD
ENDROOT
BRANCH   3  14
HETATM   14  C10 UNK     1      30.601  -8.128  35.105  1.00  0.00     0.029 A 
HETATM   15  C12 UNK     1      29.576  -7.279  34.448  1.00  0.00     0.194 A 
HETATM   16  O5  UNK     1      29.196  -6.222  34.935  1.00  0.00    -0.287 OA
HETATM   17  C15 UNK     1      29.036  -7.779  33.169  1.00  0.00     0.050 A 
HETATM   18  C16 UNK     1      29.506  -8.990  32.661  1.00  0.00     0.089 A 
HETATM   19  C18 UNK     1      28.067  -7.053  32.473  1.00  0.00     0.042 A 
HETATM   20  O2  UNK     1      30.457  -9.743  33.302  1.00  0.00    -0.321 OA
HETATM   21  C19 UNK     1      29.010  -9.481  31.453  1.00  0.00     0.040 A 
HETATM   22  C14 UNK     1      30.950  -9.266  34.493  1.00  0.00     0.154 A 
HETATM   23  C23 UNK     1      28.043  -8.758  30.757  1.00  0.00     0.026 A 
HETATM   24  C20 UNK     1      27.572  -7.546  31.265  1.00  0.00     0.035 A 
HETATM   25 Cl1  UNK     1      26.378  -6.658  30.399  1.00  0.00    -0.084 Cl
ENDBRANCH   3  14
BRANCH   8  26
HETATM   26  C11 UNK     1      29.413  -8.746  37.899  1.00  0.00     0.292 C 
HETATM   27  O4  UNK     1      29.974  -9.618  38.536  1.00  0.00    -0.259 OA
BRANCH  26  28
HETATM   28  O3  UNK     1      28.126  -8.710  37.478  1.00  0.00    -0.313 OA
BRANCH  28  29
HETATM   29  C17 UNK     1      27.272  -9.707  38.049  1.00  0.00     0.124 C 
HETATM   30  C21 UNK     1      26.548  -9.119  39.249  1.00  0.00     0.040 C 
HETATM   31  C22 UNK     1      26.303 -10.204  36.988  1.00  0.00     0.040 C 
ENDBRANCH  28  29
ENDBRANCH  26  28
ENDBRANCH   8  26
TORSDOF 4
ENDMDL
