MODEL 1
REMARK VINA RESULT:     -10.0      0.000      0.000
REMARK  5 active torsions:
REMARK  status: ('A' for Active; 'I' for Inactive)
REMARK    1  A    between atoms: C1_8  and  N1_6 
REMARK    2  A    between atoms: C11_18  and  N1_6 
REMARK    3  A    between atoms: C10_17  and  N2_7 
REMARK    4  A    between atoms: C11_18  and  N2_7 
REMARK    5  A    between atoms: C1_8  and  C2_9 
ROOT
HETATM    1  S1  UNK     1      20.619  -0.501  29.417  1.00  0.00    -0.041 SA
HETATM    2  C11 UNK     1      19.591   0.060  30.622  1.00  0.00     0.172 C 
ENDROOT
BRANCH   2   3
HETATM    3  N1  UNK     1      19.525   1.436  30.800  1.00  0.00    -0.359 N 
HETATM    4  H6  UNK     1      19.873   1.789  31.687  1.00  0.00     0.162 HD
BRANCH   3   5
HETATM    5  C1  UNK     1      19.077   2.422  29.835  1.00  0.00     0.113 C 
HETATM    6  C4  UNK     1      17.844   1.919  29.085  1.00  0.00     0.037 C 
BRANCH   5   7
HETATM    7  C2  UNK     1      18.849   3.767  30.489  1.00  0.00    -0.033 A 
HETATM    8  C3  UNK     1      18.306   3.811  31.764  1.00  0.00     0.049 A 
HETATM    9  C5  UNK     1      18.117   5.060  32.319  1.00  0.00     0.105 A 
HETATM   10  O1  UNK     1      17.599   5.316  33.551  1.00  0.00    -0.323 OA
HETATM   11  C7  UNK     1      18.450   6.211  31.642  1.00  0.00     0.105 A 
HETATM   12  C15 UNK     1      17.644   6.758  33.574  1.00  0.00     0.352 A 
HETATM   13  O2  UNK     1      18.183   7.332  32.366  1.00  0.00    -0.323 OA
HETATM   14  C8  UNK     1      18.991   6.177  30.374  1.00  0.00     0.040 A 
HETATM   15  C6  UNK     1      19.192   4.924  29.789  1.00  0.00     0.012 A 
ENDBRANCH   5   7
ENDBRANCH   3   5
ENDBRANCH   2   3
BRANCH   2  16
HETATM   16  N2  UNK     1      18.752  -0.697  31.458  1.00  0.00    -0.333 N 
HETATM   17  H10 UNK     1      18.172  -1.365  30.962  1.00  0.00     0.168 HD
BRANCH  16  18
HETATM   18  C10 UNK     1      18.768  -0.956  32.828  1.00  0.00     0.036 A 
HETATM   19  C14 UNK     1      19.609  -1.937  33.342  1.00  0.00     0.067 A 
HETATM   20  C12 UNK     1      19.610  -2.181  34.717  1.00  0.00     0.092 A 
HETATM   21  O3  UNK     1      20.484  -3.186  35.179  1.00  0.00    -0.275 OA
HETATM   22  C9  UNK     1      18.796  -1.472  35.601  1.00  0.00     0.004 A 
HETATM   23  C20 UNK     1      20.569  -3.511  36.524  1.00  0.00     0.288 A 
HETATM   24  C18 UNK     1      19.702  -2.755  37.443  1.00  0.00     0.090 A 
HETATM   25  O4  UNK     1      21.325  -4.384  36.937  1.00  0.00    -0.260 OA
HETATM   26  C13 UNK     1      18.862  -1.793  37.033  1.00  0.00    -0.043 A 
HETATM   27  C19 UNK     1      17.999  -1.049  38.008  1.00  0.00     0.049 C 
HETATM   28  C16 UNK     1      17.956  -0.487  35.063  1.00  0.00     0.017 A 
HETATM   29  C17 UNK     1      17.943  -0.232  33.687  1.00  0.00     0.030 A 
ENDBRANCH  16  18
ENDBRANCH   2  16
TORSDOF 5
ENDMDL
MODEL 2
REMARK VINA RESULT:      -9.8      1.437      2.078
REMARK  5 active torsions:
REMARK  status: ('A' for Active; 'I' for Inactive)
REMARK    1  A    between atoms: C1_8  and  N1_6 
REMARK    2  A    between atoms: C11_18  and  N1_6 
REMARK    3  A    between atoms: C10_17  and  N2_7 
REMARK    4  A    between atoms: C11_18  and  N2_7 
REMARK    5  A    between atoms: C1_8  and  C2_9 
ROOT
HETATM    1  S1  UNK     1      20.633  -0.384  29.094  1.00  0.00    -0.041 SA
HETATM    2  C11 UNK     1      19.641   0.025  30.387  1.00  0.00     0.172 C 
ENDROOT
BRANCH   2   3
HETATM    3  N1  UNK     1      19.476   1.379  30.647  1.00  0.00    -0.359 N 
HETATM    4  H6  UNK     1      19.735   1.691  31.579  1.00  0.00     0.162 HD
BRANCH   3   5
HETATM    5  C1  UNK     1      19.039   2.401  29.715  1.00  0.00     0.113 C 
HETATM    6  C4  UNK     1      17.801   1.936  28.948  1.00  0.00     0.037 C 
BRANCH   5   7
HETATM    7  C2  UNK     1      18.823   3.726  30.413  1.00  0.00    -0.033 A 
HETATM    8  C3  UNK     1      18.297   3.732  31.696  1.00  0.00     0.049 A 
HETATM    9  C5  UNK     1      18.120   4.964  32.291  1.00  0.00     0.105 A 
HETATM   10  O1  UNK     1      17.619   5.184  33.537  1.00  0.00    -0.323 OA
HETATM   11  C7  UNK     1      18.448   6.135  31.646  1.00  0.00     0.105 A 
HETATM   12  C15 UNK     1      17.668   6.624  33.605  1.00  0.00     0.352 A 
HETATM   13  O2  UNK     1      18.193   7.234  32.408  1.00  0.00    -0.323 OA
HETATM   14  C8  UNK     1      18.971   6.138  30.370  1.00  0.00     0.040 A 
HETATM   15  C6  UNK     1      19.161   4.904  29.744  1.00  0.00     0.012 A 
ENDBRANCH   5   7
ENDBRANCH   3   5
ENDBRANCH   2   3
BRANCH   2  16
HETATM   16  N2  UNK     1      18.920  -0.842  31.227  1.00  0.00    -0.333 N 
HETATM   17  H10 UNK     1      18.364  -1.529  30.729  1.00  0.00     0.168 HD
BRANCH  16  18
HETATM   18  C10 UNK     1      19.046  -1.171  32.576  1.00  0.00     0.036 A 
HETATM   19  C14 UNK     1      18.282  -0.508  33.530  1.00  0.00     0.067 A 
HETATM   20  C12 UNK     1      18.423  -0.854  34.876  1.00  0.00     0.092 A 
HETATM   21  O3  UNK     1      17.621  -0.148  35.796  1.00  0.00    -0.275 OA
HETATM   22  C9  UNK     1      19.306  -1.846  35.302  1.00  0.00     0.004 A 
HETATM   23  C20 UNK     1      17.677  -0.409  37.156  1.00  0.00     0.288 A 
HETATM   24  C18 UNK     1      18.616  -1.458  37.590  1.00  0.00     0.090 A 
HETATM   25  O4  UNK     1      16.986   0.199  37.965  1.00  0.00    -0.260 OA
HETATM   26  C13 UNK     1      19.390  -2.146  36.738  1.00  0.00    -0.043 A 
HETATM   27  C19 UNK     1      20.330  -3.207  37.228  1.00  0.00     0.049 C 
HETATM   28  C16 UNK     1      20.067  -2.503  34.325  1.00  0.00     0.017 A 
HETATM   29  C17 UNK     1      19.937  -2.167  32.973  1.00  0.00     0.030 A 
ENDBRANCH  16  18
ENDBRANCH   2  16
TORSDOF 5
ENDMDL
MODEL 3
REMARK VINA RESULT:      -9.7      1.749      8.003
REMARK  5 active torsions:
REMARK  status: ('A' for Active; 'I' for Inactive)
REMARK    1  A    between atoms: C1_8  and  N1_6 
REMARK    2  A    between atoms: C11_18  and  N1_6 
REMARK    3  A    between atoms: C10_17  and  N2_7 
REMARK    4  A    between atoms: C11_18  and  N2_7 
REMARK    5  A    between atoms: C1_8  and  C2_9 
ROOT
HETATM    1  S1  UNK     1      17.742   2.037  28.684  1.00  0.00    -0.041 SA
HETATM    2  C11 UNK     1      18.893   2.457  29.833  1.00  0.00     0.172 C 
ENDROOT
BRANCH   2   3
HETATM    3  N1  UNK     1      19.347   1.443  30.666  1.00  0.00    -0.359 N 
HETATM    4  H6  UNK     1      19.583   1.716  31.616  1.00  0.00     0.162 HD
BRANCH   3   5
HETATM    5  C1  UNK     1      19.456   0.032  30.346  1.00  0.00     0.113 C 
HETATM    6  C4  UNK     1      20.513  -0.195  29.267  1.00  0.00     0.037 C 
BRANCH   5   7
HETATM    7  C2  UNK     1      19.709  -0.795  31.588  1.00  0.00    -0.033 A 
HETATM    8  C3  UNK     1      18.974  -0.532  32.733  1.00  0.00     0.049 A 
HETATM    9  C5  UNK     1      19.240  -1.313  33.839  1.00  0.00     0.105 A 
HETATM   10  O1  UNK     1      18.632  -1.213  35.052  1.00  0.00    -0.323 OA
HETATM   11  C7  UNK     1      20.191  -2.307  33.812  1.00  0.00     0.105 A 
HETATM   12  C15 UNK     1      19.306  -2.256  35.785  1.00  0.00     0.352 A 
HETATM   13  O2  UNK     1      20.297  -2.954  35.004  1.00  0.00    -0.323 OA
HETATM   14  C8  UNK     1      20.928  -2.576  32.677  1.00  0.00     0.040 A 
HETATM   15  C6  UNK     1      20.678  -1.799  31.543  1.00  0.00     0.012 A 
ENDBRANCH   5   7
ENDBRANCH   3   5
ENDBRANCH   2   3
BRANCH   2  16
HETATM   16  N2  UNK     1      19.487   3.714  30.036  1.00  0.00    -0.333 N 
HETATM   17  H10 UNK     1      19.981   4.071  29.225  1.00  0.00     0.168 HD
BRANCH  16  18
HETATM   18  C10 UNK     1      19.282   4.714  30.987  1.00  0.00     0.036 A 
HETATM   19  C14 UNK     1      18.007   4.949  31.489  1.00  0.00     0.067 A 
HETATM   20  C12 UNK     1      17.823   5.954  32.441  1.00  0.00     0.092 A 
HETATM   21  O3  UNK     1      16.509   6.143  32.913  1.00  0.00    -0.275 OA
HETATM   22  C9  UNK     1      18.878   6.737  32.911  1.00  0.00     0.004 A 
HETATM   23  C20 UNK     1      16.211   7.111  33.859  1.00  0.00     0.288 A 
HETATM   24  C18 UNK     1      17.334   7.930  34.343  1.00  0.00     0.090 A 
HETATM   25  O4  UNK     1      15.071   7.286  34.276  1.00  0.00    -0.260 OA
HETATM   26  C13 UNK     1      18.595   7.772  33.914  1.00  0.00    -0.043 A 
HETATM   27  C19 UNK     1      19.707   8.631  34.438  1.00  0.00     0.049 C 
HETATM   28  C16 UNK     1      20.155   6.485  32.392  1.00  0.00     0.017 A 
HETATM   29  C17 UNK     1      20.355   5.481  31.438  1.00  0.00     0.030 A 
ENDBRANCH  16  18
ENDBRANCH   2  16
TORSDOF 5
ENDMDL
MODEL 4
REMARK VINA RESULT:      -9.6      2.009      7.643
REMARK  5 active torsions:
REMARK  status: ('A' for Active; 'I' for Inactive)
REMARK    1  A    between atoms: C1_8  and  N1_6 
REMARK    2  A    between atoms: C11_18  and  N1_6 
REMARK    3  A    between atoms: C10_17  and  N2_7 
REMARK    4  A    between atoms: C11_18  and  N2_7 
REMARK    5  A    between atoms: C1_8  and  C2_9 
ROOT
HETATM    1  S1  UNK     1      17.931   1.720  28.851  1.00  0.00    -0.041 SA
HETATM    2  C11 UNK     1      18.914   2.492  29.974  1.00  0.00     0.172 C 
ENDROOT
BRANCH   2   3
HETATM    3  N1  UNK     1      19.472   1.700  30.969  1.00  0.00    -0.359 N 
HETATM    4  H6  UNK     1      20.283   2.085  31.446  1.00  0.00     0.162 HD
BRANCH   3   5
HETATM    5  C1  UNK     1      18.983   0.419  31.444  1.00  0.00     0.113 C 
HETATM    6  C4  UNK     1      19.975  -0.693  31.108  1.00  0.00     0.037 C 
BRANCH   5   7
HETATM    7  C2  UNK     1      18.648   0.471  32.918  1.00  0.00    -0.033 A 
HETATM    8  C3  UNK     1      18.645  -0.708  33.649  1.00  0.00     0.049 A 
HETATM    9  C5  UNK     1      18.335  -0.610  34.990  1.00  0.00     0.105 A 
HETATM   10  O1  UNK     1      18.276  -1.643  35.873  1.00  0.00    -0.323 OA
HETATM   11  C7  UNK     1      18.041   0.598  35.579  1.00  0.00     0.105 A 
HETATM   12  C15 UNK     1      17.914  -0.950  37.085  1.00  0.00     0.352 A 
HETATM   13  O2  UNK     1      17.763   0.473  36.906  1.00  0.00    -0.323 OA
HETATM   14  C8  UNK     1      18.042   1.776  34.861  1.00  0.00     0.040 A 
HETATM   15  C6  UNK     1      18.353   1.705  33.500  1.00  0.00     0.012 A 
ENDBRANCH   5   7
ENDBRANCH   3   5
ENDBRANCH   2   3
BRANCH   2  16
HETATM   16  N2  UNK     1      19.276   3.849  30.011  1.00  0.00    -0.333 N 
HETATM   17  H10 UNK     1      19.439   4.256  29.096  1.00  0.00     0.168 HD
BRANCH  16  18
HETATM   18  C10 UNK     1      19.151   4.834  30.990  1.00  0.00     0.036 A 
HETATM   19  C14 UNK     1      17.912   5.095  31.564  1.00  0.00     0.067 A 
HETATM   20  C12 UNK     1      17.809   6.085  32.543  1.00  0.00     0.092 A 
HETATM   21  O3  UNK     1      16.527   6.302  33.089  1.00  0.00    -0.275 OA
HETATM   22  C9  UNK     1      18.910   6.827  32.971  1.00  0.00     0.004 A 
HETATM   23  C20 UNK     1      16.308   7.258  34.068  1.00  0.00     0.288 A 
HETATM   24  C18 UNK     1      17.480   8.034  34.507  1.00  0.00     0.090 A 
HETATM   25  O4  UNK     1      15.198   7.456  34.548  1.00  0.00    -0.260 OA
HETATM   26  C13 UNK     1      18.710   7.849  34.008  1.00  0.00    -0.043 A 
HETATM   27  C19 UNK     1      19.874   8.665  34.489  1.00  0.00     0.049 C 
HETATM   28  C16 UNK     1      20.150   6.550  32.381  1.00  0.00     0.017 A 
HETATM   29  C17 UNK     1      20.269   5.561  31.398  1.00  0.00     0.030 A 
ENDBRANCH  16  18
ENDBRANCH   2  16
TORSDOF 5
ENDMDL
MODEL 5
REMARK VINA RESULT:      -9.2      4.334      6.678
REMARK  5 active torsions:
REMARK  status: ('A' for Active; 'I' for Inactive)
REMARK    1  A    between atoms: C1_8  and  N1_6 
REMARK    2  A    between atoms: C11_18  and  N1_6 
REMARK    3  A    between atoms: C10_17  and  N2_7 
REMARK    4  A    between atoms: C11_18  and  N2_7 
REMARK    5  A    between atoms: C1_8  and  C2_9 
ROOT
HETATM    1  S1  UNK     1      18.267  -1.467  37.771  1.00  0.00    -0.041 SA
HETATM    2  C11 UNK     1      18.904  -2.139  36.369  1.00  0.00     0.172 C 
ENDROOT
BRANCH   2   3
HETATM    3  N1  UNK     1      19.306  -1.254  35.377  1.00  0.00    -0.359 N 
HETATM    4  H6  UNK     1      20.284  -0.978  35.394  1.00  0.00     0.162 HD
BRANCH   3   5
HETATM    5  C1  UNK     1      18.501  -0.738  34.287  1.00  0.00     0.113 C 
HETATM    6  C4  UNK     1      18.153   0.731  34.523  1.00  0.00     0.037 C 
BRANCH   5   7
HETATM    7  C2  UNK     1      19.173  -0.966  32.951  1.00  0.00    -0.033 A 
HETATM    8  C3  UNK     1      18.971  -0.048  31.931  1.00  0.00     0.049 A 
HETATM    9  C5  UNK     1      19.606  -0.298  30.731  1.00  0.00     0.105 A 
HETATM   10  O1  UNK     1      19.535   0.475  29.614  1.00  0.00    -0.323 OA
HETATM   11  C7  UNK     1      20.403  -1.405  30.551  1.00  0.00     0.105 A 
HETATM   12  C15 UNK     1      20.377  -0.269  28.710  1.00  0.00     0.352 A 
HETATM   13  O2  UNK     1      20.931  -1.463  29.298  1.00  0.00    -0.323 OA
HETATM   14  C8  UNK     1      20.610  -2.323  31.559  1.00  0.00     0.040 A 
HETATM   15  C6  UNK     1      19.979  -2.093  32.784  1.00  0.00     0.012 A 
ENDBRANCH   5   7
ENDBRANCH   3   5
ENDBRANCH   2   3
BRANCH   2  16
HETATM   16  N2  UNK     1      19.116  -3.499  36.086  1.00  0.00    -0.333 N 
HETATM   17  H10 UNK     1      19.053  -3.728  35.100  1.00  0.00     0.168 HD
BRANCH  16  18
HETATM   18  C10 UNK     1      19.703  -4.534  36.813  1.00  0.00     0.036 A 
HETATM   19  C14 UNK     1      19.071  -5.770  36.902  1.00  0.00     0.067 A 
HETATM   20  C12 UNK     1      19.676  -6.794  37.634  1.00  0.00     0.092 A 
HETATM   21  O3  UNK     1      18.989  -8.023  37.686  1.00  0.00    -0.275 OA
HETATM   22  C9  UNK     1      20.899  -6.623  38.284  1.00  0.00     0.004 A 
HETATM   23  C20 UNK     1      19.497  -9.109  38.383  1.00  0.00     0.288 A 
HETATM   24  C18 UNK     1      20.787  -8.912  39.064  1.00  0.00     0.090 A 
HETATM   25  O4  UNK     1      18.907 -10.182  38.436  1.00  0.00    -0.260 OA
HETATM   26  C13 UNK     1      21.464  -7.755  39.031  1.00  0.00    -0.043 A 
HETATM   27  C19 UNK     1      22.776  -7.603  39.741  1.00  0.00     0.049 C 
HETATM   28  C16 UNK     1      21.519  -5.370  38.182  1.00  0.00     0.017 A 
HETATM   29  C17 UNK     1      20.925  -4.335  37.452  1.00  0.00     0.030 A 
ENDBRANCH  16  18
ENDBRANCH   2  16
TORSDOF 5
ENDMDL
MODEL 6
REMARK VINA RESULT:      -9.1      3.455      9.126
REMARK  5 active torsions:
REMARK  status: ('A' for Active; 'I' for Inactive)
REMARK    1  A    between atoms: C1_8  and  N1_6 
REMARK    2  A    between atoms: C11_18  and  N1_6 
REMARK    3  A    between atoms: C10_17  and  N2_7 
REMARK    4  A    between atoms: C11_18  and  N2_7 
REMARK    5  A    between atoms: C1_8  and  C2_9 
ROOT
HETATM    1  S1  UNK     1      19.630   5.876  29.774  1.00  0.00    -0.041 SA
HETATM    2  C11 UNK     1      18.900   4.787  30.825  1.00  0.00     0.172 C 
ENDROOT
BRANCH   2   3
HETATM    3  N1  UNK     1      19.233   3.447  30.669  1.00  0.00    -0.359 N 
HETATM    4  H6  UNK     1      20.147   3.170  31.017  1.00  0.00     0.162 HD
BRANCH   3   5
HETATM    5  C1  UNK     1      18.393   2.395  30.128  1.00  0.00     0.113 C 
HETATM    6  C4  UNK     1      17.959   2.733  28.703  1.00  0.00     0.037 C 
BRANCH   5   7
HETATM    7  C2  UNK     1      19.073   1.047  30.223  1.00  0.00    -0.033 A 
HETATM    8  C3  UNK     1      19.232   0.460  31.469  1.00  0.00     0.049 A 
HETATM    9  C5  UNK     1      19.856  -0.771  31.503  1.00  0.00     0.105 A 
HETATM   10  O1  UNK     1      20.108  -1.507  32.620  1.00  0.00    -0.323 OA
HETATM   11  C7  UNK     1      20.303  -1.389  30.358  1.00  0.00     0.105 A 
HETATM   12  C15 UNK     1      20.762  -2.658  32.049  1.00  0.00     0.352 A 
HETATM   13  O2  UNK     1      20.889  -2.590  30.614  1.00  0.00    -0.323 OA
HETATM   14  C8  UNK     1      20.149  -0.813  29.115  1.00  0.00     0.040 A 
HETATM   15  C6  UNK     1      19.519   0.433  29.051  1.00  0.00     0.012 A 
ENDBRANCH   5   7
ENDBRANCH   3   5
ENDBRANCH   2   3
BRANCH   2  16
HETATM   16  N2  UNK     1      18.013   5.070  31.877  1.00  0.00    -0.333 N 
HETATM   17  H10 UNK     1      17.989   4.356  32.598  1.00  0.00     0.168 HD
BRANCH  16  18
HETATM   18  C10 UNK     1      17.403   6.248  32.307  1.00  0.00     0.036 A 
HETATM   19  C14 UNK     1      18.179   7.330  32.706  1.00  0.00     0.067 A 
HETATM   20  C12 UNK     1      17.548   8.500  33.133  1.00  0.00     0.092 A 
HETATM   21  O3  UNK     1      18.388   9.563  33.523  1.00  0.00    -0.275 OA
HETATM   22  C9  UNK     1      16.159   8.626  33.175  1.00  0.00     0.004 A 
HETATM   23  C20 UNK     1      17.870  10.772  33.963  1.00  0.00     0.288 A 
HETATM   24  C18 UNK     1      16.403  10.888  34.003  1.00  0.00     0.090 A 
HETATM   25  O4  UNK     1      18.591  11.703  34.306  1.00  0.00    -0.260 OA
HETATM   26  C13 UNK     1      15.580   9.895  33.637  1.00  0.00    -0.043 A 
HETATM   27  C19 UNK     1      14.090  10.061  33.694  1.00  0.00     0.049 C 
HETATM   28  C16 UNK     1      15.395   7.524  32.769  1.00  0.00     0.017 A 
HETATM   29  C17 UNK     1      16.012   6.344  32.339  1.00  0.00     0.030 A 
ENDBRANCH  16  18
ENDBRANCH   2  16
TORSDOF 5
ENDMDL
MODEL 7
REMARK VINA RESULT:      -9.0      4.217      6.514
REMARK  5 active torsions:
REMARK  status: ('A' for Active; 'I' for Inactive)
REMARK    1  A    between atoms: C1_8  and  N1_6 
REMARK    2  A    between atoms: C11_18  and  N1_6 
REMARK    3  A    between atoms: C10_17  and  N2_7 
REMARK    4  A    between atoms: C11_18  and  N2_7 
REMARK    5  A    between atoms: C1_8  and  C2_9 
ROOT
HETATM    1  S1  UNK     1      18.027  -1.165  37.795  1.00  0.00    -0.041 SA
HETATM    2  C11 UNK     1      18.570  -2.095  36.505  1.00  0.00     0.172 C 
ENDROOT
BRANCH   2   3
HETATM    3  N1  UNK     1      19.136  -1.414  35.435  1.00  0.00    -0.359 N 
HETATM    4  H6  UNK     1      20.151  -1.432  35.381  1.00  0.00     0.162 HD
BRANCH   3   5
HETATM    5  C1  UNK     1      18.436  -0.741  34.358  1.00  0.00     0.113 C 
HETATM    6  C4  UNK     1      18.252   0.742  34.680  1.00  0.00     0.037 C 
BRANCH   5   7
HETATM    7  C2  UNK     1      19.126  -0.963  33.030  1.00  0.00    -0.033 A 
HETATM    8  C3  UNK     1      18.949  -0.035  32.016  1.00  0.00     0.049 A 
HETATM    9  C5  UNK     1      19.599  -0.281  30.824  1.00  0.00     0.105 A 
HETATM   10  O1  UNK     1      19.552   0.504  29.713  1.00  0.00    -0.323 OA
HETATM   11  C7  UNK     1      20.387  -1.395  30.645  1.00  0.00     0.105 A 
HETATM   12  C15 UNK     1      20.400  -0.241  28.815  1.00  0.00     0.352 A 
HETATM   13  O2  UNK     1      20.932  -1.447  29.400  1.00  0.00    -0.323 OA
HETATM   14  C8  UNK     1      20.569  -2.324  31.648  1.00  0.00     0.040 A 
HETATM   15  C6  UNK     1      19.921  -2.098  32.866  1.00  0.00     0.012 A 
ENDBRANCH   5   7
ENDBRANCH   3   5
ENDBRANCH   2   3
BRANCH   2  16
HETATM   16  N2  UNK     1      18.555  -3.495  36.388  1.00  0.00    -0.333 N 
HETATM   17  H10 UNK     1      18.077  -3.833  35.559  1.00  0.00     0.168 HD
BRANCH  16  18
HETATM   18  C10 UNK     1      19.316  -4.501  36.982  1.00  0.00     0.036 A 
HETATM   19  C14 UNK     1      20.636  -4.256  37.343  1.00  0.00     0.067 A 
HETATM   20  C12 UNK     1      21.381  -5.277  37.937  1.00  0.00     0.092 A 
HETATM   21  O3  UNK     1      22.712  -4.967  38.283  1.00  0.00    -0.275 OA
HETATM   22  C9  UNK     1      20.848  -6.542  38.183  1.00  0.00     0.004 A 
HETATM   23  C20 UNK     1      23.543  -5.903  38.879  1.00  0.00     0.288 A 
HETATM   24  C18 UNK     1      22.966  -7.235  39.129  1.00  0.00     0.090 A 
HETATM   25  O4  UNK     1      24.703  -5.645  39.183  1.00  0.00    -0.260 OA
HETATM   26  C13 UNK     1      21.704  -7.558  38.812  1.00  0.00    -0.043 A 
HETATM   27  C19 UNK     1      21.161  -8.928  39.089  1.00  0.00     0.049 C 
HETATM   28  C16 UNK     1      19.517  -6.770  37.810  1.00  0.00     0.017 A 
HETATM   29  C17 UNK     1      18.757  -5.757  37.214  1.00  0.00     0.030 A 
ENDBRANCH  16  18
ENDBRANCH   2  16
TORSDOF 5
ENDMDL
MODEL 8
REMARK VINA RESULT:      -8.9      3.430      5.618
REMARK  5 active torsions:
REMARK  status: ('A' for Active; 'I' for Inactive)
REMARK    1  A    between atoms: C1_8  and  N1_6 
REMARK    2  A    between atoms: C11_18  and  N1_6 
REMARK    3  A    between atoms: C10_17  and  N2_7 
REMARK    4  A    between atoms: C11_18  and  N2_7 
REMARK    5  A    between atoms: C1_8  and  C2_9 
ROOT
HETATM    1  S1  UNK     1      18.476  -0.425  35.477  1.00  0.00    -0.041 SA
HETATM    2  C11 UNK     1      19.440  -1.720  35.009  1.00  0.00     0.172 C 
ENDROOT
BRANCH   2   3
HETATM    3  N1  UNK     1      19.416  -2.064  33.664  1.00  0.00    -0.359 N 
HETATM    4  H6  UNK     1      18.525  -2.391  33.301  1.00  0.00     0.162 HD
BRANCH   3   5
HETATM    5  C1  UNK     1      20.504  -1.945  32.712  1.00  0.00     0.113 C 
HETATM    6  C4  UNK     1      21.043  -3.325  32.336  1.00  0.00     0.037 C 
BRANCH   5   7
HETATM    7  C2  UNK     1      20.090  -1.136  31.502  1.00  0.00    -0.033 A 
HETATM    8  C3  UNK     1      19.327   0.006  31.687  1.00  0.00     0.049 A 
HETATM    9  C5  UNK     1      18.975   0.711  30.554  1.00  0.00     0.105 A 
HETATM   10  O1  UNK     1      18.232   1.851  30.522  1.00  0.00    -0.323 OA
HETATM   11  C7  UNK     1      19.360   0.303  29.298  1.00  0.00     0.105 A 
HETATM   12  C15 UNK     1      18.193   2.115  29.104  1.00  0.00     0.352 A 
HETATM   13  O2  UNK     1      18.908   1.136  28.321  1.00  0.00    -0.323 OA
HETATM   14  C8  UNK     1      20.120  -0.832  29.104  1.00  0.00     0.040 A 
HETATM   15  C6  UNK     1      20.490  -1.564  30.235  1.00  0.00     0.012 A 
ENDBRANCH   5   7
ENDBRANCH   3   5
ENDBRANCH   2   3
BRANCH   2  16
HETATM   16  N2  UNK     1      20.304  -2.484  35.812  1.00  0.00    -0.333 N 
HETATM   17  H10 UNK     1      21.053  -1.947  36.235  1.00  0.00     0.168 HD
BRANCH  16  18
HETATM   18  C10 UNK     1      20.178  -3.738  36.407  1.00  0.00     0.036 A 
HETATM   19  C14 UNK     1      21.153  -4.194  37.288  1.00  0.00     0.067 A 
HETATM   20  C12 UNK     1      21.007  -5.453  37.874  1.00  0.00     0.092 A 
HETATM   21  O3  UNK     1      22.027  -5.858  38.760  1.00  0.00    -0.275 OA
HETATM   22  C9  UNK     1      19.914  -6.277  37.608  1.00  0.00     0.004 A 
HETATM   23  C20 UNK     1      21.985  -7.088  39.399  1.00  0.00     0.288 A 
HETATM   24  C18 UNK     1      20.825  -7.946  39.105  1.00  0.00     0.090 A 
HETATM   25  O4  UNK     1      22.866  -7.451  40.170  1.00  0.00    -0.260 OA
HETATM   26  C13 UNK     1      19.841  -7.587  38.269  1.00  0.00    -0.043 A 
HETATM   27  C19 UNK     1      18.678  -8.497  38.003  1.00  0.00     0.049 C 
HETATM   28  C16 UNK     1      18.943  -5.800  36.717  1.00  0.00     0.017 A 
HETATM   29  C17 UNK     1      19.075  -4.541  36.122  1.00  0.00     0.030 A 
ENDBRANCH  16  18
ENDBRANCH   2  16
TORSDOF 5
ENDMDL
MODEL 9
REMARK VINA RESULT:      -8.9      1.854      2.663
REMARK  5 active torsions:
REMARK  status: ('A' for Active; 'I' for Inactive)
REMARK    1  A    between atoms: C1_8  and  N1_6 
REMARK    2  A    between atoms: C11_18  and  N1_6 
REMARK    3  A    between atoms: C10_17  and  N2_7 
REMARK    4  A    between atoms: C11_18  and  N2_7 
REMARK    5  A    between atoms: C1_8  and  C2_9 
ROOT
HETATM    1  S1  UNK     1      17.899   1.922  28.983  1.00  0.00    -0.041 SA
HETATM    2  C11 UNK     1      18.296   2.187  30.594  1.00  0.00     0.172 C 
ENDROOT
BRANCH   2   3
HETATM    3  N1  UNK     1      18.016   3.446  31.110  1.00  0.00    -0.359 N 
HETATM    4  H6  UNK     1      17.062   3.597  31.428  1.00  0.00     0.162 HD
BRANCH   3   5
HETATM    5  C1  UNK     1      18.949   4.539  31.302  1.00  0.00     0.113 C 
HETATM    6  C4  UNK     1      19.275   5.209  29.968  1.00  0.00     0.037 C 
BRANCH   5   7
HETATM    7  C2  UNK     1      18.440   5.521  32.334  1.00  0.00    -0.033 A 
HETATM    8  C3  UNK     1      17.102   5.881  32.318  1.00  0.00     0.049 A 
HETATM    9  C5  UNK     1      16.684   6.778  33.280  1.00  0.00     0.105 A 
HETATM   10  O1  UNK     1      15.419   7.256  33.431  1.00  0.00    -0.323 OA
HETATM   11  C7  UNK     1      17.553   7.296  34.213  1.00  0.00     0.105 A 
HETATM   12  C15 UNK     1      15.589   8.131  34.564  1.00  0.00     0.352 A 
HETATM   13  O2  UNK     1      16.941   8.162  35.066  1.00  0.00    -0.323 OA
HETATM   14  C8  UNK     1      18.887   6.944  34.237  1.00  0.00     0.040 A 
HETATM   15  C6  UNK     1      19.335   6.037  33.274  1.00  0.00     0.012 A 
ENDBRANCH   5   7
ENDBRANCH   3   5
ENDBRANCH   2   3
BRANCH   2  16
HETATM   16  N2  UNK     1      18.848   1.272  31.506  1.00  0.00    -0.333 N 
HETATM   17  H10 UNK     1      19.742   0.889  31.215  1.00  0.00     0.168 HD
BRANCH  16  18
HETATM   18  C10 UNK     1      18.602   1.016  32.855  1.00  0.00     0.036 A 
HETATM   19  C14 UNK     1      18.821  -0.254  33.376  1.00  0.00     0.067 A 
HETATM   20  C12 UNK     1      18.569  -0.489  34.729  1.00  0.00     0.092 A 
HETATM   21  O3  UNK     1      18.812  -1.796  35.199  1.00  0.00    -0.275 OA
HETATM   22  C9  UNK     1      18.103   0.510  35.584  1.00  0.00     0.004 A 
HETATM   23  C20 UNK     1      18.597  -2.141  36.524  1.00  0.00     0.288 A 
HETATM   24  C18 UNK     1      18.103  -1.076  37.413  1.00  0.00     0.090 A 
HETATM   25  O4  UNK     1      18.803  -3.275  36.943  1.00  0.00    -0.260 OA
HETATM   26  C13 UNK     1      17.865   0.175  36.995  1.00  0.00    -0.043 A 
HETATM   27  C19 UNK     1      17.363   1.227  37.940  1.00  0.00     0.049 C 
HETATM   28  C16 UNK     1      17.888   1.783  35.040  1.00  0.00     0.017 A 
HETATM   29  C17 UNK     1      18.136   2.034  33.686  1.00  0.00     0.030 A 
ENDBRANCH  16  18
ENDBRANCH   2  16
TORSDOF 5
ENDMDL
MODEL 10
REMARK VINA RESULT:      -8.9      4.416      6.802
REMARK  5 active torsions:
REMARK  status: ('A' for Active; 'I' for Inactive)
REMARK    1  A    between atoms: C1_8  and  N1_6 
REMARK    2  A    between atoms: C11_18  and  N1_6 
REMARK    3  A    between atoms: C10_17  and  N2_7 
REMARK    4  A    between atoms: C11_18  and  N2_7 
REMARK    5  A    between atoms: C1_8  and  C2_9 
ROOT
HETATM    1  S1  UNK     1      20.615  -2.580  36.103  1.00  0.00    -0.041 SA
HETATM    2  C11 UNK     1      19.063  -3.174  36.350  1.00  0.00     0.172 C 
ENDROOT
BRANCH   2   3
HETATM    3  N1  UNK     1      18.009  -2.344  35.991  1.00  0.00    -0.359 N 
HETATM    4  H6  UNK     1      17.532  -2.576  35.125  1.00  0.00     0.162 HD
BRANCH   3   5
HETATM    5  C1  UNK     1      17.478  -1.228  36.751  1.00  0.00     0.113 C 
HETATM    6  C4  UNK     1      17.997  -1.260  38.188  1.00  0.00     0.037 C 
BRANCH   5   7
HETATM    7  C2  UNK     1      17.761   0.089  36.063  1.00  0.00    -0.033 A 
HETATM    8  C3  UNK     1      17.610   0.176  34.687  1.00  0.00     0.049 A 
HETATM    9  C5  UNK     1      17.878   1.398  34.106  1.00  0.00     0.105 A 
HETATM   10  O1  UNK     1      17.791   1.686  32.779  1.00  0.00    -0.323 OA
HETATM   11  C7  UNK     1      18.279   2.483  34.851  1.00  0.00     0.105 A 
HETATM   12  C15 UNK     1      18.182   3.075  32.773  1.00  0.00     0.352 A 
HETATM   13  O2  UNK     1      18.493   3.587  34.085  1.00  0.00    -0.323 OA
HETATM   14  C8  UNK     1      18.433   2.406  36.220  1.00  0.00     0.040 A 
HETATM   15  C6  UNK     1      18.167   1.180  36.834  1.00  0.00     0.012 A 
ENDBRANCH   5   7
ENDBRANCH   3   5
ENDBRANCH   2   3
BRANCH   2  16
HETATM   16  N2  UNK     1      18.695  -4.436  36.847  1.00  0.00    -0.333 N 
HETATM   17  H10 UNK     1      17.754  -4.471  37.224  1.00  0.00     0.168 HD
BRANCH  16  18
HETATM   18  C10 UNK     1      19.210  -5.717  36.649  1.00  0.00     0.036 A 
HETATM   19  C14 UNK     1      18.862  -6.750  37.511  1.00  0.00     0.067 A 
HETATM   20  C12 UNK     1      19.389  -8.025  37.295  1.00  0.00     0.092 A 
HETATM   21  O3  UNK     1      18.998  -9.032  38.202  1.00  0.00    -0.275 OA
HETATM   22  C9  UNK     1      20.257  -8.304  36.239  1.00  0.00     0.004 A 
HETATM   23  C20 UNK     1      19.459 -10.334  38.082  1.00  0.00     0.288 A 
HETATM   24  C18 UNK     1      20.375 -10.611  36.964  1.00  0.00     0.090 A 
HETATM   25  O4  UNK     1      19.126 -11.216  38.865  1.00  0.00    -0.260 OA
HETATM   26  C13 UNK     1      20.764  -9.674  36.086  1.00  0.00    -0.043 A 
HETATM   27  C19 UNK     1      21.699 -10.006  34.961  1.00  0.00     0.049 C 
HETATM   28  C16 UNK     1      20.596  -7.249  35.381  1.00  0.00     0.017 A 
HETATM   29  C17 UNK     1      20.077  -5.966  35.585  1.00  0.00     0.030 A 
ENDBRANCH  16  18
ENDBRANCH   2  16
TORSDOF 5
ENDMDL
