MODEL 1
REMARK VINA RESULT:      -8.3      0.000      0.000
REMARK  8 active torsions:
REMARK  status: ('A' for Active; 'I' for Inactive)
REMARK    1  A    between atoms: C16_23  and  O2_2 
REMARK    2  A    between atoms: C3_10  and  O2_2 
REMARK    3  A    between atoms: C7_14  and  O3_3 
REMARK    4  A    between atoms: C10_17  and  O4_4 
REMARK    5  A    between atoms: C17_24  and  O6_6 
REMARK    6  A    between atoms: C20_27  and  O6_6 
REMARK    7  A    between atoms: C1_8  and  C2_9 
REMARK    8  A    between atoms: C16_23  and  C17_24 
ROOT
HETATM    1  O1  UNK     1      19.179   0.133  32.777  1.00  0.00    -0.306 OA
HETATM    2  O5  UNK     1      18.315   2.954  29.965  1.00  0.00    -0.284 OA
HETATM    3  C1  UNK     1      18.536   1.314  33.110  1.00  0.00     0.126 A 
HETATM    4  C3  UNK     1      18.226   2.289  32.237  1.00  0.00     0.155 A 
HETATM    5  C4  UNK     1      19.240   0.841  30.455  1.00  0.00     0.051 A 
HETATM    6  C5  UNK     1      19.511  -0.081  31.463  1.00  0.00     0.090 A 
HETATM    7  C6  UNK     1      18.572   2.103  30.806  1.00  0.00     0.221 A 
HETATM    8  C9  UNK     1      19.603   0.568  29.133  1.00  0.00     0.018 A 
HETATM    9  C11 UNK     1      20.146  -1.285  31.156  1.00  0.00     0.038 A 
HETATM   10  C14 UNK     1      20.238  -0.637  28.829  1.00  0.00     0.001 A 
HETATM   11  C15 UNK     1      20.510  -1.561  29.838  1.00  0.00     0.003 A 
ENDROOT
BRANCH   3  12
HETATM   12  C2  UNK     1      18.235   1.418  34.550  1.00  0.00     0.037 A 
HETATM   13  C7  UNK     1      17.081   0.849  35.092  1.00  0.00     0.114 A 
HETATM   14  C10 UNK     1      16.819   0.963  36.456  1.00  0.00     0.102 A 
HETATM   15  C13 UNK     1      17.712   1.647  37.283  1.00  0.00     0.040 A 
HETATM   16  C12 UNK     1      18.865   2.216  36.744  1.00  0.00     0.004 A 
HETATM   17  C8  UNK     1      19.126   2.102  35.379  1.00  0.00     0.017 A 
BRANCH  13  18
HETATM   18  O3  UNK     1      16.199   0.178  34.295  1.00  0.00    -0.352 OA
HETATM   19  C18 UNK     1      16.207  -1.245  34.380  1.00  0.00     0.210 C 
ENDBRANCH  13  18
BRANCH  14  20
HETATM   20  O4  UNK     1      15.697   0.412  36.997  1.00  0.00    -0.353 OA
HETATM   21  C19 UNK     1      14.513   1.206  36.984  1.00  0.00     0.210 C 
ENDBRANCH  14  20
ENDBRANCH   3  12
BRANCH   4  22
HETATM   22  O2  UNK     1      17.615   3.467  32.609  1.00  0.00    -0.335 OA
BRANCH  22  23
HETATM   23  C16 UNK     1      18.575   4.479  32.848  1.00  0.00     0.287 C 
BRANCH  23  24
HETATM   24  C17 UNK     1      18.005   5.803  32.413  1.00  0.00     0.283 C 
HETATM   25  O7  UNK     1      16.818   6.099  32.444  1.00  0.00    -0.263 OA
BRANCH  24  26
HETATM   26  O6  UNK     1      19.023   6.605  31.984  1.00  0.00    -0.320 OA
BRANCH  26  27
HETATM   27  C20 UNK     1      20.123   5.927  31.368  1.00  0.00     0.174 C 
HETATM   28  C21 UNK     1      19.939   5.954  29.866  1.00  0.00     0.034 C 
ENDBRANCH  26  27
ENDBRANCH  24  26
ENDBRANCH  23  24
ENDBRANCH  22  23
ENDBRANCH   4  22
TORSDOF 8
ENDMDL
MODEL 2
REMARK VINA RESULT:      -7.9      1.244      2.042
REMARK  8 active torsions:
REMARK  status: ('A' for Active; 'I' for Inactive)
REMARK    1  A    between atoms: C16_23  and  O2_2 
REMARK    2  A    between atoms: C3_10  and  O2_2 
REMARK    3  A    between atoms: C7_14  and  O3_3 
REMARK    4  A    between atoms: C10_17  and  O4_4 
REMARK    5  A    between atoms: C17_24  and  O6_6 
REMARK    6  A    between atoms: C20_27  and  O6_6 
REMARK    7  A    between atoms: C1_8  and  C2_9 
REMARK    8  A    between atoms: C16_23  and  C17_24 
ROOT
HETATM    1  O1  UNK     1      18.843  -0.560  32.911  1.00  0.00    -0.306 OA
HETATM    2  O5  UNK     1      18.906   2.610  30.351  1.00  0.00    -0.284 OA
HETATM    3  C1  UNK     1      18.207   0.632  33.219  1.00  0.00     0.126 A 
HETATM    4  C3  UNK     1      18.193   1.718  32.426  1.00  0.00     0.155 A 
HETATM    5  C4  UNK     1      19.544   0.382  30.786  1.00  0.00     0.051 A 
HETATM    6  C5  UNK     1      19.489  -0.663  31.705  1.00  0.00     0.090 A 
HETATM    7  C6  UNK     1      18.885   1.655  31.115  1.00  0.00     0.221 A 
HETATM    8  C9  UNK     1      20.218   0.220  29.572  1.00  0.00     0.018 A 
HETATM    9  C11 UNK     1      20.108  -1.880  31.417  1.00  0.00     0.038 A 
HETATM   10  C14 UNK     1      20.836  -0.999  29.287  1.00  0.00     0.001 A 
HETATM   11  C15 UNK     1      20.782  -2.046  30.208  1.00  0.00     0.003 A 
ENDROOT
BRANCH   3  12
HETATM   12  C2  UNK     1      17.552   0.609  34.539  1.00  0.00     0.037 A 
HETATM   13  C7  UNK     1      18.262   0.905  35.705  1.00  0.00     0.114 A 
HETATM   14  C10 UNK     1      17.619   0.876  36.942  1.00  0.00     0.102 A 
HETATM   15  C13 UNK     1      16.264   0.551  37.016  1.00  0.00     0.040 A 
HETATM   16  C12 UNK     1      15.553   0.255  35.854  1.00  0.00     0.004 A 
HETATM   17  C8  UNK     1      16.197   0.283  34.617  1.00  0.00     0.017 A 
BRANCH  13  18
HETATM   18  O3  UNK     1      19.587   1.226  35.647  1.00  0.00    -0.352 OA
HETATM   19  C18 UNK     1      19.954   2.534  36.078  1.00  0.00     0.210 C 
ENDBRANCH  13  18
BRANCH  14  20
HETATM   20  O4  UNK     1      18.300   1.164  38.086  1.00  0.00    -0.353 OA
HETATM   21  C19 UNK     1      17.589   1.861  39.106  1.00  0.00     0.210 C 
ENDBRANCH  14  20
ENDBRANCH   3  12
BRANCH   4  22
HETATM   22  O2  UNK     1      17.579   2.900  32.779  1.00  0.00    -0.335 OA
BRANCH  22  23
HETATM   23  C16 UNK     1      18.515   3.810  33.326  1.00  0.00     0.287 C 
BRANCH  23  24
HETATM   24  C17 UNK     1      18.035   5.214  33.067  1.00  0.00     0.283 C 
HETATM   25  O7  UNK     1      17.579   5.967  33.917  1.00  0.00    -0.263 OA
BRANCH  24  26
HETATM   26  O6  UNK     1      18.195   5.501  31.741  1.00  0.00    -0.320 OA
BRANCH  26  27
HETATM   27  C20 UNK     1      19.334   6.303  31.418  1.00  0.00     0.174 C 
HETATM   28  C21 UNK     1      19.831   5.921  30.040  1.00  0.00     0.034 C 
ENDBRANCH  26  27
ENDBRANCH  24  26
ENDBRANCH  23  24
ENDBRANCH  22  23
ENDBRANCH   4  22
TORSDOF 8
ENDMDL
MODEL 3
REMARK VINA RESULT:      -7.9      3.177      6.146
REMARK  8 active torsions:
REMARK  status: ('A' for Active; 'I' for Inactive)
REMARK    1  A    between atoms: C16_23  and  O2_2 
REMARK    2  A    between atoms: C3_10  and  O2_2 
REMARK    3  A    between atoms: C7_14  and  O3_3 
REMARK    4  A    between atoms: C10_17  and  O4_4 
REMARK    5  A    between atoms: C17_24  and  O6_6 
REMARK    6  A    between atoms: C20_27  and  O6_6 
REMARK    7  A    between atoms: C1_8  and  C2_9 
REMARK    8  A    between atoms: C16_23  and  C17_24 
ROOT
HETATM    1  O1  UNK     1      18.485   0.129  32.422  1.00  0.00    -0.306 OA
HETATM    2  O5  UNK     1      21.012  -3.061  32.622  1.00  0.00    -0.284 OA
HETATM    3  C1  UNK     1      18.569  -0.657  33.560  1.00  0.00     0.126 A 
HETATM    4  C3  UNK     1      19.375  -1.726  33.692  1.00  0.00     0.155 A 
HETATM    5  C4  UNK     1      20.175  -1.253  31.361  1.00  0.00     0.051 A 
HETATM    6  C5  UNK     1      19.289  -0.179  31.354  1.00  0.00     0.090 A 
HETATM    7  C6  UNK     1      20.258  -2.100  32.560  1.00  0.00     0.221 A 
HETATM    8  C9  UNK     1      20.970  -1.519  30.242  1.00  0.00     0.018 A 
HETATM    9  C11 UNK     1      19.190   0.638  30.227  1.00  0.00     0.038 A 
HETATM   10  C14 UNK     1      20.870  -0.700  29.117  1.00  0.00     0.001 A 
HETATM   11  C15 UNK     1      19.981   0.376  29.109  1.00  0.00     0.003 A 
ENDROOT
BRANCH   3  12
HETATM   12  C2  UNK     1      17.656  -0.219  34.631  1.00  0.00     0.037 A 
HETATM   13  C7  UNK     1      18.081   0.658  35.631  1.00  0.00     0.114 A 
HETATM   14  C10 UNK     1      17.197   1.056  36.633  1.00  0.00     0.102 A 
HETATM   15  C13 UNK     1      15.886   0.578  36.637  1.00  0.00     0.040 A 
HETATM   16  C12 UNK     1      15.459  -0.297  35.640  1.00  0.00     0.004 A 
HETATM   17  C8  UNK     1      16.344  -0.695  34.637  1.00  0.00     0.017 A 
BRANCH  13  18
HETATM   18  O3  UNK     1      19.360   1.133  35.639  1.00  0.00    -0.352 OA
HETATM   19  C18 UNK     1      19.522   2.549  35.668  1.00  0.00     0.210 C 
ENDBRANCH  13  18
BRANCH  14  20
HETATM   20  O4  UNK     1      17.599   1.911  37.614  1.00  0.00    -0.353 OA
HETATM   21  C19 UNK     1      17.794   1.361  38.915  1.00  0.00     0.210 C 
ENDBRANCH  14  20
ENDBRANCH   3  12
BRANCH   4  22
HETATM   22  O2  UNK     1      19.410  -2.506  34.828  1.00  0.00    -0.335 OA
BRANCH  22  23
HETATM   23  C16 UNK     1      20.472  -2.113  35.676  1.00  0.00     0.287 C 
BRANCH  23  24
HETATM   24  C17 UNK     1      20.453  -2.974  36.911  1.00  0.00     0.283 C 
HETATM   25  O7  UNK     1      19.878  -2.692  37.954  1.00  0.00    -0.263 OA
BRANCH  24  26
HETATM   26  O6  UNK     1      21.174  -4.109  36.672  1.00  0.00    -0.320 OA
BRANCH  26  27
HETATM   27  C20 UNK     1      21.297  -5.005  37.782  1.00  0.00     0.174 C 
HETATM   28  C21 UNK     1      20.439  -6.226  37.526  1.00  0.00     0.034 C 
ENDBRANCH  26  27
ENDBRANCH  24  26
ENDBRANCH  23  24
ENDBRANCH  22  23
ENDBRANCH   4  22
TORSDOF 8
ENDMDL
MODEL 4
REMARK VINA RESULT:      -7.2      1.744      5.054
REMARK  8 active torsions:
REMARK  status: ('A' for Active; 'I' for Inactive)
REMARK    1  A    between atoms: C16_23  and  O2_2 
REMARK    2  A    between atoms: C3_10  and  O2_2 
REMARK    3  A    between atoms: C7_14  and  O3_3 
REMARK    4  A    between atoms: C10_17  and  O4_4 
REMARK    5  A    between atoms: C17_24  and  O6_6 
REMARK    6  A    between atoms: C20_27  and  O6_6 
REMARK    7  A    between atoms: C1_8  and  C2_9 
REMARK    8  A    between atoms: C16_23  and  C17_24 
ROOT
HETATM    1  O1  UNK     1      17.851   3.358  33.726  1.00  0.00    -0.306 OA
HETATM    2  O5  UNK     1      19.149   2.268  30.020  1.00  0.00    -0.284 OA
HETATM    3  C1  UNK     1      17.962   2.026  33.361  1.00  0.00     0.126 A 
HETATM    4  C3  UNK     1      18.375   1.596  32.155  1.00  0.00     0.155 A 
HETATM    5  C4  UNK     1      18.660   4.011  31.533  1.00  0.00     0.051 A 
HETATM    6  C5  UNK     1      18.206   4.318  32.813  1.00  0.00     0.090 A 
HETATM    7  C6  UNK     1      18.764   2.599  31.134  1.00  0.00     0.221 A 
HETATM    8  C9  UNK     1      19.007   5.031  30.643  1.00  0.00     0.018 A 
HETATM    9  C11 UNK     1      18.097   5.649  33.214  1.00  0.00     0.038 A 
HETATM   10  C14 UNK     1      18.897   6.363  31.047  1.00  0.00     0.001 A 
HETATM   11  C15 UNK     1      18.442   6.671  32.330  1.00  0.00     0.003 A 
ENDROOT
BRANCH   3  12
HETATM   12  C2  UNK     1      17.551   1.100  34.432  1.00  0.00     0.037 A 
HETATM   13  C7  UNK     1      18.406   0.793  35.492  1.00  0.00     0.114 A 
HETATM   14  C10 UNK     1      17.993  -0.087  36.491  1.00  0.00     0.102 A 
HETATM   15  C13 UNK     1      16.723  -0.662  36.433  1.00  0.00     0.040 A 
HETATM   16  C12 UNK     1      15.868  -0.358  35.376  1.00  0.00     0.004 A 
HETATM   17  C8  UNK     1      16.281   0.522  34.375  1.00  0.00     0.017 A 
BRANCH  13  18
HETATM   18  O3  UNK     1      19.650   1.350  35.562  1.00  0.00    -0.352 OA
HETATM   19  C18 UNK     1      19.765   2.590  36.255  1.00  0.00     0.210 C 
ENDBRANCH  13  18
BRANCH  14  20
HETATM   20  O4  UNK     1      18.818  -0.393  37.531  1.00  0.00    -0.353 OA
HETATM   21  C19 UNK     1      18.631  -1.660  38.156  1.00  0.00     0.210 C 
ENDBRANCH  14  20
ENDBRANCH   3  12
BRANCH   4  22
HETATM   22  O2  UNK     1      18.442   0.262  31.814  1.00  0.00    -0.335 OA
BRANCH  22  23
HETATM   23  C16 UNK     1      19.638  -0.322  32.295  1.00  0.00     0.287 C 
BRANCH  23  24
HETATM   24  C17 UNK     1      20.253  -1.147  31.197  1.00  0.00     0.283 C 
HETATM   25  O7  UNK     1      20.267  -2.370  31.163  1.00  0.00    -0.263 OA
BRANCH  24  26
HETATM   26  O6  UNK     1      20.784  -0.310  30.257  1.00  0.00    -0.320 OA
BRANCH  26  27
HETATM   27  C20 UNK     1      20.816  -0.825  28.922  1.00  0.00     0.174 C 
HETATM   28  C21 UNK     1      19.472  -0.580  28.268  1.00  0.00     0.034 C 
ENDBRANCH  26  27
ENDBRANCH  24  26
ENDBRANCH  23  24
ENDBRANCH  22  23
ENDBRANCH   4  22
TORSDOF 8
ENDMDL
MODEL 5
REMARK VINA RESULT:      -7.2     13.196     16.144
REMARK  8 active torsions:
REMARK  status: ('A' for Active; 'I' for Inactive)
REMARK    1  A    between atoms: C16_23  and  O2_2 
REMARK    2  A    between atoms: C3_10  and  O2_2 
REMARK    3  A    between atoms: C7_14  and  O3_3 
REMARK    4  A    between atoms: C10_17  and  O4_4 
REMARK    5  A    between atoms: C17_24  and  O6_6 
REMARK    6  A    between atoms: C20_27  and  O6_6 
REMARK    7  A    between atoms: C1_8  and  C2_9 
REMARK    8  A    between atoms: C16_23  and  C17_24 
ROOT
HETATM    1  O1  UNK     1      30.920  -5.743  32.925  1.00  0.00    -0.306 OA
HETATM    2  O5  UNK     1      27.799  -6.770  35.334  1.00  0.00    -0.284 OA
HETATM    3  C1  UNK     1      31.076  -5.870  34.296  1.00  0.00     0.126 A 
HETATM    4  C3  UNK     1      30.089  -6.199  35.150  1.00  0.00     0.155 A 
HETATM    5  C4  UNK     1      28.580  -6.345  33.150  1.00  0.00     0.051 A 
HETATM    6  C5  UNK     1      29.685  -5.987  32.382  1.00  0.00     0.090 A 
HETATM    7  C6  UNK     1      28.735  -6.466  34.608  1.00  0.00     0.221 A 
HETATM    8  C9  UNK     1      27.344  -6.582  32.542  1.00  0.00     0.018 A 
HETATM    9  C11 UNK     1      29.562  -5.864  30.998  1.00  0.00     0.038 A 
HETATM   10  C14 UNK     1      27.225  -6.458  31.157  1.00  0.00     0.001 A 
HETATM   11  C15 UNK     1      28.331  -6.099  30.387  1.00  0.00     0.003 A 
ENDROOT
BRANCH   3  12
HETATM   12  C2  UNK     1      32.448  -5.581  34.749  1.00  0.00     0.037 A 
HETATM   13  C7  UNK     1      33.397  -6.597  34.878  1.00  0.00     0.114 A 
HETATM   14  C10 UNK     1      34.689  -6.298  35.309  1.00  0.00     0.102 A 
HETATM   15  C13 UNK     1      35.035  -4.980  35.612  1.00  0.00     0.040 A 
HETATM   16  C12 UNK     1      34.090  -3.963  35.483  1.00  0.00     0.004 A 
HETATM   17  C8  UNK     1      32.797  -4.264  35.053  1.00  0.00     0.017 A 
BRANCH  13  18
HETATM   18  O3  UNK     1      33.073  -7.890  34.585  1.00  0.00    -0.352 OA
HETATM   19  C18 UNK     1      32.748  -8.738  35.683  1.00  0.00     0.210 C 
ENDBRANCH  13  18
BRANCH  14  20
HETATM   20  O4  UNK     1      35.623  -7.280  35.438  1.00  0.00    -0.353 OA
HETATM   21  C19 UNK     1      36.806  -7.158  34.652  1.00  0.00     0.210 C 
ENDBRANCH  14  20
ENDBRANCH   3  12
BRANCH   4  22
HETATM   22  O2  UNK     1      30.271  -6.284  36.513  1.00  0.00    -0.335 OA
BRANCH  22  23
HETATM   23  C16 UNK     1      29.945  -5.059  37.143  1.00  0.00     0.287 C 
BRANCH  23  24
HETATM   24  C17 UNK     1      29.416  -5.348  38.523  1.00  0.00     0.283 C 
HETATM   25  O7  UNK     1      29.230  -4.507  39.392  1.00  0.00    -0.263 OA
BRANCH  24  26
HETATM   26  O6  UNK     1      29.183  -6.688  38.638  1.00  0.00    -0.320 OA
BRANCH  26  27
HETATM   27  C20 UNK     1      28.030  -7.049  39.404  1.00  0.00     0.174 C 
HETATM   28  C21 UNK     1      27.824  -8.546  39.311  1.00  0.00     0.034 C 
ENDBRANCH  26  27
ENDBRANCH  24  26
ENDBRANCH  23  24
ENDBRANCH  22  23
ENDBRANCH   4  22
TORSDOF 8
ENDMDL
MODEL 6
REMARK VINA RESULT:      -7.2      2.914      5.835
REMARK  8 active torsions:
REMARK  status: ('A' for Active; 'I' for Inactive)
REMARK    1  A    between atoms: C16_23  and  O2_2 
REMARK    2  A    between atoms: C3_10  and  O2_2 
REMARK    3  A    between atoms: C7_14  and  O3_3 
REMARK    4  A    between atoms: C10_17  and  O4_4 
REMARK    5  A    between atoms: C17_24  and  O6_6 
REMARK    6  A    between atoms: C20_27  and  O6_6 
REMARK    7  A    between atoms: C1_8  and  C2_9 
REMARK    8  A    between atoms: C16_23  and  C17_24 
ROOT
HETATM    1  O1  UNK     1      18.721   0.636  32.665  1.00  0.00    -0.306 OA
HETATM    2  O5  UNK     1      20.420  -3.067  32.588  1.00  0.00    -0.284 OA
HETATM    3  C1  UNK     1      18.741  -0.174  33.788  1.00  0.00     0.126 A 
HETATM    4  C3  UNK     1      19.277  -1.407  33.832  1.00  0.00     0.155 A 
HETATM    5  C4  UNK     1      19.905  -1.082  31.424  1.00  0.00     0.051 A 
HETATM    6  C5  UNK     1      19.306   0.172  31.514  1.00  0.00     0.090 A 
HETATM    7  C6  UNK     1      19.915  -1.953  32.609  1.00  0.00     0.221 A 
HETATM    8  C9  UNK     1      20.485  -1.502  30.224  1.00  0.00     0.018 A 
HETATM    9  C11 UNK     1      19.282   1.016  30.403  1.00  0.00     0.038 A 
HETATM   10  C14 UNK     1      20.460  -0.656  29.114  1.00  0.00     0.001 A 
HETATM   11  C15 UNK     1      19.858   0.600  29.204  1.00  0.00     0.003 A 
ENDROOT
BRANCH   3  12
HETATM   12  C2  UNK     1      18.083   0.442  34.954  1.00  0.00     0.037 A 
HETATM   13  C7  UNK     1      16.703   0.342  35.144  1.00  0.00     0.114 A 
HETATM   14  C10 UNK     1      16.104   0.935  36.254  1.00  0.00     0.102 A 
HETATM   15  C13 UNK     1      16.885   1.630  37.180  1.00  0.00     0.040 A 
HETATM   16  C12 UNK     1      18.263   1.731  36.993  1.00  0.00     0.004 A 
HETATM   17  C8  UNK     1      18.861   1.138  35.881  1.00  0.00     0.017 A 
BRANCH  13  18
HETATM   18  O3  UNK     1      15.927  -0.334  34.247  1.00  0.00    -0.352 OA
HETATM   19  C18 UNK     1      15.743  -1.729  34.477  1.00  0.00     0.210 C 
ENDBRANCH  13  18
BRANCH  14  20
HETATM   20  O4  UNK     1      14.760   0.844  36.450  1.00  0.00    -0.353 OA
HETATM   21  C19 UNK     1      14.126   1.932  37.119  1.00  0.00     0.210 C 
ENDBRANCH  14  20
ENDBRANCH   3  12
BRANCH   4  22
HETATM   22  O2  UNK     1      19.250  -2.201  34.959  1.00  0.00    -0.335 OA
BRANCH  22  23
HETATM   23  C16 UNK     1      20.515  -2.219  35.592  1.00  0.00     0.287 C 
BRANCH  23  24
HETATM   24  C17 UNK     1      20.721  -3.567  36.229  1.00  0.00     0.283 C 
HETATM   25  O7  UNK     1      21.305  -3.761  37.287  1.00  0.00    -0.263 OA
BRANCH  24  26
HETATM   26  O6  UNK     1      20.153  -4.524  35.437  1.00  0.00    -0.320 OA
BRANCH  26  27
HETATM   27  C20 UNK     1      19.556  -5.623  36.132  1.00  0.00     0.174 C 
HETATM   28  C21 UNK     1      19.505  -6.821  35.208  1.00  0.00     0.034 C 
ENDBRANCH  26  27
ENDBRANCH  24  26
ENDBRANCH  23  24
ENDBRANCH  22  23
ENDBRANCH   4  22
TORSDOF 8
ENDMDL
MODEL 7
REMARK VINA RESULT:      -7.2     13.349     15.974
REMARK  8 active torsions:
REMARK  status: ('A' for Active; 'I' for Inactive)
REMARK    1  A    between atoms: C16_23  and  O2_2 
REMARK    2  A    between atoms: C3_10  and  O2_2 
REMARK    3  A    between atoms: C7_14  and  O3_3 
REMARK    4  A    between atoms: C10_17  and  O4_4 
REMARK    5  A    between atoms: C17_24  and  O6_6 
REMARK    6  A    between atoms: C20_27  and  O6_6 
REMARK    7  A    between atoms: C1_8  and  C2_9 
REMARK    8  A    between atoms: C16_23  and  C17_24 
ROOT
HETATM    1  O1  UNK     1      29.220  -6.304  33.404  1.00  0.00    -0.306 OA
HETATM    2  O5  UNK     1      30.986  -9.818  32.334  1.00  0.00    -0.284 OA
HETATM    3  C1  UNK     1      30.369  -6.757  34.031  1.00  0.00     0.126 A 
HETATM    4  C3  UNK     1      31.000  -7.908  33.734  1.00  0.00     0.155 A 
HETATM    5  C4  UNK     1      29.245  -8.268  31.976  1.00  0.00     0.051 A 
HETATM    6  C5  UNK     1      28.687  -7.061  32.391  1.00  0.00     0.090 A 
HETATM    7  C6  UNK     1      30.456  -8.761  32.649  1.00  0.00     0.221 A 
HETATM    8  C9  UNK     1      28.658  -8.997  30.938  1.00  0.00     0.018 A 
HETATM    9  C11 UNK     1      27.537  -6.573  31.770  1.00  0.00     0.038 A 
HETATM   10  C14 UNK     1      27.508  -8.506  30.318  1.00  0.00     0.001 A 
HETATM   11  C15 UNK     1      26.948  -7.297  30.734  1.00  0.00     0.003 A 
ENDROOT
BRANCH   3  12
HETATM   12  C2  UNK     1      30.837  -5.853  35.097  1.00  0.00     0.037 A 
HETATM   13  C7  UNK     1      30.367  -5.973  36.407  1.00  0.00     0.114 A 
HETATM   14  C10 UNK     1      30.824  -5.104  37.396  1.00  0.00     0.102 A 
HETATM   15  C13 UNK     1      31.754  -4.113  37.079  1.00  0.00     0.040 A 
HETATM   16  C12 UNK     1      32.225  -3.991  35.773  1.00  0.00     0.004 A 
HETATM   17  C8  UNK     1      31.766  -4.860  34.782  1.00  0.00     0.017 A 
BRANCH  13  18
HETATM   18  O3  UNK     1      29.458  -6.938  36.731  1.00  0.00    -0.352 OA
HETATM   19  C18 UNK     1      28.085  -6.555  36.737  1.00  0.00     0.210 C 
ENDBRANCH  13  18
BRANCH  14  20
HETATM   20  O4  UNK     1      30.374  -5.212  38.677  1.00  0.00    -0.353 OA
HETATM   21  C19 UNK     1      29.591  -4.133  39.183  1.00  0.00     0.210 C 
ENDBRANCH  14  20
ENDBRANCH   3  12
BRANCH   4  22
HETATM   22  O2  UNK     1      32.124  -8.344  34.401  1.00  0.00    -0.335 OA
BRANCH  22  23
HETATM   23  C16 UNK     1      31.784  -9.302  35.386  1.00  0.00     0.287 C 
BRANCH  23  24
HETATM   24  C17 UNK     1      32.376  -8.877  36.703  1.00  0.00     0.283 C 
HETATM   25  O7  UNK     1      31.904  -9.140  37.802  1.00  0.00    -0.263 OA
BRANCH  24  26
HETATM   26  O6  UNK     1      33.513  -8.158  36.468  1.00  0.00    -0.320 OA
BRANCH  26  27
HETATM   27  C20 UNK     1      33.869  -7.218  37.487  1.00  0.00     0.174 C 
HETATM   28  C21 UNK     1      34.813  -6.190  36.900  1.00  0.00     0.034 C 
ENDBRANCH  26  27
ENDBRANCH  24  26
ENDBRANCH  23  24
ENDBRANCH  22  23
ENDBRANCH   4  22
TORSDOF 8
ENDMDL
MODEL 8
REMARK VINA RESULT:      -7.2      1.875      5.369
REMARK  8 active torsions:
REMARK  status: ('A' for Active; 'I' for Inactive)
REMARK    1  A    between atoms: C16_23  and  O2_2 
REMARK    2  A    between atoms: C3_10  and  O2_2 
REMARK    3  A    between atoms: C7_14  and  O3_3 
REMARK    4  A    between atoms: C10_17  and  O4_4 
REMARK    5  A    between atoms: C17_24  and  O6_6 
REMARK    6  A    between atoms: C20_27  and  O6_6 
REMARK    7  A    between atoms: C1_8  and  C2_9 
REMARK    8  A    between atoms: C16_23  and  C17_24 
ROOT
HETATM    1  O1  UNK     1      17.867   3.336  33.446  1.00  0.00    -0.306 OA
HETATM    2  O5  UNK     1      19.251   2.020  29.846  1.00  0.00    -0.284 OA
HETATM    3  C1  UNK     1      17.983   1.984  33.166  1.00  0.00     0.126 A 
HETATM    4  C3  UNK     1      18.425   1.480  31.999  1.00  0.00     0.155 A 
HETATM    5  C4  UNK     1      18.730   3.852  31.237  1.00  0.00     0.051 A 
HETATM    6  C5  UNK     1      18.246   4.237  32.484  1.00  0.00     0.090 A 
HETATM    7  C6  UNK     1      18.841   2.418  30.928  1.00  0.00     0.221 A 
HETATM    8  C9  UNK     1      19.101   4.816  30.295  1.00  0.00     0.018 A 
HETATM    9  C11 UNK     1      18.130   5.591  32.800  1.00  0.00     0.038 A 
HETATM   10  C14 UNK     1      18.985   6.170  30.614  1.00  0.00     0.001 A 
HETATM   11  C15 UNK     1      18.499   6.556  31.864  1.00  0.00     0.003 A 
ENDROOT
BRANCH   3  12
HETATM   12  C2  UNK     1      17.544   1.126  34.281  1.00  0.00     0.037 A 
HETATM   13  C7  UNK     1      18.369   0.892  35.383  1.00  0.00     0.114 A 
HETATM   14  C10 UNK     1      17.930   0.075  36.424  1.00  0.00     0.102 A 
HETATM   15  C13 UNK     1      16.665  -0.511  36.366  1.00  0.00     0.040 A 
HETATM   16  C12 UNK     1      15.840  -0.279  35.266  1.00  0.00     0.004 A 
HETATM   17  C8  UNK     1      16.279   0.538  34.224  1.00  0.00     0.017 A 
BRANCH  13  18
HETATM   18  O3  UNK     1      19.608   1.459  35.454  1.00  0.00    -0.352 OA
HETATM   19  C18 UNK     1      19.722   2.671  36.197  1.00  0.00     0.210 C 
ENDBRANCH  13  18
BRANCH  14  20
HETATM   20  O4  UNK     1      18.725  -0.159  37.505  1.00  0.00    -0.353 OA
HETATM   21  C19 UNK     1      18.422  -1.305  38.297  1.00  0.00     0.210 C 
ENDBRANCH  14  20
ENDBRANCH   3  12
BRANCH   4  22
HETATM   22  O2  UNK     1      18.497   0.128  31.741  1.00  0.00    -0.335 OA
BRANCH  22  23
HETATM   23  C16 UNK     1      19.797  -0.235  31.317  1.00  0.00     0.287 C 
BRANCH  23  24
HETATM   24  C17 UNK     1      20.095  -1.629  31.803  1.00  0.00     0.283 C 
HETATM   25  O7  UNK     1      20.549  -2.530  31.111  1.00  0.00    -0.263 OA
BRANCH  24  26
HETATM   26  O6  UNK     1      19.779  -1.714  33.129  1.00  0.00    -0.320 OA
BRANCH  26  27
HETATM   27  C20 UNK     1      20.487  -2.714  33.867  1.00  0.00     0.174 C 
HETATM   28  C21 UNK     1      20.298  -2.460  35.348  1.00  0.00     0.034 C 
ENDBRANCH  26  27
ENDBRANCH  24  26
ENDBRANCH  23  24
ENDBRANCH  22  23
ENDBRANCH   4  22
TORSDOF 8
ENDMDL
MODEL 9
REMARK VINA RESULT:      -7.1     13.626     16.815
REMARK  8 active torsions:
REMARK  status: ('A' for Active; 'I' for Inactive)
REMARK    1  A    between atoms: C16_23  and  O2_2 
REMARK    2  A    between atoms: C3_10  and  O2_2 
REMARK    3  A    between atoms: C7_14  and  O3_3 
REMARK    4  A    between atoms: C10_17  and  O4_4 
REMARK    5  A    between atoms: C17_24  and  O6_6 
REMARK    6  A    between atoms: C20_27  and  O6_6 
REMARK    7  A    between atoms: C1_8  and  C2_9 
REMARK    8  A    between atoms: C16_23  and  C17_24 
ROOT
HETATM    1  O1  UNK     1      30.283  -6.422  35.505  1.00  0.00    -0.306 OA
HETATM    2  O5  UNK     1      32.270  -3.078  36.720  1.00  0.00    -0.284 OA
HETATM    3  C1  UNK     1      31.340  -5.903  34.775  1.00  0.00     0.126 A 
HETATM    4  C3  UNK     1      32.035  -4.802  35.113  1.00  0.00     0.155 A 
HETATM    5  C4  UNK     1      30.562  -4.649  37.139  1.00  0.00     0.051 A 
HETATM    6  C5  UNK     1      29.921  -5.792  36.669  1.00  0.00     0.090 A 
HETATM    7  C6  UNK     1      31.675  -4.085  36.360  1.00  0.00     0.221 A 
HETATM    8  C9  UNK     1      30.150  -4.049  38.333  1.00  0.00     0.018 A 
HETATM    9  C11 UNK     1      28.862  -6.345  37.389  1.00  0.00     0.038 A 
HETATM   10  C14 UNK     1      29.090  -4.605  39.051  1.00  0.00     0.001 A 
HETATM   11  C15 UNK     1      28.446  -5.750  38.579  1.00  0.00     0.003 A 
ENDROOT
BRANCH   3  12
HETATM   12  C2  UNK     1      31.625  -6.672  33.550  1.00  0.00     0.037 A 
HETATM   13  C7  UNK     1      31.079  -6.304  32.319  1.00  0.00     0.114 A 
HETATM   14  C10 UNK     1      31.364  -7.049  31.176  1.00  0.00     0.102 A 
HETATM   15  C13 UNK     1      32.198  -8.165  31.261  1.00  0.00     0.040 A 
HETATM   16  C12 UNK     1      32.745  -8.535  32.489  1.00  0.00     0.004 A 
HETATM   17  C8  UNK     1      32.458  -7.790  33.633  1.00  0.00     0.017 A 
BRANCH  13  18
HETATM   18  O3  UNK     1      30.262  -5.215  32.222  1.00  0.00    -0.352 OA
HETATM   19  C18 UNK     1      28.859  -5.451  32.300  1.00  0.00     0.210 C 
ENDBRANCH  13  18
BRANCH  14  20
HETATM   20  O4  UNK     1      30.838  -6.699  29.970  1.00  0.00    -0.353 OA
HETATM   21  C19 UNK     1      29.952  -7.631  29.353  1.00  0.00     0.210 C 
ENDBRANCH  14  20
ENDBRANCH   3  12
BRANCH   4  22
HETATM   22  O2  UNK     1      33.060  -4.294  34.345  1.00  0.00    -0.335 OA
BRANCH  22  23
HETATM   23  C16 UNK     1      34.285  -4.331  35.053  1.00  0.00     0.287 C 
BRANCH  23  24
HETATM   24  C17 UNK     1      35.085  -5.515  34.578  1.00  0.00     0.283 C 
HETATM   25  O7  UNK     1      35.262  -5.817  33.406  1.00  0.00    -0.263 OA
BRANCH  24  26
HETATM   26  O6  UNK     1      35.573  -6.186  35.664  1.00  0.00    -0.320 OA
BRANCH  26  27
HETATM   27  C20 UNK     1      34.835  -6.012  36.877  1.00  0.00     0.174 C 
HETATM   28  C21 UNK     1      34.020  -7.261  37.140  1.00  0.00     0.034 C 
ENDBRANCH  26  27
ENDBRANCH  24  26
ENDBRANCH  23  24
ENDBRANCH  22  23
ENDBRANCH   4  22
TORSDOF 8
ENDMDL
MODEL 10
REMARK VINA RESULT:      -7.0     13.185     15.565
REMARK  8 active torsions:
REMARK  status: ('A' for Active; 'I' for Inactive)
REMARK    1  A    between atoms: C16_23  and  O2_2 
REMARK    2  A    between atoms: C3_10  and  O2_2 
REMARK    3  A    between atoms: C7_14  and  O3_3 
REMARK    4  A    between atoms: C10_17  and  O4_4 
REMARK    5  A    between atoms: C17_24  and  O6_6 
REMARK    6  A    between atoms: C20_27  and  O6_6 
REMARK    7  A    between atoms: C1_8  and  C2_9 
REMARK    8  A    between atoms: C16_23  and  C17_24 
ROOT
HETATM    1  O1  UNK     1      28.371  -6.614  34.631  1.00  0.00    -0.306 OA
HETATM    2  O5  UNK     1      32.208  -5.690  33.615  1.00  0.00    -0.284 OA
HETATM    3  C1  UNK     1      29.381  -6.573  35.579  1.00  0.00     0.126 A 
HETATM    4  C3  UNK     1      30.667  -6.283  35.313  1.00  0.00     0.155 A 
HETATM    5  C4  UNK     1      29.975  -5.992  32.918  1.00  0.00     0.051 A 
HETATM    6  C5  UNK     1      28.685  -6.319  33.329  1.00  0.00     0.090 A 
HETATM    7  C6  UNK     1      31.054  -5.962  33.917  1.00  0.00     0.221 A 
HETATM    8  C9  UNK     1      30.236  -5.700  31.576  1.00  0.00     0.018 A 
HETATM    9  C11 UNK     1      27.645  -6.355  32.399  1.00  0.00     0.038 A 
HETATM   10  C14 UNK     1      29.193  -5.737  30.649  1.00  0.00     0.001 A 
HETATM   11  C15 UNK     1      27.901  -6.065  31.060  1.00  0.00     0.003 A 
ENDROOT
BRANCH   3  12
HETATM   12  C2  UNK     1      28.911  -6.909  36.935  1.00  0.00     0.037 A 
HETATM   13  C7  UNK     1      28.746  -8.237  37.336  1.00  0.00     0.114 A 
HETATM   14  C10 UNK     1      28.299  -8.528  38.624  1.00  0.00     0.102 A 
HETATM   15  C13 UNK     1      28.016  -7.491  39.515  1.00  0.00     0.040 A 
HETATM   16  C12 UNK     1      28.180  -6.166  39.117  1.00  0.00     0.004 A 
HETATM   17  C8  UNK     1      28.626  -5.875  37.828  1.00  0.00     0.017 A 
BRANCH  13  18
HETATM   18  O3  UNK     1      29.020  -9.260  36.475  1.00  0.00    -0.352 OA
HETATM   19  C18 UNK     1      27.929  -9.773  35.715  1.00  0.00     0.210 C 
ENDBRANCH  13  18
BRANCH  14  20
HETATM   20  O4  UNK     1      28.136  -9.818  39.027  1.00  0.00    -0.353 OA
HETATM   21  C19 UNK     1      27.027 -10.096  39.879  1.00  0.00     0.210 C 
ENDBRANCH  14  20
ENDBRANCH   3  12
BRANCH   4  22
HETATM   22  O2  UNK     1      31.654  -6.283  36.276  1.00  0.00    -0.335 OA
BRANCH  22  23
HETATM   23  C16 UNK     1      32.299  -7.541  36.335  1.00  0.00     0.287 C 
BRANCH  23  24
HETATM   24  C17 UNK     1      33.733  -7.333  36.744  1.00  0.00     0.283 C 
HETATM   25  O7  UNK     1      34.139  -7.329  37.899  1.00  0.00    -0.263 OA
BRANCH  24  26
HETATM   26  O6  UNK     1      34.493  -7.154  35.624  1.00  0.00    -0.320 OA
BRANCH  26  27
HETATM   27  C20 UNK     1      35.483  -6.125  35.710  1.00  0.00     0.174 C 
HETATM   28  C21 UNK     1      34.811  -4.779  35.536  1.00  0.00     0.034 C 
ENDBRANCH  26  27
ENDBRANCH  24  26
ENDBRANCH  23  24
ENDBRANCH  22  23
ENDBRANCH   4  22
TORSDOF 8
ENDMDL
