MODEL 1
REMARK VINA RESULT:      -8.7      0.000      0.000
REMARK  6 active torsions:
REMARK  status: ('A' for Active; 'I' for Inactive)
REMARK    1  A    between atoms: C11_19  and  O2_4 
REMARK    2  A    between atoms: C15_23  and  O3_5 
REMARK    3  A    between atoms: C13_21  and  N1_7 
REMARK    4  A    between atoms: C4_12  and  N1_7 
REMARK    5  A    between atoms: C13_21  and  N2_8 
REMARK    6  A    between atoms: C9_17  and  N2_8 
ROOT
HETATM    1  S1  UNK     1      17.897   1.694  28.620  1.00  0.00    -0.041 SA
HETATM    2  C13 UNK     1      18.850   2.349  29.845  1.00  0.00     0.176 C 
ENDROOT
BRANCH   2   3
HETATM    3  N1  UNK     1      19.087   3.730  29.808  1.00  0.00    -0.333 N 
HETATM    4  H5  UNK     1      19.509   4.040  28.934  1.00  0.00     0.168 HD
BRANCH   3   5
HETATM    5  C4  UNK     1      19.045   4.710  30.800  1.00  0.00     0.036 A 
HETATM    6  C5  UNK     1      17.849   4.998  31.448  1.00  0.00     0.067 A 
HETATM    7  C2  UNK     1      17.831   5.982  32.438  1.00  0.00     0.092 A 
HETATM    8  C1  UNK     1      18.974   6.693  32.804  1.00  0.00     0.004 A 
HETATM    9  O1  UNK     1      16.589   6.228  33.060  1.00  0.00    -0.275 OA
HETATM   10  C3  UNK     1      18.863   7.711  33.857  1.00  0.00    -0.043 A 
HETATM   11  C6  UNK     1      20.170   6.389  32.138  1.00  0.00     0.017 A 
HETATM   12  C10 UNK     1      20.075   8.493  34.273  1.00  0.00     0.049 C 
HETATM   13  C8  UNK     1      17.670   7.924  34.430  1.00  0.00     0.090 A 
HETATM   14  C12 UNK     1      16.455   7.182  34.056  1.00  0.00     0.288 A 
HETATM   15  O4  UNK     1      15.380   7.404  34.603  1.00  0.00    -0.260 OA
HETATM   16  C7  UNK     1      20.204   5.404  31.144  1.00  0.00     0.030 A 
ENDBRANCH   3   5
ENDBRANCH   2   3
BRANCH   2  17
HETATM   17  N2  UNK     1      19.527   1.649  30.828  1.00  0.00    -0.331 N 
HETATM   18  H9  UNK     1      20.432   1.298  30.532  1.00  0.00     0.168 HD
BRANCH  17  19
HETATM   19  C9  UNK     1      19.052   0.920  31.946  1.00  0.00     0.070 A 
HETATM   20  C11 UNK     1      19.143  -0.462  31.959  1.00  0.00     0.096 A 
HETATM   21  C16 UNK     1      18.670  -1.167  33.066  1.00  0.00     0.065 A 
HETATM   22  C17 UNK     1      18.114  -0.479  34.144  1.00  0.00     0.070 A 
HETATM   23  C15 UNK     1      18.031   0.914  34.116  1.00  0.00     0.092 A 
HETATM   24 Cl1  UNK     1      17.537  -1.375  35.501  1.00  0.00    -0.081 Cl
HETATM   25  C14 UNK     1      18.503   1.618  33.008  1.00  0.00     0.071 A 
BRANCH  20  26
HETATM   26  O2  UNK     1      19.682  -1.153  30.915  1.00  0.00    -0.354 OA
HETATM   27  C18 UNK     1      20.577  -2.216  31.235  1.00  0.00     0.210 C 
ENDBRANCH  20  26
BRANCH  23  28
HETATM   28  O3  UNK     1      17.491   1.611  35.155  1.00  0.00    -0.354 OA
HETATM   29  C19 UNK     1      18.363   1.943  36.234  1.00  0.00     0.210 C 
ENDBRANCH  23  28
ENDBRANCH  17  19
ENDBRANCH   2  17
TORSDOF 6
ENDMDL
MODEL 2
REMARK VINA RESULT:      -8.7      6.883     11.912
REMARK  6 active torsions:
REMARK  status: ('A' for Active; 'I' for Inactive)
REMARK    1  A    between atoms: C11_19  and  O2_4 
REMARK    2  A    between atoms: C15_23  and  O3_5 
REMARK    3  A    between atoms: C13_21  and  N1_7 
REMARK    4  A    between atoms: C4_12  and  N1_7 
REMARK    5  A    between atoms: C13_21  and  N2_8 
REMARK    6  A    between atoms: C9_17  and  N2_8 
ROOT
HETATM    1  S1  UNK     1      20.624  -3.495  37.271  1.00  0.00    -0.041 SA
HETATM    2  C13 UNK     1      18.992  -3.558  36.857  1.00  0.00     0.176 C 
ENDROOT
BRANCH   2   3
HETATM    3  N1  UNK     1      18.485  -4.791  36.424  1.00  0.00    -0.333 N 
HETATM    4  H5  UNK     1      17.474  -4.787  36.302  1.00  0.00     0.168 HD
BRANCH   3   5
HETATM    5  C4  UNK     1      19.066  -6.056  36.330  1.00  0.00     0.036 A 
HETATM    6  C5  UNK     1      18.745  -7.043  37.255  1.00  0.00     0.067 A 
HETATM    7  C2  UNK     1      19.337  -8.302  37.141  1.00  0.00     0.092 A 
HETATM    8  C1  UNK     1      20.245  -8.610  36.128  1.00  0.00     0.004 A 
HETATM    9  O1  UNK     1      18.971  -9.260  38.109  1.00  0.00    -0.275 OA
HETATM   10  C3  UNK     1      20.820  -9.961  36.085  1.00  0.00    -0.043 A 
HETATM   11  C6  UNK     1      20.556  -7.601  35.205  1.00  0.00     0.017 A 
HETATM   12  C10 UNK     1      21.800 -10.323  35.007  1.00  0.00     0.049 C 
HETATM   13  C8  UNK     1      20.455 -10.852  37.017  1.00  0.00     0.090 A 
HETATM   14  C12 UNK     1      19.497 -10.542  38.092  1.00  0.00     0.288 A 
HETATM   15  O4  UNK     1      19.187 -11.383  38.929  1.00  0.00    -0.260 OA
HETATM   16  C7  UNK     1      19.970  -6.335  35.306  1.00  0.00     0.030 A 
ENDBRANCH   3   5
ENDBRANCH   2   3
BRANCH   2  17
HETATM   17  N2  UNK     1      18.117  -2.489  36.785  1.00  0.00    -0.331 N 
HETATM   18  H9  UNK     1      17.161  -2.724  37.031  1.00  0.00     0.168 HD
BRANCH  17  19
HETATM   19  C9  UNK     1      18.153  -1.307  36.004  1.00  0.00     0.070 A 
HETATM   20  C11 UNK     1      18.116  -0.068  36.623  1.00  0.00     0.096 A 
HETATM   21  C16 UNK     1      18.153   1.086  35.841  1.00  0.00     0.065 A 
HETATM   22  C17 UNK     1      18.226   0.985  34.452  1.00  0.00     0.070 A 
HETATM   23  C15 UNK     1      18.262  -0.270  33.844  1.00  0.00     0.092 A 
HETATM   24 Cl1  UNK     1      18.268   2.429  33.509  1.00  0.00    -0.081 Cl
HETATM   25  C14 UNK     1      18.226  -1.425  34.626  1.00  0.00     0.071 A 
BRANCH  20  26
HETATM   26  O2  UNK     1      18.044   0.052  37.978  1.00  0.00    -0.354 OA
HETATM   27  C18 UNK     1      17.629   1.314  38.496  1.00  0.00     0.210 C 
ENDBRANCH  20  26
BRANCH  23  28
HETATM   28  O3  UNK     1      18.333  -0.398  32.489  1.00  0.00    -0.354 OA
HETATM   29  C19 UNK     1      19.307  -1.304  31.974  1.00  0.00     0.210 C 
ENDBRANCH  23  28
ENDBRANCH  17  19
ENDBRANCH   2  17
TORSDOF 6
ENDMDL
MODEL 3
REMARK VINA RESULT:      -8.5      6.704     11.950
REMARK  6 active torsions:
REMARK  status: ('A' for Active; 'I' for Inactive)
REMARK    1  A    between atoms: C11_19  and  O2_4 
REMARK    2  A    between atoms: C15_23  and  O3_5 
REMARK    3  A    between atoms: C13_21  and  N1_7 
REMARK    4  A    between atoms: C4_12  and  N1_7 
REMARK    5  A    between atoms: C13_21  and  N2_8 
REMARK    6  A    between atoms: C9_17  and  N2_8 
ROOT
HETATM    1  S1  UNK     1      20.842  -3.210  37.380  1.00  0.00    -0.041 SA
HETATM    2  C13 UNK     1      19.421  -3.476  36.515  1.00  0.00     0.176 C 
ENDROOT
BRANCH   2   3
HETATM    3  N1  UNK     1      19.319  -4.677  35.800  1.00  0.00    -0.333 N 
HETATM    4  H5  UNK     1      18.895  -4.560  34.881  1.00  0.00     0.168 HD
BRANCH   3   5
HETATM    5  C4  UNK     1      19.493  -6.007  36.183  1.00  0.00     0.036 A 
HETATM    6  C5  UNK     1      20.341  -6.837  35.459  1.00  0.00     0.067 A 
HETATM    7  C2  UNK     1      20.501  -8.165  35.860  1.00  0.00     0.092 A 
HETATM    8  C1  UNK     1      19.838  -8.694  36.967  1.00  0.00     0.004 A 
HETATM    9  O1  UNK     1      21.374  -8.957  35.086  1.00  0.00    -0.275 OA
HETATM   10  C3  UNK     1      20.066 -10.102  37.317  1.00  0.00    -0.043 A 
HETATM   11  C6  UNK     1      18.987  -7.841  37.684  1.00  0.00     0.017 A 
HETATM   12  C10 UNK     1      19.367 -10.701  38.504  1.00  0.00     0.049 C 
HETATM   13  C8  UNK     1      20.901 -10.831  36.564  1.00  0.00     0.090 A 
HETATM   14  C12 UNK     1      21.608 -10.287  35.393  1.00  0.00     0.288 A 
HETATM   15  O4  UNK     1      22.365 -10.985  34.727  1.00  0.00    -0.260 OA
HETATM   16  C7  UNK     1      18.817  -6.508  37.294  1.00  0.00     0.030 A 
ENDBRANCH   3   5
ENDBRANCH   2   3
BRANCH   2  17
HETATM   17  N2  UNK     1      18.383  -2.579  36.336  1.00  0.00    -0.331 N 
HETATM   18  H9  UNK     1      17.464  -3.008  36.347  1.00  0.00     0.168 HD
BRANCH  17  19
HETATM   19  C9  UNK     1      18.339  -1.325  35.677  1.00  0.00     0.070 A 
HETATM   20  C11 UNK     1      18.020  -0.181  36.390  1.00  0.00     0.096 A 
HETATM   21  C16 UNK     1      17.980   1.046  35.728  1.00  0.00     0.065 A 
HETATM   22  C17 UNK     1      18.261   1.111  34.364  1.00  0.00     0.070 A 
HETATM   23  C15 UNK     1      18.581  -0.051  33.660  1.00  0.00     0.092 A 
HETATM   24 Cl1  UNK     1      18.204   2.642  33.569  1.00  0.00    -0.081 Cl
HETATM   25  C14 UNK     1      18.620  -1.278  34.322  1.00  0.00     0.071 A 
BRANCH  20  26
HETATM   26  O2  UNK     1      17.742  -0.223  37.723  1.00  0.00    -0.354 OA
HETATM   27  C18 UNK     1      17.600   1.026  38.396  1.00  0.00     0.210 C 
ENDBRANCH  20  26
BRANCH  23  28
HETATM   28  O3  UNK     1      18.859  -0.016  32.326  1.00  0.00    -0.354 OA
HETATM   29  C19 UNK     1      19.408  -1.199  31.748  1.00  0.00     0.210 C 
ENDBRANCH  23  28
ENDBRANCH  17  19
ENDBRANCH   2  17
TORSDOF 6
ENDMDL
MODEL 4
REMARK VINA RESULT:      -8.4      6.643     11.635
REMARK  6 active torsions:
REMARK  status: ('A' for Active; 'I' for Inactive)
REMARK    1  A    between atoms: C11_19  and  O2_4 
REMARK    2  A    between atoms: C15_23  and  O3_5 
REMARK    3  A    between atoms: C13_21  and  N1_7 
REMARK    4  A    between atoms: C4_12  and  N1_7 
REMARK    5  A    between atoms: C13_21  and  N2_8 
REMARK    6  A    between atoms: C9_17  and  N2_8 
ROOT
HETATM    1  S1  UNK     1      20.793  -3.319  37.427  1.00  0.00    -0.041 SA
HETATM    2  C13 UNK     1      19.594  -3.533  36.263  1.00  0.00     0.176 C 
ENDROOT
BRANCH   2   3
HETATM    3  N1  UNK     1      18.779  -4.667  36.381  1.00  0.00    -0.333 N 
HETATM    4  H5  UNK     1      17.789  -4.441  36.467  1.00  0.00     0.168 HD
BRANCH   3   5
HETATM    5  C4  UNK     1      19.078  -6.011  36.607  1.00  0.00     0.036 A 
HETATM    6  C5  UNK     1      19.899  -6.702  35.723  1.00  0.00     0.067 A 
HETATM    7  C2  UNK     1      20.186  -8.046  35.969  1.00  0.00     0.092 A 
HETATM    8  C1  UNK     1      19.678  -8.727  37.076  1.00  0.00     0.004 A 
HETATM    9  O1  UNK     1      21.024  -8.693  35.038  1.00  0.00    -0.275 OA
HETATM   10  C3  UNK     1      20.033 -10.140  37.257  1.00  0.00    -0.043 A 
HETATM   11  C6  UNK     1      18.852  -8.012  37.955  1.00  0.00     0.017 A 
HETATM   12  C10 UNK     1      19.501 -10.900  38.438  1.00  0.00     0.049 C 
HETATM   13  C8  UNK     1      20.830 -10.730  36.356  1.00  0.00     0.090 A 
HETATM   14  C12 UNK     1      21.375 -10.025  35.183  1.00  0.00     0.288 A 
HETATM   15  O4  UNK     1      22.103 -10.598  34.379  1.00  0.00    -0.260 OA
HETATM   16  C7  UNK     1      18.556  -6.665  37.722  1.00  0.00     0.030 A 
ENDBRANCH   3   5
ENDBRANCH   2   3
BRANCH   2  17
HETATM   17  N2  UNK     1      19.399  -2.768  35.127  1.00  0.00    -0.331 N 
HETATM   18  H9  UNK     1      19.908  -3.102  34.315  1.00  0.00     0.168 HD
BRANCH  17  19
HETATM   19  C9  UNK     1      19.059  -1.400  34.973  1.00  0.00     0.070 A 
HETATM   20  C11 UNK     1      18.844  -0.880  33.707  1.00  0.00     0.096 A 
HETATM   21  C16 UNK     1      18.511   0.467  33.571  1.00  0.00     0.065 A 
HETATM   22  C17 UNK     1      18.396   1.274  34.703  1.00  0.00     0.070 A 
HETATM   23  C15 UNK     1      18.616   0.734  35.971  1.00  0.00     0.092 A 
HETATM   24 Cl1  UNK     1      17.983   2.938  34.506  1.00  0.00    -0.081 Cl
HETATM   25  C14 UNK     1      18.950  -0.613  36.107  1.00  0.00     0.071 A 
BRANCH  20  26
HETATM   26  O2  UNK     1      18.952  -1.652  32.590  1.00  0.00    -0.354 OA
HETATM   27  C18 UNK     1      19.759  -1.147  31.528  1.00  0.00     0.210 C 
ENDBRANCH  20  26
BRANCH  23  28
HETATM   28  O3  UNK     1      18.511   1.501  37.093  1.00  0.00    -0.354 OA
HETATM   29  C19 UNK     1      17.590   1.066  38.091  1.00  0.00     0.210 C 
ENDBRANCH  23  28
ENDBRANCH  17  19
ENDBRANCH   2  17
TORSDOF 6
ENDMDL
MODEL 5
REMARK VINA RESULT:      -8.3      3.373      8.143
REMARK  6 active torsions:
REMARK  status: ('A' for Active; 'I' for Inactive)
REMARK    1  A    between atoms: C11_19  and  O2_4 
REMARK    2  A    between atoms: C15_23  and  O3_5 
REMARK    3  A    between atoms: C13_21  and  N1_7 
REMARK    4  A    between atoms: C4_12  and  N1_7 
REMARK    5  A    between atoms: C13_21  and  N2_8 
REMARK    6  A    between atoms: C9_17  and  N2_8 
ROOT
HETATM    1  S1  UNK     1      18.746   6.060  30.576  1.00  0.00    -0.041 SA
HETATM    2  C13 UNK     1      18.065   5.373  31.956  1.00  0.00     0.176 C 
ENDROOT
BRANCH   2   3
HETATM    3  N1  UNK     1      17.598   4.055  31.854  1.00  0.00    -0.333 N 
HETATM    4  H5  UNK     1      16.699   3.913  32.311  1.00  0.00     0.168 HD
BRANCH   3   5
HETATM    5  C4  UNK     1      18.215   2.878  31.433  1.00  0.00     0.036 A 
HETATM    6  C5  UNK     1      18.431   1.841  32.333  1.00  0.00     0.067 A 
HETATM    7  C2  UNK     1      19.050   0.671  31.890  1.00  0.00     0.092 A 
HETATM    8  C1  UNK     1      19.463   0.500  30.568  1.00  0.00     0.004 A 
HETATM    9  O1  UNK     1      19.241  -0.344  32.850  1.00  0.00    -0.275 OA
HETATM   10  C3  UNK     1      20.106  -0.765  30.190  1.00  0.00    -0.043 A 
HETATM   11  C6  UNK     1      19.237   1.557  29.676  1.00  0.00     0.017 A 
HETATM   12  C10 UNK     1      20.562  -0.978  28.775  1.00  0.00     0.049 C 
HETATM   13  C8  UNK     1      20.275  -1.712  31.122  1.00  0.00     0.090 A 
HETATM   14  C12 UNK     1      19.845  -1.547  32.521  1.00  0.00     0.288 A 
HETATM   15  O4  UNK     1      20.016  -2.437  33.348  1.00  0.00    -0.260 OA
HETATM   16  C7  UNK     1      18.617   2.736  30.105  1.00  0.00     0.030 A 
ENDBRANCH   3   5
ENDBRANCH   2   3
BRANCH   2  17
HETATM   17  N2  UNK     1      17.807   6.012  33.155  1.00  0.00    -0.331 N 
HETATM   18  H9  UNK     1      17.371   5.417  33.851  1.00  0.00     0.168 HD
BRANCH  17  19
HETATM   19  C9  UNK     1      17.573   7.378  33.450  1.00  0.00     0.070 A 
HETATM   20  C11 UNK     1      16.278   7.871  33.458  1.00  0.00     0.096 A 
HETATM   21  C16 UNK     1      16.062   9.217  33.750  1.00  0.00     0.065 A 
HETATM   22  C17 UNK     1      17.144  10.052  34.029  1.00  0.00     0.070 A 
HETATM   23  C15 UNK     1      18.442   9.540  34.017  1.00  0.00     0.092 A 
HETATM   24 Cl1  UNK     1      16.849  11.714  34.385  1.00  0.00    -0.081 Cl
HETATM   25  C14 UNK     1      18.658   8.193  33.725  1.00  0.00     0.071 A 
BRANCH  20  26
HETATM   26  O2  UNK     1      15.208   7.072  33.188  1.00  0.00    -0.354 OA
HETATM   27  C18 UNK     1      14.633   7.177  31.887  1.00  0.00     0.210 C 
ENDBRANCH  20  26
BRANCH  23  28
HETATM   28  O3  UNK     1      19.518  10.333  34.285  1.00  0.00    -0.354 OA
HETATM   29  C19 UNK     1      20.770   9.680  34.487  1.00  0.00     0.210 C 
ENDBRANCH  23  28
ENDBRANCH  17  19
ENDBRANCH   2  17
TORSDOF 6
ENDMDL
MODEL 6
REMARK VINA RESULT:      -8.2      1.157      2.788
REMARK  6 active torsions:
REMARK  status: ('A' for Active; 'I' for Inactive)
REMARK    1  A    between atoms: C11_19  and  O2_4 
REMARK    2  A    between atoms: C15_23  and  O3_5 
REMARK    3  A    between atoms: C13_21  and  N1_7 
REMARK    4  A    between atoms: C4_12  and  N1_7 
REMARK    5  A    between atoms: C13_21  and  N2_8 
REMARK    6  A    between atoms: C9_17  and  N2_8 
ROOT
HETATM    1  S1  UNK     1      18.115   1.815  28.791  1.00  0.00    -0.041 SA
HETATM    2  C13 UNK     1      18.396   2.527  30.292  1.00  0.00     0.176 C 
ENDROOT
BRANCH   2   3
HETATM    3  N1  UNK     1      19.030   3.777  30.303  1.00  0.00    -0.333 N 
HETATM    4  H5  UNK     1      19.773   3.854  29.610  1.00  0.00     0.168 HD
BRANCH   3   5
HETATM    5  C4  UNK     1      18.977   4.841  31.202  1.00  0.00     0.036 A 
HETATM    6  C5  UNK     1      17.753   5.281  31.694  1.00  0.00     0.067 A 
HETATM    7  C2  UNK     1      17.723   6.347  32.594  1.00  0.00     0.092 A 
HETATM    8  C1  UNK     1      18.883   6.994  33.022  1.00  0.00     0.004 A 
HETATM    9  O1  UNK     1      16.453   6.747  33.057  1.00  0.00    -0.275 OA
HETATM   10  C3  UNK     1      18.758   8.108  33.972  1.00  0.00    -0.043 A 
HETATM   11  C6  UNK     1      20.107   6.537  32.515  1.00  0.00     0.017 A 
HETATM   12  C10 UNK     1      19.988   8.824  34.451  1.00  0.00     0.049 C 
HETATM   13  C8  UNK     1      17.538   8.466  34.395  1.00  0.00     0.090 A 
HETATM   14  C12 UNK     1      16.305   7.794  33.952  1.00  0.00     0.288 A 
HETATM   15  O4  UNK     1      15.205   8.149  34.361  1.00  0.00    -0.260 OA
HETATM   16  C7  UNK     1      20.153   5.468  31.613  1.00  0.00     0.030 A 
ENDBRANCH   3   5
ENDBRANCH   2   3
BRANCH   2  17
HETATM   17  N2  UNK     1      18.173   1.955  31.532  1.00  0.00    -0.331 N 
HETATM   18  H9  UNK     1      17.937   2.624  32.256  1.00  0.00     0.168 HD
BRANCH  17  19
HETATM   19  C9  UNK     1      18.664   0.755  32.105  1.00  0.00     0.070 A 
HETATM   20  C11 UNK     1      18.291   0.401  33.391  1.00  0.00     0.096 A 
HETATM   21  C16 UNK     1      18.782  -0.783  33.942  1.00  0.00     0.065 A 
HETATM   22  C17 UNK     1      19.637  -1.595  33.199  1.00  0.00     0.070 A 
HETATM   23  C15 UNK     1      20.002  -1.225  31.904  1.00  0.00     0.092 A 
HETATM   24 Cl1  UNK     1      20.230  -3.054  33.905  1.00  0.00    -0.081 Cl
HETATM   25  C14 UNK     1      19.512  -0.041  31.353  1.00  0.00     0.071 A 
BRANCH  20  26
HETATM   26  O2  UNK     1      17.457   1.182  34.134  1.00  0.00    -0.354 OA
HETATM   27  C18 UNK     1      16.466   0.514  34.912  1.00  0.00     0.210 C 
ENDBRANCH  20  26
BRANCH  23  28
HETATM   28  O3  UNK     1      20.837  -2.000  31.155  1.00  0.00    -0.354 OA
HETATM   29  C19 UNK     1      20.477  -2.209  29.792  1.00  0.00     0.210 C 
ENDBRANCH  23  28
ENDBRANCH  17  19
ENDBRANCH   2  17
TORSDOF 6
ENDMDL
MODEL 7
REMARK VINA RESULT:      -8.2      6.780     11.551
REMARK  6 active torsions:
REMARK  status: ('A' for Active; 'I' for Inactive)
REMARK    1  A    between atoms: C11_19  and  O2_4 
REMARK    2  A    between atoms: C15_23  and  O3_5 
REMARK    3  A    between atoms: C13_21  and  N1_7 
REMARK    4  A    between atoms: C4_12  and  N1_7 
REMARK    5  A    between atoms: C13_21  and  N2_8 
REMARK    6  A    between atoms: C9_17  and  N2_8 
ROOT
HETATM    1  S1  UNK     1      20.588  -3.068  36.854  1.00  0.00    -0.041 SA
HETATM    2  C13 UNK     1      18.980  -3.361  36.443  1.00  0.00     0.176 C 
ENDROOT
BRANCH   2   3
HETATM    3  N1  UNK     1      18.481  -4.650  36.677  1.00  0.00    -0.333 N 
HETATM    4  H5  UNK     1      17.603  -4.651  37.192  1.00  0.00     0.168 HD
BRANCH   3   5
HETATM    5  C4  UNK     1      19.054  -5.913  36.523  1.00  0.00     0.036 A 
HETATM    6  C5  UNK     1      18.742  -6.934  37.413  1.00  0.00     0.067 A 
HETATM    7  C2  UNK     1      19.325  -8.191  37.239  1.00  0.00     0.092 A 
HETATM    8  C1  UNK     1      20.215  -8.462  36.200  1.00  0.00     0.004 A 
HETATM    9  O1  UNK     1      18.969  -9.186  38.173  1.00  0.00    -0.275 OA
HETATM   10  C3  UNK     1      20.782  -9.813  36.094  1.00  0.00    -0.043 A 
HETATM   11  C6  UNK     1      20.518  -7.419  35.314  1.00  0.00     0.017 A 
HETATM   12  C10 UNK     1      21.743 -10.136  34.986  1.00  0.00     0.049 C 
HETATM   13  C8  UNK     1      20.427 -10.739  36.995  1.00  0.00     0.090 A 
HETATM   14  C12 UNK     1      19.488 -10.468  38.097  1.00  0.00     0.288 A 
HETATM   15  O4  UNK     1      19.186 -11.341  38.903  1.00  0.00    -0.260 OA
HETATM   16  C7  UNK     1      19.940  -6.154  35.475  1.00  0.00     0.030 A 
ENDBRANCH   3   5
ENDBRANCH   2   3
BRANCH   2  17
HETATM   17  N2  UNK     1      18.124  -2.495  35.786  1.00  0.00    -0.331 N 
HETATM   18  H9  UNK     1      17.541  -2.944  35.089  1.00  0.00     0.168 HD
BRANCH  17  19
HETATM   19  C9  UNK     1      18.224  -1.104  35.530  1.00  0.00     0.070 A 
HETATM   20  C11 UNK     1      18.334  -0.648  34.226  1.00  0.00     0.096 A 
HETATM   21  C16 UNK     1      18.432   0.723  33.989  1.00  0.00     0.065 A 
HETATM   22  C17 UNK     1      18.419   1.617  35.059  1.00  0.00     0.070 A 
HETATM   23  C15 UNK     1      18.308   1.141  36.366  1.00  0.00     0.092 A 
HETATM   24 Cl1  UNK     1      18.543   3.308  34.738  1.00  0.00    -0.081 Cl
HETATM   25  C14 UNK     1      18.210  -0.230  36.603  1.00  0.00     0.071 A 
BRANCH  20  26
HETATM   26  O2  UNK     1      18.349  -1.506  33.168  1.00  0.00    -0.354 OA
HETATM   27  C18 UNK     1      19.278  -1.230  32.123  1.00  0.00     0.210 C 
ENDBRANCH  20  26
BRANCH  23  28
HETATM   28  O3  UNK     1      18.294   1.993  37.430  1.00  0.00    -0.354 OA
HETATM   29  C19 UNK     1      17.700   1.515  38.635  1.00  0.00     0.210 C 
ENDBRANCH  23  28
ENDBRANCH  17  19
ENDBRANCH   2  17
TORSDOF 6
ENDMDL
MODEL 8
REMARK VINA RESULT:      -8.2      2.832      3.924
REMARK  6 active torsions:
REMARK  status: ('A' for Active; 'I' for Inactive)
REMARK    1  A    between atoms: C11_19  and  O2_4 
REMARK    2  A    between atoms: C15_23  and  O3_5 
REMARK    3  A    between atoms: C13_21  and  N1_7 
REMARK    4  A    between atoms: C4_12  and  N1_7 
REMARK    5  A    between atoms: C13_21  and  N2_8 
REMARK    6  A    between atoms: C9_17  and  N2_8 
ROOT
HETATM    1  S1  UNK     1      19.701   5.805  30.690  1.00  0.00    -0.041 SA
HETATM    2  C13 UNK     1      18.658   5.200  31.867  1.00  0.00     0.176 C 
ENDROOT
BRANCH   2   3
HETATM    3  N1  UNK     1      18.614   5.874  33.095  1.00  0.00    -0.333 N 
HETATM    4  H5  UNK     1      19.047   5.350  33.854  1.00  0.00     0.168 HD
BRANCH   3   5
HETATM    5  C4  UNK     1      17.921   7.011  33.510  1.00  0.00     0.036 A 
HETATM    6  C5  UNK     1      18.508   8.266  33.402  1.00  0.00     0.067 A 
HETATM    7  C2  UNK     1      17.796   9.391  33.823  1.00  0.00     0.092 A 
HETATM    8  C1  UNK     1      16.508   9.302  34.352  1.00  0.00     0.004 A 
HETATM    9  O1  UNK     1      18.444  10.635  33.687  1.00  0.00    -0.275 OA
HETATM   10  C3  UNK     1      15.832  10.538  34.769  1.00  0.00    -0.043 A 
HETATM   11  C6  UNK     1      15.933   8.028  34.453  1.00  0.00     0.017 A 
HETATM   12  C10 UNK     1      14.446  10.476  35.342  1.00  0.00     0.049 C 
HETATM   13  C8  UNK     1      16.472  11.707  34.629  1.00  0.00     0.090 A 
HETATM   14  C12 UNK     1      17.831  11.817  34.073  1.00  0.00     0.288 A 
HETATM   15  O4  UNK     1      18.386  12.904  33.960  1.00  0.00    -0.260 OA
HETATM   16  C7  UNK     1      16.635   6.892  34.035  1.00  0.00     0.030 A 
ENDBRANCH   3   5
ENDBRANCH   2   3
BRANCH   2  17
HETATM   17  N2  UNK     1      17.920   4.032  31.794  1.00  0.00    -0.331 N 
HETATM   18  H9  UNK     1      16.941   4.150  32.031  1.00  0.00     0.168 HD
BRANCH  17  19
HETATM   19  C9  UNK     1      18.307   2.676  31.939  1.00  0.00     0.070 A 
HETATM   20  C11 UNK     1      18.719   1.954  30.831  1.00  0.00     0.096 A 
HETATM   21  C16 UNK     1      19.097   0.621  30.988  1.00  0.00     0.065 A 
HETATM   22  C17 UNK     1      19.057   0.030  32.250  1.00  0.00     0.070 A 
HETATM   23  C15 UNK     1      18.640   0.771  33.356  1.00  0.00     0.092 A 
HETATM   24 Cl1  UNK     1      19.529  -1.622  32.416  1.00  0.00    -0.081 Cl
HETATM   25  C14 UNK     1      18.262   2.105  33.199  1.00  0.00     0.071 A 
BRANCH  20  26
HETATM   26  O2  UNK     1      18.765   2.514  29.589  1.00  0.00    -0.354 OA
HETATM   27  C18 UNK     1      17.906   1.958  28.596  1.00  0.00     0.210 C 
ENDBRANCH  20  26
BRANCH  23  28
HETATM   28  O3  UNK     1      18.591   0.218  34.601  1.00  0.00    -0.354 OA
HETATM   29  C19 UNK     1      18.761   1.100  35.708  1.00  0.00     0.210 C 
ENDBRANCH  23  28
ENDBRANCH  17  19
ENDBRANCH   2  17
TORSDOF 6
ENDMDL
MODEL 9
REMARK VINA RESULT:      -8.1      2.726      4.417
REMARK  6 active torsions:
REMARK  status: ('A' for Active; 'I' for Inactive)
REMARK    1  A    between atoms: C11_19  and  O2_4 
REMARK    2  A    between atoms: C15_23  and  O3_5 
REMARK    3  A    between atoms: C13_21  and  N1_7 
REMARK    4  A    between atoms: C4_12  and  N1_7 
REMARK    5  A    between atoms: C13_21  and  N2_8 
REMARK    6  A    between atoms: C9_17  and  N2_8 
ROOT
HETATM    1  S1  UNK     1      19.374   5.586  30.104  1.00  0.00    -0.041 SA
HETATM    2  C13 UNK     1      18.528   4.929  31.405  1.00  0.00     0.176 C 
ENDROOT
BRANCH   2   3
HETATM    3  N1  UNK     1      18.568   5.630  32.617  1.00  0.00    -0.333 N 
HETATM    4  H5  UNK     1      19.088   5.142  33.345  1.00  0.00     0.168 HD
BRANCH   3   5
HETATM    5  C4  UNK     1      17.870   6.750  33.070  1.00  0.00     0.036 A 
HETATM    6  C5  UNK     1      18.498   7.989  33.129  1.00  0.00     0.067 A 
HETATM    7  C2  UNK     1      17.781   9.096  33.585  1.00  0.00     0.092 A 
HETATM    8  C1  UNK     1      16.447   9.006  33.986  1.00  0.00     0.004 A 
HETATM    9  O1  UNK     1      18.472  10.324  33.621  1.00  0.00    -0.275 OA
HETATM   10  C3  UNK     1      15.770  10.223  34.452  1.00  0.00    -0.043 A 
HETATM   11  C6  UNK     1      15.832   7.749  33.920  1.00  0.00     0.017 A 
HETATM   12  C10 UNK     1      14.335  10.159  34.891  1.00  0.00     0.049 C 
HETATM   13  C8  UNK     1      16.451  11.377  34.477  1.00  0.00     0.090 A 
HETATM   14  C12 UNK     1      17.858  11.488  34.056  1.00  0.00     0.288 A 
HETATM   15  O4  UNK     1      18.449  12.561  34.092  1.00  0.00    -0.260 OA
HETATM   16  C7  UNK     1      16.539   6.630  33.465  1.00  0.00     0.030 A 
ENDBRANCH   3   5
ENDBRANCH   2   3
BRANCH   2  17
HETATM   17  N2  UNK     1      17.889   3.703  31.439  1.00  0.00    -0.331 N 
HETATM   18  H9  UNK     1      16.981   3.726  31.891  1.00  0.00     0.168 HD
BRANCH  17  19
HETATM   19  C9  UNK     1      18.406   2.383  31.427  1.00  0.00     0.070 A 
HETATM   20  C11 UNK     1      18.284   1.583  32.551  1.00  0.00     0.096 A 
HETATM   21  C16 UNK     1      18.798   0.287  32.525  1.00  0.00     0.065 A 
HETATM   22  C17 UNK     1      19.426  -0.190  31.375  1.00  0.00     0.070 A 
HETATM   23  C15 UNK     1      19.540   0.628  30.251  1.00  0.00     0.092 A 
HETATM   24 Cl1  UNK     1      20.054  -1.798  31.371  1.00  0.00    -0.081 Cl
HETATM   25  C14 UNK     1      19.027   1.925  30.277  1.00  0.00     0.071 A 
BRANCH  20  26
HETATM   26  O2  UNK     1      17.674   2.032  33.685  1.00  0.00    -0.354 OA
HETATM   27  C18 UNK     1      18.484   2.155  34.851  1.00  0.00     0.210 C 
ENDBRANCH  20  26
BRANCH  23  28
HETATM   28  O3  UNK     1      20.150   0.187  29.115  1.00  0.00    -0.354 OA
HETATM   29  C19 UNK     1      19.331  -0.480  28.157  1.00  0.00     0.210 C 
ENDBRANCH  23  28
ENDBRANCH  17  19
ENDBRANCH   2  17
TORSDOF 6
ENDMDL
MODEL 10
REMARK VINA RESULT:      -8.1      6.280     11.258
REMARK  6 active torsions:
REMARK  status: ('A' for Active; 'I' for Inactive)
REMARK    1  A    between atoms: C11_19  and  O2_4 
REMARK    2  A    between atoms: C15_23  and  O3_5 
REMARK    3  A    between atoms: C13_21  and  N1_7 
REMARK    4  A    between atoms: C4_12  and  N1_7 
REMARK    5  A    between atoms: C13_21  and  N2_8 
REMARK    6  A    between atoms: C9_17  and  N2_8 
ROOT
HETATM    1  S1  UNK     1      20.983  -2.369  36.032  1.00  0.00    -0.041 SA
HETATM    2  C13 UNK     1      19.340  -2.725  36.152  1.00  0.00     0.176 C 
ENDROOT
BRANCH   2   3
HETATM    3  N1  UNK     1      18.990  -4.045  36.465  1.00  0.00    -0.333 N 
HETATM    4  H5  UNK     1      18.102  -4.117  36.960  1.00  0.00     0.168 HD
BRANCH   3   5
HETATM    5  C4  UNK     1      19.711  -5.239  36.412  1.00  0.00     0.036 A 
HETATM    6  C5  UNK     1      20.737  -5.476  37.320  1.00  0.00     0.067 A 
HETATM    7  C2  UNK     1      21.444  -6.677  37.249  1.00  0.00     0.092 A 
HETATM    8  C1  UNK     1      21.159  -7.656  36.297  1.00  0.00     0.004 A 
HETATM    9  O1  UNK     1      22.473  -6.860  38.196  1.00  0.00    -0.275 OA
HETATM   10  C3  UNK     1      21.955  -8.890  36.296  1.00  0.00    -0.043 A 
HETATM   11  C6  UNK     1      20.121  -7.398  35.390  1.00  0.00     0.017 A 
HETATM   12  C10 UNK     1      21.673  -9.962  35.283  1.00  0.00     0.049 C 
HETATM   13  C8  UNK     1      22.927  -9.037  37.207  1.00  0.00     0.090 A 
HETATM   14  C12 UNK     1      23.239  -8.014  38.219  1.00  0.00     0.288 A 
HETATM   15  O4  UNK     1      24.136  -8.183  39.038  1.00  0.00    -0.260 OA
HETATM   16  C7  UNK     1      19.403  -6.198  35.449  1.00  0.00     0.030 A 
ENDBRANCH   3   5
ENDBRANCH   2   3
BRANCH   2  17
HETATM   17  N2  UNK     1      18.288  -1.876  35.857  1.00  0.00    -0.331 N 
HETATM   18  H9  UNK     1      17.431  -2.357  35.609  1.00  0.00     0.168 HD
BRANCH  17  19
HETATM   19  C9  UNK     1      18.275  -0.547  35.365  1.00  0.00     0.070 A 
HETATM   20  C11 UNK     1      18.219   0.516  36.251  1.00  0.00     0.096 A 
HETATM   21  C16 UNK     1      18.206   1.819  35.752  1.00  0.00     0.065 A 
HETATM   22  C17 UNK     1      18.248   2.038  34.375  1.00  0.00     0.070 A 
HETATM   23  C15 UNK     1      18.304   0.955  33.497  1.00  0.00     0.092 A 
HETATM   24 Cl1  UNK     1      18.229   3.660  33.785  1.00  0.00    -0.081 Cl
HETATM   25  C14 UNK     1      18.317  -0.347  33.996  1.00  0.00     0.071 A 
BRANCH  20  26
HETATM   26  O2  UNK     1      18.177   0.323  37.599  1.00  0.00    -0.354 OA
HETATM   27  C18 UNK     1      17.575   1.351  38.382  1.00  0.00     0.210 C 
ENDBRANCH  20  26
BRANCH  23  28
HETATM   28  O3  UNK     1      18.345   1.141  32.147  1.00  0.00    -0.354 OA
HETATM   29  C19 UNK     1      19.318   0.394  31.420  1.00  0.00     0.210 C 
ENDBRANCH  23  28
ENDBRANCH  17  19
ENDBRANCH   2  17
TORSDOF 6
ENDMDL
