MODEL 1
REMARK VINA RESULT:      -6.6      0.000      0.000
REMARK  0 active torsions:
REMARK  status: ('A' for Active; 'I' for Inactive)
ROOT
HETATM    1  O1  UNK     1      18.915   1.327  28.397  1.00  0.00    -0.322 OA
HETATM    2  O2  UNK     1      18.322   1.936  32.389  1.00  0.00    -0.287 OA
HETATM    3  C1  UNK     1      19.213   0.555  30.684  1.00  0.00     0.048 A 
HETATM    4  C2  UNK     1      19.382   0.407  29.307  1.00  0.00     0.089 A 
HETATM    5  C3  UNK     1      20.374  -1.526  31.053  1.00  0.00    -0.061 A 
HETATM    6  C4  UNK     1      19.708  -0.411  31.563  1.00  0.00     0.025 A 
HETATM    7  C5  UNK     1      20.047  -0.709  28.800  1.00  0.00     0.039 A 
HETATM    8  C6  UNK     1      20.542  -1.675  29.676  1.00  0.00     0.009 A 
HETATM    9  C7  UNK     1      18.506   1.744  31.194  1.00  0.00     0.186 A 
HETATM   10  C8  UNK     1      20.907  -2.564  31.984  1.00  0.00     0.048 C 
HETATM   11  C9  UNK     1      18.026   2.700  30.177  1.00  0.00     0.080 A 
HETATM   12  C10 UNK     1      18.259   2.429  28.891  1.00  0.00     0.146 A 
ENDROOT
TORSDOF 0
ENDMDL
MODEL 2
REMARK VINA RESULT:      -6.5      1.550      3.881
REMARK  0 active torsions:
REMARK  status: ('A' for Active; 'I' for Inactive)
ROOT
HETATM    1  O1  UNK     1      19.042   0.121  27.978  1.00  0.00    -0.322 OA
HETATM    2  O2  UNK     1      20.898  -0.473  31.563  1.00  0.00    -0.287 OA
HETATM    3  C1  UNK     1      19.455   0.872  30.254  1.00  0.00     0.048 A 
HETATM    4  C2  UNK     1      18.851   1.016  29.004  1.00  0.00     0.089 A 
HETATM    5  C3  UNK     1      18.386   2.898  31.007  1.00  0.00    -0.061 A 
HETATM    6  C4  UNK     1      19.225   1.812  31.261  1.00  0.00     0.025 A 
HETATM    7  C5  UNK     1      18.014   2.103  28.754  1.00  0.00     0.039 A 
HETATM    8  C6  UNK     1      17.783   3.044  29.758  1.00  0.00     0.009 A 
HETATM    9  C7  UNK     1      20.336  -0.286  30.492  1.00  0.00     0.186 A 
HETATM   10  C8  UNK     1      18.134   3.908  32.077  1.00  0.00     0.048 C 
HETATM   11  C9  UNK     1      20.507  -1.216  29.360  1.00  0.00     0.080 A 
HETATM   12  C10 UNK     1      19.865  -0.952  28.218  1.00  0.00     0.146 A 
ENDROOT
TORSDOF 0
ENDMDL
MODEL 3
REMARK VINA RESULT:      -6.2      6.257      7.699
REMARK  0 active torsions:
REMARK  status: ('A' for Active; 'I' for Inactive)
ROOT
HETATM    1  O1  UNK     1      16.719   6.904  34.531  1.00  0.00    -0.322 OA
HETATM    2  O2  UNK     1      15.872   8.492  30.868  1.00  0.00    -0.287 OA
HETATM    3  C1  UNK     1      17.328   7.175  32.192  1.00  0.00     0.048 A 
HETATM    4  C2  UNK     1      17.560   6.664  33.470  1.00  0.00     0.089 A 
HETATM    5  C3  UNK     1      19.337   6.105  31.396  1.00  0.00    -0.061 A 
HETATM    6  C4  UNK     1      18.215   6.899  31.150  1.00  0.00     0.025 A 
HETATM    7  C5  UNK     1      18.681   5.872  33.713  1.00  0.00     0.039 A 
HETATM    8  C6  UNK     1      19.570   5.594  32.673  1.00  0.00     0.009 A 
HETATM    9  C7  UNK     1      16.135   8.010  31.962  1.00  0.00     0.186 A 
HETATM   10  C8  UNK     1      20.291   5.803  30.289  1.00  0.00     0.048 C 
HETATM   11  C9  UNK     1      15.266   8.238  33.133  1.00  0.00     0.080 A 
HETATM   12  C10 UNK     1      15.612   7.684  34.298  1.00  0.00     0.146 A 
ENDROOT
TORSDOF 0
ENDMDL
MODEL 4
REMARK VINA RESULT:      -6.1      8.883     11.113
REMARK  0 active torsions:
REMARK  status: ('A' for Active; 'I' for Inactive)
ROOT
HETATM    1  O1  UNK     1      18.690  -8.225  37.089  1.00  0.00    -0.322 OA
HETATM    2  O2  UNK     1      20.954  -7.045  33.905  1.00  0.00    -0.287 OA
HETATM    3  C1  UNK     1      20.591  -8.630  35.627  1.00  0.00     0.048 A 
HETATM    4  C2  UNK     1      19.776  -8.976  36.706  1.00  0.00     0.089 A 
HETATM    5  C3  UNK     1      21.950 -10.582  36.024  1.00  0.00    -0.061 A 
HETATM    6  C4  UNK     1      21.681  -9.431  35.281  1.00  0.00     0.025 A 
HETATM    7  C5  UNK     1      20.048 -10.126  37.446  1.00  0.00     0.039 A 
HETATM    8  C6  UNK     1      21.137 -10.928  37.103  1.00  0.00     0.009 A 
HETATM    9  C7  UNK     1      20.281  -7.409  34.861  1.00  0.00     0.186 A 
HETATM   10  C8  UNK     1      23.113 -11.444  35.662  1.00  0.00     0.048 C 
HETATM   11  C9  UNK     1      19.107  -6.638  35.313  1.00  0.00     0.080 A 
HETATM   12  C10 UNK     1      18.417  -7.090  36.364  1.00  0.00     0.146 A 
ENDROOT
TORSDOF 0
ENDMDL
MODEL 5
REMARK VINA RESULT:      -6.0      4.313      6.734
REMARK  0 active torsions:
REMARK  status: ('A' for Active; 'I' for Inactive)
ROOT
HETATM    1  O1  UNK     1      17.916   3.574  32.013  1.00  0.00    -0.322 OA
HETATM    2  O2  UNK     1      20.131   6.077  29.671  1.00  0.00    -0.287 OA
HETATM    3  C1  UNK     1      19.124   5.671  31.776  1.00  0.00     0.048 A 
HETATM    4  C2  UNK     1      18.362   4.770  32.522  1.00  0.00     0.089 A 
HETATM    5  C3  UNK     1      19.212   7.167  33.666  1.00  0.00    -0.061 A 
HETATM    6  C4  UNK     1      19.552   6.872  32.344  1.00  0.00     0.025 A 
HETATM    7  C5  UNK     1      18.024   5.067  33.842  1.00  0.00     0.039 A 
HETATM    8  C6  UNK     1      18.450   6.267  34.412  1.00  0.00     0.009 A 
HETATM    9  C7  UNK     1      19.468   5.333  30.382  1.00  0.00     0.186 A 
HETATM   10  C8  UNK     1      19.665   8.448  34.282  1.00  0.00     0.048 C 
HETATM   11  C9  UNK     1      18.964   4.039  29.884  1.00  0.00     0.080 A 
HETATM   12  C10 UNK     1      18.246   3.276  30.713  1.00  0.00     0.146 A 
ENDROOT
TORSDOF 0
ENDMDL
MODEL 6
REMARK VINA RESULT:      -5.9     22.268     24.515
REMARK  0 active torsions:
REMARK  status: ('A' for Active; 'I' for Inactive)
ROOT
HETATM    1  O1  UNK     1      13.778   6.118   7.190  1.00  0.00    -0.322 OA
HETATM    2  O2  UNK     1      11.881   5.140  10.669  1.00  0.00    -0.287 OA
HETATM    3  C1  UNK     1      11.694   5.827   8.410  1.00  0.00     0.048 A 
HETATM    4  C2  UNK     1      12.405   6.150   7.253  1.00  0.00     0.089 A 
HETATM    5  C3  UNK     1       9.618   6.250   7.258  1.00  0.00    -0.061 A 
HETATM    6  C4  UNK     1      10.299   5.875   8.418  1.00  0.00     0.025 A 
HETATM    7  C5  UNK     1      11.722   6.524   6.096  1.00  0.00     0.039 A 
HETATM    8  C6  UNK     1      10.328   6.573   6.100  1.00  0.00     0.009 A 
HETATM    9  C7  UNK     1      12.440   5.435   9.620  1.00  0.00     0.186 A 
HETATM   10  C8  UNK     1       8.127   6.304   7.255  1.00  0.00     0.048 C 
HETATM   11  C9  UNK     1      13.911   5.417   9.500  1.00  0.00     0.080 A 
HETATM   12  C10 UNK     1      14.456   5.750   8.327  1.00  0.00     0.146 A 
ENDROOT
TORSDOF 0
ENDMDL
MODEL 7
REMARK VINA RESULT:      -5.8      3.216      5.596
REMARK  0 active torsions:
REMARK  status: ('A' for Active; 'I' for Inactive)
ROOT
HETATM    1  O1  UNK     1      18.900   4.105  29.422  1.00  0.00    -0.322 OA
HETATM    2  O2  UNK     1      17.809   2.040  32.769  1.00  0.00    -0.287 OA
HETATM    3  C1  UNK     1      18.449   4.109  31.812  1.00  0.00     0.048 A 
HETATM    4  C2  UNK     1      18.816   4.755  30.630  1.00  0.00     0.089 A 
HETATM    5  C3  UNK     1      18.680   6.183  33.021  1.00  0.00    -0.061 A 
HETATM    6  C4  UNK     1      18.379   4.820  33.012  1.00  0.00     0.025 A 
HETATM    7  C5  UNK     1      19.117   6.117  30.643  1.00  0.00     0.039 A 
HETATM    8  C6  UNK     1      19.048   6.829  31.841  1.00  0.00     0.009 A 
HETATM    9  C7  UNK     1      18.136   2.669  31.771  1.00  0.00     0.186 A 
HETATM   10  C8  UNK     1      18.609   6.951  34.298  1.00  0.00     0.048 C 
HETATM   11  C9  UNK     1      18.241   2.018  30.451  1.00  0.00     0.080 A 
HETATM   12  C10 UNK     1      18.605   2.763  29.403  1.00  0.00     0.146 A 
ENDROOT
TORSDOF 0
ENDMDL
MODEL 8
REMARK VINA RESULT:      -5.8      6.282      7.319
REMARK  0 active torsions:
REMARK  status: ('A' for Active; 'I' for Inactive)
ROOT
HETATM    1  O1  UNK     1      16.622   7.375  30.876  1.00  0.00    -0.322 OA
HETATM    2  O2  UNK     1      17.853   8.538  34.590  1.00  0.00    -0.287 OA
HETATM    3  C1  UNK     1      18.363   7.405  32.574  1.00  0.00     0.048 A 
HETATM    4  C2  UNK     1      17.880   7.039  31.316  1.00  0.00     0.089 A 
HETATM    5  C3  UNK     1      20.452   6.298  32.097  1.00  0.00    -0.061 A 
HETATM    6  C4  UNK     1      19.650   7.037  32.969  1.00  0.00     0.025 A 
HETATM    7  C5  UNK     1      18.683   6.301  30.447  1.00  0.00     0.039 A 
HETATM    8  C6  UNK     1      19.970   5.931  30.840  1.00  0.00     0.009 A 
HETATM    9  C7  UNK     1      17.494   8.185  33.474  1.00  0.00     0.186 A 
HETATM   10  C8  UNK     1      21.829   5.900  32.510  1.00  0.00     0.048 C 
HETATM   11  C9  UNK     1      16.154   8.520  32.954  1.00  0.00     0.080 A 
HETATM   12  C10 UNK     1      15.826   8.102  31.728  1.00  0.00     0.146 A 
ENDROOT
TORSDOF 0
ENDMDL
MODEL 9
REMARK VINA RESULT:      -5.7      3.626      5.299
REMARK  0 active torsions:
REMARK  status: ('A' for Active; 'I' for Inactive)
ROOT
HETATM    1  O1  UNK     1      18.840  -1.485  36.602  1.00  0.00    -0.322 OA
HETATM    2  O2  UNK     1      16.614   0.778  34.038  1.00  0.00    -0.287 OA
HETATM    3  C1  UNK     1      18.370  -0.785  34.321  1.00  0.00     0.048 A 
HETATM    4  C2  UNK     1      19.093  -1.532  35.252  1.00  0.00     0.089 A 
HETATM    5  C3  UNK     1      19.700  -1.714  32.537  1.00  0.00    -0.061 A 
HETATM    6  C4  UNK     1      18.670  -0.872  32.960  1.00  0.00     0.025 A 
HETATM    7  C5  UNK     1      20.122  -2.372  34.825  1.00  0.00     0.039 A 
HETATM    8  C6  UNK     1      20.424  -2.461  33.466  1.00  0.00     0.009 A 
HETATM    9  C7  UNK     1      17.287   0.095  34.798  1.00  0.00     0.186 A 
HETATM   10  C8  UNK     1      20.028  -1.815  31.084  1.00  0.00     0.048 C 
HETATM   11  C9  UNK     1      17.056   0.110  36.255  1.00  0.00     0.080 A 
HETATM   12  C10 UNK     1      17.827  -0.660  37.028  1.00  0.00     0.146 A 
ENDROOT
TORSDOF 0
ENDMDL
MODEL 10
REMARK VINA RESULT:      -5.7      2.018      3.649
REMARK  0 active torsions:
REMARK  status: ('A' for Active; 'I' for Inactive)
ROOT
HETATM    1  O1  UNK     1      19.060  -1.259  34.280  1.00  0.00    -0.322 OA
HETATM    2  O2  UNK     1      17.984   2.215  32.428  1.00  0.00    -0.287 OA
HETATM    3  C1  UNK     1      19.059   0.111  32.271  1.00  0.00     0.048 A 
HETATM    4  C2  UNK     1      19.396  -1.053  32.963  1.00  0.00     0.089 A 
HETATM    5  C3  UNK     1      20.134  -0.751  30.292  1.00  0.00    -0.061 A 
HETATM    6  C4  UNK     1      19.426   0.267  30.933  1.00  0.00     0.025 A 
HETATM    7  C5  UNK     1      20.104  -2.068  32.320  1.00  0.00     0.039 A 
HETATM    8  C6  UNK     1      20.473  -1.915  30.983  1.00  0.00     0.009 A 
HETATM    9  C7  UNK     1      18.311   1.169  32.974  1.00  0.00     0.186 A 
HETATM   10  C8  UNK     1      20.531  -0.594  28.862  1.00  0.00     0.048 C 
HETATM   11  C9  UNK     1      17.974   0.898  34.385  1.00  0.00     0.080 A 
HETATM   12  C10 UNK     1      18.362  -0.263  34.919  1.00  0.00     0.146 A 
ENDROOT
TORSDOF 0
ENDMDL
