MODEL 1
REMARK VINA RESULT:      -6.9      0.000      0.000
REMARK  7 active torsions:
REMARK  status: ('A' for Active; 'I' for Inactive)
REMARK    1  A    between atoms: C1_6  and  N1_3 
REMARK    2  A    between atoms: C3_8  and  N1_3 
REMARK    3  A    between atoms: C4_9  and  N1_3 
REMARK    4  A    between atoms: C2_7  and  N2_4 
REMARK    5  A    between atoms: C5_10  and  N2_4 
REMARK    6  A    between atoms: C9_14  and  N3_5 
REMARK    7  A    between atoms: C1_6  and  C2_7 
ROOT
HETATM    1  O1  UNK     1      19.422   1.918  29.583  1.00  0.00    -0.273 OA
HETATM    2  O2  UNK     1      18.730   4.078  29.478  1.00  0.00    -0.257 OA
HETATM    3  C5  UNK     1      18.319   1.757  32.187  1.00  0.00     0.074 A 
HETATM    4  C6  UNK     1      18.995   0.590  31.580  1.00  0.00     0.027 A 
HETATM    5  C9  UNK     1      18.234   2.910  31.487  1.00  0.00     0.130 A 
HETATM    6  C10 UNK     1      19.523   0.713  30.297  1.00  0.00     0.092 A 
HETATM    7  C11 UNK     1      19.149  -0.655  32.212  1.00  0.00     0.017 A 
HETATM    8  C12 UNK     1      18.803   3.033  30.117  1.00  0.00     0.317 A 
HETATM    9  C13 UNK     1      20.177  -0.336  29.645  1.00  0.00     0.038 A 
HETATM   10  C14 UNK     1      19.801  -1.717  31.574  1.00  0.00     0.001 A 
HETATM   11  C15 UNK     1      20.315  -1.557  30.290  1.00  0.00     0.003 A 
ENDROOT
BRANCH   3  12
HETATM   12  N2  UNK     1      17.799   1.622  33.450  1.00  0.00    -0.386 N 
HETATM   13  H9  UNK     1      16.866   1.248  33.559  1.00  0.00     0.159 HD
BRANCH  12  14
HETATM   14  C2  UNK     1      18.489   2.089  34.611  1.00  0.00     0.150 C 
BRANCH  14  15
HETATM   15  C1  UNK     1      18.637   0.949  35.611  1.00  0.00     0.292 C 
BRANCH  15  16
HETATM   16  N1  UNK     1      17.372   0.243  35.766  1.00  0.00     0.089 N 
BRANCH  16  17
HETATM   17  C3  UNK     1      16.604   0.800  36.882  1.00  0.00     0.268 C 
HETATM   18  C7  UNK     1      17.520   1.082  38.057  1.00  0.00     0.037 C 
ENDBRANCH  16  17
BRANCH  16  19
HETATM   19  C4  UNK     1      17.601  -1.189  35.972  1.00  0.00     0.268 C 
HETATM   20  C8  UNK     1      19.074  -1.510  35.808  1.00  0.00     0.037 C 
ENDBRANCH  16  19
ENDBRANCH  15  16
ENDBRANCH  14  15
ENDBRANCH  12  14
ENDBRANCH   3  12
BRANCH   5  21
HETATM   21  N3  UNK     1      17.633   4.053  31.944  1.00  0.00    -0.392 N 
HETATM   22  H20 UNK     1      16.649   4.047  32.169  1.00  0.00     0.156 HD
HETATM   23  H21 UNK     1      18.203   4.695  32.484  1.00  0.00     0.156 HD
ENDBRANCH   5  21
TORSDOF 7
ENDMDL
MODEL 2
REMARK VINA RESULT:      -6.9      2.703      5.301
REMARK  7 active torsions:
REMARK  status: ('A' for Active; 'I' for Inactive)
REMARK    1  A    between atoms: C1_6  and  N1_3 
REMARK    2  A    between atoms: C3_8  and  N1_3 
REMARK    3  A    between atoms: C4_9  and  N1_3 
REMARK    4  A    between atoms: C2_7  and  N2_4 
REMARK    5  A    between atoms: C5_10  and  N2_4 
REMARK    6  A    between atoms: C9_14  and  N3_5 
REMARK    7  A    between atoms: C1_6  and  C2_7 
ROOT
HETATM    1  O1  UNK     1      19.056  -0.165  32.785  1.00  0.00    -0.273 OA
HETATM    2  O2  UNK     1      18.203   1.021  34.523  1.00  0.00    -0.257 OA
HETATM    3  C5  UNK     1      18.708   2.114  31.139  1.00  0.00     0.074 A 
HETATM    4  C6  UNK     1      19.270   0.863  30.587  1.00  0.00     0.027 A 
HETATM    5  C9  UNK     1      18.356   2.161  32.444  1.00  0.00     0.130 A 
HETATM    6  C10 UNK     1      19.425  -0.234  31.432  1.00  0.00     0.092 A 
HETATM    7  C11 UNK     1      19.666   0.693  29.249  1.00  0.00     0.017 A 
HETATM    8  C12 UNK     1      18.523   0.984  33.339  1.00  0.00     0.317 A 
HETATM    9  C13 UNK     1      19.947  -1.455  30.997  1.00  0.00     0.038 A 
HETATM   10  C14 UNK     1      20.192  -0.523  28.797  1.00  0.00     0.001 A 
HETATM   11  C15 UNK     1      20.333  -1.597  29.671  1.00  0.00     0.003 A 
ENDROOT
BRANCH   3  12
HETATM   12  N2  UNK     1      18.565   3.189  30.298  1.00  0.00    -0.386 N 
HETATM   13  H9  UNK     1      17.838   3.169  29.595  1.00  0.00     0.159 HD
BRANCH  12  14
HETATM   14  C2  UNK     1      19.476   4.290  30.308  1.00  0.00     0.150 C 
BRANCH  14  15
HETATM   15  C1  UNK     1      18.719   5.581  30.021  1.00  0.00     0.292 C 
BRANCH  15  16
HETATM   16  N1  UNK     1      18.882   6.520  31.123  1.00  0.00     0.089 N 
BRANCH  16  17
HETATM   17  C3  UNK     1      20.018   6.136  31.965  1.00  0.00     0.268 C 
HETATM   18  C7  UNK     1      19.941   6.846  33.302  1.00  0.00     0.037 C 
ENDBRANCH  16  17
BRANCH  16  19
HETATM   19  C4  UNK     1      17.658   6.592  31.925  1.00  0.00     0.268 C 
HETATM   20  C8  UNK     1      16.755   7.692  31.402  1.00  0.00     0.037 C 
ENDBRANCH  16  19
ENDBRANCH  15  16
ENDBRANCH  14  15
ENDBRANCH  12  14
ENDBRANCH   3  12
BRANCH   5  21
HETATM   21  N3  UNK     1      17.827   3.262  33.065  1.00  0.00    -0.392 N 
HETATM   22  H20 UNK     1      18.053   3.450  34.030  1.00  0.00     0.156 HD
HETATM   23  H21 UNK     1      17.641   4.077  32.490  1.00  0.00     0.156 HD
ENDBRANCH   5  21
TORSDOF 7
ENDMDL
MODEL 3
REMARK VINA RESULT:      -6.7      2.701      5.315
REMARK  7 active torsions:
REMARK  status: ('A' for Active; 'I' for Inactive)
REMARK    1  A    between atoms: C1_6  and  N1_3 
REMARK    2  A    between atoms: C3_8  and  N1_3 
REMARK    3  A    between atoms: C4_9  and  N1_3 
REMARK    4  A    between atoms: C2_7  and  N2_4 
REMARK    5  A    between atoms: C5_10  and  N2_4 
REMARK    6  A    between atoms: C9_14  and  N3_5 
REMARK    7  A    between atoms: C1_6  and  C2_7 
ROOT
HETATM    1  O1  UNK     1      19.356  -1.152  32.996  1.00  0.00    -0.273 OA
HETATM    2  O2  UNK     1      18.562  -1.010  35.118  1.00  0.00    -0.257 OA
HETATM    3  C5  UNK     1      18.318   1.437  32.502  1.00  0.00     0.074 A 
HETATM    4  C6  UNK     1      19.024   0.691  31.437  1.00  0.00     0.027 A 
HETATM    5  C9  UNK     1      18.168   0.869  33.719  1.00  0.00     0.130 A 
HETATM    6  C10 UNK     1      19.519  -0.579  31.724  1.00  0.00     0.092 A 
HETATM    7  C11 UNK     1      19.236   1.176  30.135  1.00  0.00     0.017 A 
HETATM    8  C12 UNK     1      18.698  -0.490  34.015  1.00  0.00     0.317 A 
HETATM    9  C13 UNK     1      20.199  -1.356  30.781  1.00  0.00     0.038 A 
HETATM   10  C14 UNK     1      19.915   0.411  29.179  1.00  0.00     0.001 A 
HETATM   11  C15 UNK     1      20.397  -0.854  29.502  1.00  0.00     0.003 A 
ENDROOT
BRANCH   3  12
HETATM   12  N2  UNK     1      17.839   2.689  32.208  1.00  0.00    -0.386 N 
HETATM   13  H9  UNK     1      17.092   2.783  31.533  1.00  0.00     0.159 HD
BRANCH  12  14
HETATM   14  C2  UNK     1      18.431   3.876  32.742  1.00  0.00     0.150 C 
BRANCH  14  15
HETATM   15  C1  UNK     1      17.612   5.090  32.322  1.00  0.00     0.292 C 
BRANCH  15  16
HETATM   16  N1  UNK     1      18.489   6.160  31.867  1.00  0.00     0.089 N 
BRANCH  16  17
HETATM   17  C3  UNK     1      18.707   6.069  30.421  1.00  0.00     0.268 C 
HETATM   18  C7  UNK     1      20.183   5.884  30.127  1.00  0.00     0.037 C 
ENDBRANCH  16  17
BRANCH  16  19
HETATM   19  C4  UNK     1      19.769   6.116  32.577  1.00  0.00     0.268 C 
HETATM   20  C8  UNK     1      19.868   7.277  33.548  1.00  0.00     0.037 C 
ENDBRANCH  16  19
ENDBRANCH  15  16
ENDBRANCH  14  15
ENDBRANCH  12  14
ENDBRANCH   3  12
BRANCH   5  21
HETATM   21  N3  UNK     1      17.534   1.463  34.779  1.00  0.00    -0.392 N 
HETATM   22  H20 UNK     1      16.625   1.134  35.068  1.00  0.00     0.156 HD
HETATM   23  H21 UNK     1      18.117   1.846  35.515  1.00  0.00     0.156 HD
ENDBRANCH   5  21
TORSDOF 7
ENDMDL
MODEL 4
REMARK VINA RESULT:      -6.6      1.629      3.646
REMARK  7 active torsions:
REMARK  status: ('A' for Active; 'I' for Inactive)
REMARK    1  A    between atoms: C1_6  and  N1_3 
REMARK    2  A    between atoms: C3_8  and  N1_3 
REMARK    3  A    between atoms: C4_9  and  N1_3 
REMARK    4  A    between atoms: C2_7  and  N2_4 
REMARK    5  A    between atoms: C5_10  and  N2_4 
REMARK    6  A    between atoms: C9_14  and  N3_5 
REMARK    7  A    between atoms: C1_6  and  C2_7 
ROOT
HETATM    1  O1  UNK     1      19.173   3.218  29.662  1.00  0.00    -0.273 OA
HETATM    2  O2  UNK     1      19.492   1.021  29.186  1.00  0.00    -0.257 OA
HETATM    3  C5  UNK     1      18.227   2.462  32.223  1.00  0.00     0.074 A 
HETATM    4  C6  UNK     1      18.286   3.887  31.830  1.00  0.00     0.027 A 
HETATM    5  C9  UNK     1      18.628   1.517  31.344  1.00  0.00     0.130 A 
HETATM    6  C10 UNK     1      18.758   4.214  30.561  1.00  0.00     0.092 A 
HETATM    7  C11 UNK     1      17.893   4.954  32.655  1.00  0.00     0.017 A 
HETATM    8  C12 UNK     1      19.129   1.875  29.989  1.00  0.00     0.317 A 
HETATM    9  C13 UNK     1      18.849   5.532  30.105  1.00  0.00     0.038 A 
HETATM   10  C14 UNK     1      17.977   6.281  32.214  1.00  0.00     0.001 A 
HETATM   11  C15 UNK     1      18.456   6.569  30.939  1.00  0.00     0.003 A 
ENDROOT
BRANCH   3  12
HETATM   12  N2  UNK     1      17.764   2.153  33.477  1.00  0.00    -0.386 N 
HETATM   13  H9  UNK     1      16.820   1.805  33.580  1.00  0.00     0.159 HD
BRANCH  12  14
HETATM   14  C2  UNK     1      18.532   2.407  34.656  1.00  0.00     0.150 C 
BRANCH  14  15
HETATM   15  C1  UNK     1      18.475   1.192  35.574  1.00  0.00     0.292 C 
BRANCH  15  16
HETATM   16  N1  UNK     1      17.126   0.643  35.605  1.00  0.00     0.089 N 
BRANCH  16  17
HETATM   17  C3  UNK     1      16.480   0.933  36.888  1.00  0.00     0.268 C 
HETATM   18  C7  UNK     1      17.528   1.150  37.962  1.00  0.00     0.037 C 
ENDBRANCH  16  17
BRANCH  16  19
HETATM   19  C4  UNK     1      17.150  -0.802  35.365  1.00  0.00     0.268 C 
HETATM   20  C8  UNK     1      18.577  -1.272  35.156  1.00  0.00     0.037 C 
ENDBRANCH  16  19
ENDBRANCH  15  16
ENDBRANCH  14  15
ENDBRANCH  12  14
ENDBRANCH   3  12
BRANCH   5  21
HETATM   21  N3  UNK     1      18.619   0.170  31.595  1.00  0.00    -0.392 N 
HETATM   22  H20 UNK     1      17.771  -0.275  31.913  1.00  0.00     0.156 HD
HETATM   23  H21 UNK     1      19.240  -0.411  31.043  1.00  0.00     0.156 HD
ENDBRANCH   5  21
TORSDOF 7
ENDMDL
MODEL 5
REMARK VINA RESULT:      -6.6     13.802     15.369
REMARK  7 active torsions:
REMARK  status: ('A' for Active; 'I' for Inactive)
REMARK    1  A    between atoms: C1_6  and  N1_3 
REMARK    2  A    between atoms: C3_8  and  N1_3 
REMARK    3  A    between atoms: C4_9  and  N1_3 
REMARK    4  A    between atoms: C2_7  and  N2_4 
REMARK    5  A    between atoms: C5_10  and  N2_4 
REMARK    6  A    between atoms: C9_14  and  N3_5 
REMARK    7  A    between atoms: C1_6  and  C2_7 
ROOT
HETATM    1  O1  UNK     1      28.668  -5.710  39.657  1.00  0.00    -0.273 OA
HETATM    2  O2  UNK     1      29.538  -3.627  39.902  1.00  0.00    -0.257 OA
HETATM    3  C5  UNK     1      29.566  -5.701  36.970  1.00  0.00     0.074 A 
HETATM    4  C6  UNK     1      28.844  -6.869  37.521  1.00  0.00     0.027 A 
HETATM    5  C9  UNK     1      29.794  -4.630  37.763  1.00  0.00     0.130 A 
HETATM    6  C10 UNK     1      28.420  -6.830  38.847  1.00  0.00     0.092 A 
HETATM    7  C11 UNK     1      28.546  -8.033  36.793  1.00  0.00     0.017 A 
HETATM    8  C12 UNK     1      29.335  -4.598  39.179  1.00  0.00     0.317 A 
HETATM    9  C13 UNK     1      27.732  -7.886  39.452  1.00  0.00     0.038 A 
HETATM   10  C14 UNK     1      27.857  -9.100  37.382  1.00  0.00     0.001 A 
HETATM   11  C15 UNK     1      27.451  -9.027  38.711  1.00  0.00     0.003 A 
ENDROOT
BRANCH   3  12
HETATM   12  N2  UNK     1      29.982  -5.753  35.663  1.00  0.00    -0.386 N 
HETATM   13  H9  UNK     1      29.289  -5.818  34.930  1.00  0.00     0.159 HD
BRANCH  12  14
HETATM   14  C2  UNK     1      31.365  -5.825  35.306  1.00  0.00     0.150 C 
BRANCH  14  15
HETATM   15  C1  UNK     1      31.935  -7.169  35.743  1.00  0.00     0.292 C 
BRANCH  15  16
HETATM   16  N1  UNK     1      33.070  -6.971  36.636  1.00  0.00     0.089 N 
BRANCH  16  17
HETATM   17  C3  UNK     1      32.683  -7.227  38.026  1.00  0.00     0.268 C 
HETATM   18  C7  UNK     1      31.968  -8.559  38.132  1.00  0.00     0.037 C 
ENDBRANCH  16  17
BRANCH  16  19
HETATM   19  C4  UNK     1      33.605  -5.615  36.499  1.00  0.00     0.268 C 
HETATM   20  C8  UNK     1      35.119  -5.654  36.433  1.00  0.00     0.037 C 
ENDBRANCH  16  19
ENDBRANCH  15  16
ENDBRANCH  14  15
ENDBRANCH  12  14
ENDBRANCH   3  12
BRANCH   5  21
HETATM   21  N3  UNK     1      30.451  -3.496  37.364  1.00  0.00    -0.392 N 
HETATM   22  H20 UNK     1      30.196  -3.047  36.497  1.00  0.00     0.156 HD
HETATM   23  H21 UNK     1      30.802  -2.881  38.091  1.00  0.00     0.156 HD
ENDBRANCH   5  21
TORSDOF 7
ENDMDL
MODEL 6
REMARK VINA RESULT:      -6.6     23.929     25.638
REMARK  7 active torsions:
REMARK  status: ('A' for Active; 'I' for Inactive)
REMARK    1  A    between atoms: C1_6  and  N1_3 
REMARK    2  A    between atoms: C3_8  and  N1_3 
REMARK    3  A    between atoms: C4_9  and  N1_3 
REMARK    4  A    between atoms: C2_7  and  N2_4 
REMARK    5  A    between atoms: C5_10  and  N2_4 
REMARK    6  A    between atoms: C9_14  and  N3_5 
REMARK    7  A    between atoms: C1_6  and  C2_7 
ROOT
HETATM    1  O1  UNK     1      16.350   6.149   9.882  1.00  0.00    -0.273 OA
HETATM    2  O2  UNK     1      15.512   4.040   9.791  1.00  0.00    -0.257 OA
HETATM    3  C5  UNK     1      13.699   7.140   9.773  1.00  0.00     0.074 A 
HETATM    4  C6  UNK     1      14.849   8.067   9.846  1.00  0.00     0.027 A 
HETATM    5  C9  UNK     1      13.924   5.807   9.755  1.00  0.00     0.130 A 
HETATM    6  C10 UNK     1      16.136   7.536   9.898  1.00  0.00     0.092 A 
HETATM    7  C11 UNK     1      14.740   9.468   9.865  1.00  0.00     0.017 A 
HETATM    8  C12 UNK     1      15.303   5.249   9.809  1.00  0.00     0.317 A 
HETATM    9  C13 UNK     1      17.281   8.335   9.969  1.00  0.00     0.038 A 
HETATM   10  C14 UNK     1      15.876  10.283   9.936  1.00  0.00     0.001 A 
HETATM   11  C15 UNK     1      17.146   9.717   9.988  1.00  0.00     0.003 A 
ENDROOT
BRANCH   3  12
HETATM   12  N2  UNK     1      12.436   7.675   9.726  1.00  0.00    -0.386 N 
HETATM   13  H9  UNK     1      11.948   7.858  10.594  1.00  0.00     0.159 HD
BRANCH  12  14
HETATM   14  C2  UNK     1      11.743   7.885   8.494  1.00  0.00     0.150 C 
BRANCH  14  15
HETATM   15  C1  UNK     1      10.264   7.567   8.680  1.00  0.00     0.292 C 
BRANCH  15  16
HETATM   16  N1  UNK     1       9.962   6.240   8.158  1.00  0.00     0.089 N 
BRANCH  16  17
HETATM   17  C3  UNK     1      10.771   5.957   6.970  1.00  0.00     0.268 C 
HETATM   18  C7  UNK     1       9.938   6.139   5.716  1.00  0.00     0.037 C 
ENDBRANCH  16  17
BRANCH  16  19
HETATM   19  C4  UNK     1       8.537   6.122   7.841  1.00  0.00     0.268 C 
HETATM   20  C8  UNK     1       7.765   7.263   8.475  1.00  0.00     0.037 C 
ENDBRANCH  16  19
ENDBRANCH  15  16
ENDBRANCH  14  15
ENDBRANCH  12  14
ENDBRANCH   3  12
BRANCH   5  21
HETATM   21  N3  UNK     1      12.940   4.856   9.690  1.00  0.00    -0.392 N 
HETATM   22  H20 UNK     1      12.786   4.352   8.829  1.00  0.00     0.156 HD
HETATM   23  H21 UNK     1      12.727   4.347  10.541  1.00  0.00     0.156 HD
ENDBRANCH   5  21
TORSDOF 7
ENDMDL
MODEL 7
REMARK VINA RESULT:      -6.5     13.766     15.397
REMARK  7 active torsions:
REMARK  status: ('A' for Active; 'I' for Inactive)
REMARK    1  A    between atoms: C1_6  and  N1_3 
REMARK    2  A    between atoms: C3_8  and  N1_3 
REMARK    3  A    between atoms: C4_9  and  N1_3 
REMARK    4  A    between atoms: C2_7  and  N2_4 
REMARK    5  A    between atoms: C5_10  and  N2_4 
REMARK    6  A    between atoms: C9_14  and  N3_5 
REMARK    7  A    between atoms: C1_6  and  C2_7 
ROOT
HETATM    1  O1  UNK     1      28.673  -5.768  39.714  1.00  0.00    -0.273 OA
HETATM    2  O2  UNK     1      29.559  -3.689  39.938  1.00  0.00    -0.257 OA
HETATM    3  C5  UNK     1      29.433  -5.730  36.986  1.00  0.00     0.074 A 
HETATM    4  C6  UNK     1      28.737  -6.902  37.559  1.00  0.00     0.027 A 
HETATM    5  C9  UNK     1      29.703  -4.669  37.778  1.00  0.00     0.130 A 
HETATM    6  C10 UNK     1      28.382  -6.879  38.906  1.00  0.00     0.092 A 
HETATM    7  C11 UNK     1      28.399  -8.058  36.835  1.00  0.00     0.017 A 
HETATM    8  C12 UNK     1      29.318  -4.651  39.215  1.00  0.00     0.317 A 
HETATM    9  C13 UNK     1      27.723  -7.940  39.533  1.00  0.00     0.038 A 
HETATM   10  C14 UNK     1      27.739  -9.131  37.447  1.00  0.00     0.001 A 
HETATM   11  C15 UNK     1      27.401  -9.072  38.796  1.00  0.00     0.003 A 
ENDROOT
BRANCH   3  12
HETATM   12  N2  UNK     1      29.781  -5.768  35.659  1.00  0.00    -0.386 N 
HETATM   13  H9  UNK     1      29.052  -5.839  34.962  1.00  0.00     0.159 HD
BRANCH  12  14
HETATM   14  C2  UNK     1      31.144  -5.817  35.231  1.00  0.00     0.150 C 
BRANCH  14  15
HETATM   15  C1  UNK     1      31.840  -7.009  35.876  1.00  0.00     0.292 C 
BRANCH  15  16
HETATM   16  N1  UNK     1      32.893  -6.556  36.774  1.00  0.00     0.089 N 
BRANCH  16  17
HETATM   17  C3  UNK     1      34.207  -6.982  36.286  1.00  0.00     0.268 C 
HETATM   18  C7  UNK     1      35.204  -5.847  36.413  1.00  0.00     0.037 C 
ENDBRANCH  16  17
BRANCH  16  19
HETATM   19  C4  UNK     1      32.668  -7.061  38.130  1.00  0.00     0.268 C 
HETATM   20  C8  UNK     1      31.993  -8.418  38.076  1.00  0.00     0.037 C 
ENDBRANCH  16  19
ENDBRANCH  15  16
ENDBRANCH  14  15
ENDBRANCH  12  14
ENDBRANCH   3  12
BRANCH   5  21
HETATM   21  N3  UNK     1      30.341  -3.531  37.359  1.00  0.00    -0.392 N 
HETATM   22  H20 UNK     1      29.957  -2.992  36.597  1.00  0.00     0.156 HD
HETATM   23  H21 UNK     1      30.856  -3.003  38.055  1.00  0.00     0.156 HD
ENDBRANCH   5  21
TORSDOF 7
ENDMDL
MODEL 8
REMARK VINA RESULT:      -6.4      9.570     12.090
REMARK  7 active torsions:
REMARK  status: ('A' for Active; 'I' for Inactive)
REMARK    1  A    between atoms: C1_6  and  N1_3 
REMARK    2  A    between atoms: C3_8  and  N1_3 
REMARK    3  A    between atoms: C4_9  and  N1_3 
REMARK    4  A    between atoms: C2_7  and  N2_4 
REMARK    5  A    between atoms: C5_10  and  N2_4 
REMARK    6  A    between atoms: C9_14  and  N3_5 
REMARK    7  A    between atoms: C1_6  and  C2_7 
ROOT
HETATM    1  O1  UNK     1      20.890  -8.375  34.911  1.00  0.00    -0.273 OA
HETATM    2  O2  UNK     1      21.744 -10.371  34.248  1.00  0.00    -0.257 OA
HETATM    3  C5  UNK     1      22.354  -8.620  37.323  1.00  0.00     0.074 A 
HETATM    4  C6  UNK     1      21.495  -7.441  37.078  1.00  0.00     0.027 A 
HETATM    5  C9  UNK     1      22.433  -9.587  36.383  1.00  0.00     0.130 A 
HETATM    6  C10 UNK     1      20.793  -7.361  35.877  1.00  0.00     0.092 A 
HETATM    7  C11 UNK     1      21.330  -6.377  37.981  1.00  0.00     0.017 A 
HETATM    8  C12 UNK     1      21.677  -9.494  35.104  1.00  0.00     0.317 A 
HETATM    9  C13 UNK     1      19.959  -6.285  35.560  1.00  0.00     0.038 A 
HETATM   10  C14 UNK     1      20.499  -5.291  37.679  1.00  0.00     0.001 A 
HETATM   11  C15 UNK     1      19.814  -5.245  36.468  1.00  0.00     0.003 A 
ENDROOT
BRANCH   3  12
HETATM   12  N2  UNK     1      23.044  -8.684  38.508  1.00  0.00    -0.386 N 
HETATM   13  H9  UNK     1      22.694  -9.278  39.248  1.00  0.00     0.159 HD
BRANCH  12  14
HETATM   14  C2  UNK     1      24.182  -7.861  38.772  1.00  0.00     0.150 C 
BRANCH  14  15
HETATM   15  C1  UNK     1      25.414  -8.462  38.107  1.00  0.00     0.292 C 
BRANCH  15  16
HETATM   16  N1  UNK     1      26.613  -8.126  38.863  1.00  0.00     0.089 N 
BRANCH  16  17
HETATM   17  C3  UNK     1      27.211  -6.887  38.360  1.00  0.00     0.268 C 
HETATM   18  C7  UNK     1      28.292  -6.407  39.308  1.00  0.00     0.037 C 
ENDBRANCH  16  17
BRANCH  16  19
HETATM   19  C4  UNK     1      27.585  -9.220  38.802  1.00  0.00     0.268 C 
HETATM   20  C8  UNK     1      27.479 -10.082  40.045  1.00  0.00     0.037 C 
ENDBRANCH  16  19
ENDBRANCH  15  16
ENDBRANCH  14  15
ENDBRANCH  12  14
ENDBRANCH   3  12
BRANCH   5  21
HETATM   21  N3  UNK     1      23.194 -10.721  36.499  1.00  0.00    -0.392 N 
HETATM   22  H20 UNK     1      24.190 -10.645  36.637  1.00  0.00     0.156 HD
HETATM   23  H21 UNK     1      22.754 -11.537  36.911  1.00  0.00     0.156 HD
ENDBRANCH   5  21
TORSDOF 7
ENDMDL
MODEL 9
REMARK VINA RESULT:      -6.4     13.815     15.355
REMARK  7 active torsions:
REMARK  status: ('A' for Active; 'I' for Inactive)
REMARK    1  A    between atoms: C1_6  and  N1_3 
REMARK    2  A    between atoms: C3_8  and  N1_3 
REMARK    3  A    between atoms: C4_9  and  N1_3 
REMARK    4  A    between atoms: C2_7  and  N2_4 
REMARK    5  A    between atoms: C5_10  and  N2_4 
REMARK    6  A    between atoms: C9_14  and  N3_5 
REMARK    7  A    between atoms: C1_6  and  C2_7 
ROOT
HETATM    1  O1  UNK     1      28.685  -5.680  39.652  1.00  0.00    -0.273 OA
HETATM    2  O2  UNK     1      29.484  -3.569  39.905  1.00  0.00    -0.257 OA
HETATM    3  C5  UNK     1      29.658  -5.662  36.991  1.00  0.00     0.074 A 
HETATM    4  C6  UNK     1      28.956  -6.847  37.531  1.00  0.00     0.027 A 
HETATM    5  C9  UNK     1      29.830  -4.579  37.782  1.00  0.00     0.130 A 
HETATM    6  C10 UNK     1      28.494  -6.813  38.844  1.00  0.00     0.092 A 
HETATM    7  C11 UNK     1      28.714  -8.025  36.804  1.00  0.00     0.017 A 
HETATM    8  C12 UNK     1      29.332  -4.551  39.184  1.00  0.00     0.317 A 
HETATM    9  C13 UNK     1      27.821  -7.885  39.438  1.00  0.00     0.038 A 
HETATM   10  C14 UNK     1      28.041  -9.109  37.382  1.00  0.00     0.001 A 
HETATM   11  C15 UNK     1      27.595  -9.039  38.699  1.00  0.00     0.003 A 
ENDROOT
BRANCH   3  12
HETATM   12  N2  UNK     1      30.112  -5.710  35.697  1.00  0.00    -0.386 N 
HETATM   13  H9  UNK     1      29.440  -5.718  34.941  1.00  0.00     0.159 HD
BRANCH  12  14
HETATM   14  C2  UNK     1      31.498  -5.857  35.381  1.00  0.00     0.150 C 
BRANCH  14  15
HETATM   15  C1  UNK     1      31.745  -7.243  34.798  1.00  0.00     0.292 C 
BRANCH  15  16
HETATM   16  N1  UNK     1      31.967  -8.210  35.865  1.00  0.00     0.089 N 
BRANCH  16  17
HETATM   17  C3  UNK     1      32.948  -7.701  36.827  1.00  0.00     0.268 C 
HETATM   18  C7  UNK     1      32.421  -7.854  38.240  1.00  0.00     0.037 C 
ENDBRANCH  16  17
BRANCH  16  19
HETATM   19  C4  UNK     1      32.413  -9.492  35.316  1.00  0.00     0.268 C 
HETATM   20  C8  UNK     1      31.527 -10.613  35.822  1.00  0.00     0.037 C 
ENDBRANCH  16  19
ENDBRANCH  15  16
ENDBRANCH  14  15
ENDBRANCH  12  14
ENDBRANCH   3  12
BRANCH   5  21
HETATM   21  N3  UNK     1      30.464  -3.428  37.393  1.00  0.00    -0.392 N 
HETATM   22  H20 UNK     1      30.594  -3.235  36.411  1.00  0.00     0.156 HD
HETATM   23  H21 UNK     1      30.363  -2.616  37.992  1.00  0.00     0.156 HD
ENDBRANCH   5  21
TORSDOF 7
ENDMDL
MODEL 10
REMARK VINA RESULT:      -6.4     13.799     15.434
REMARK  7 active torsions:
REMARK  status: ('A' for Active; 'I' for Inactive)
REMARK    1  A    between atoms: C1_6  and  N1_3 
REMARK    2  A    between atoms: C3_8  and  N1_3 
REMARK    3  A    between atoms: C4_9  and  N1_3 
REMARK    4  A    between atoms: C2_7  and  N2_4 
REMARK    5  A    between atoms: C5_10  and  N2_4 
REMARK    6  A    between atoms: C9_14  and  N3_5 
REMARK    7  A    between atoms: C1_6  and  C2_7 
ROOT
HETATM    1  O1  UNK     1      28.707  -5.744  39.637  1.00  0.00    -0.273 OA
HETATM    2  O2  UNK     1      29.542  -3.649  39.898  1.00  0.00    -0.257 OA
HETATM    3  C5  UNK     1      29.576  -5.686  36.941  1.00  0.00     0.074 A 
HETATM    4  C6  UNK     1      28.880  -6.873  37.484  1.00  0.00     0.027 A 
HETATM    5  C9  UNK     1      29.793  -4.621  37.745  1.00  0.00     0.130 A 
HETATM    6  C10 UNK     1      28.471  -6.859  38.816  1.00  0.00     0.092 A 
HETATM    7  C11 UNK     1      28.595  -8.034  36.745  1.00  0.00     0.017 A 
HETATM    8  C12 UNK     1      29.349  -4.614  39.165  1.00  0.00     0.317 A 
HETATM    9  C13 UNK     1      27.808  -7.935  39.414  1.00  0.00     0.038 A 
HETATM   10  C14 UNK     1      27.932  -9.120  37.329  1.00  0.00     0.001 A 
HETATM   11  C15 UNK     1      27.539  -9.071  38.663  1.00  0.00     0.003 A 
ENDROOT
BRANCH   3  12
HETATM   12  N2  UNK     1      29.979  -5.714  35.629  1.00  0.00    -0.386 N 
HETATM   13  H9  UNK     1      29.351  -5.367  34.916  1.00  0.00     0.159 HD
BRANCH  12  14
HETATM   14  C2  UNK     1      31.210  -6.315  35.223  1.00  0.00     0.150 C 
BRANCH  14  15
HETATM   15  C1  UNK     1      32.215  -5.227  34.862  1.00  0.00     0.292 C 
BRANCH  15  16
HETATM   16  N1  UNK     1      33.221  -5.099  35.907  1.00  0.00     0.089 N 
BRANCH  16  17
HETATM   17  C3  UNK     1      34.486  -4.614  35.349  1.00  0.00     0.268 C 
HETATM   18  C7  UNK     1      34.854  -5.415  34.116  1.00  0.00     0.037 C 
ENDBRANCH  16  17
BRANCH  16  19
HETATM   19  C4  UNK     1      33.425  -6.380  36.587  1.00  0.00     0.268 C 
HETATM   20  C8  UNK     1      34.419  -6.217  37.721  1.00  0.00     0.037 C 
ENDBRANCH  16  19
ENDBRANCH  15  16
ENDBRANCH  14  15
ENDBRANCH  12  14
ENDBRANCH   3  12
BRANCH   5  21
HETATM   21  N3  UNK     1      30.425  -3.470  37.353  1.00  0.00    -0.392 N 
HETATM   22  H20 UNK     1      30.639  -3.322  36.379  1.00  0.00     0.156 HD
HETATM   23  H21 UNK     1      30.246  -2.633  37.896  1.00  0.00     0.156 HD
ENDBRANCH   5  21
TORSDOF 7
ENDMDL
