MODEL 1
REMARK VINA RESULT:      -7.7      0.000      0.000
REMARK  3 active torsions:
REMARK  status: ('A' for Active; 'I' for Inactive)
REMARK    1  A    between atoms: C13_18  and  O2_2 
REMARK    2  A    between atoms: C5_10  and  O2_2 
REMARK    3  A    between atoms: C3_8  and  C9_14 
ROOT
HETATM    1  O1  UNK     1      18.469   1.621  31.611  1.00  0.00    -0.274 OA
HETATM    2  O4  UNK     1      18.282   3.191  29.959  1.00  0.00    -0.260 OA
HETATM    3  C1  UNK     1      19.682  -0.451  31.159  1.00  0.00     0.005 A 
HETATM    4  C2  UNK     1      18.952   0.363  32.025  1.00  0.00     0.106 A 
HETATM    5  C3  UNK     1      18.662  -0.017  33.337  1.00  0.00     0.078 A 
HETATM    6  C4  UNK     1      19.940   0.028  29.794  1.00  0.00    -0.043 A 
HETATM    7  C5  UNK     1      19.112  -1.247  33.804  1.00  0.00     0.095 A 
HETATM    8  C6  UNK     1      20.127  -1.687  31.647  1.00  0.00     0.017 A 
HETATM    9  C7  UNK     1      19.844  -2.081  32.960  1.00  0.00     0.039 A 
HETATM   10  C8  UNK     1      19.469   1.229  29.427  1.00  0.00     0.090 A 
HETATM   11  C10 UNK     1      20.722  -0.824  28.837  1.00  0.00     0.049 C 
HETATM   12  C11 UNK     1      18.698   2.100  30.331  1.00  0.00     0.288 A 
ENDROOT
BRANCH   7  13
HETATM   13  O2  UNK     1      18.853  -1.655  35.078  1.00  0.00    -0.278 OA
BRANCH  13  14
HETATM   14  C13 UNK     1      19.994  -2.043  35.798  1.00  0.00     0.260 C 
HETATM   15  C14 UNK     1      19.717  -3.310  36.552  1.00  0.00     0.126 C 
HETATM   16  O5  UNK     1      21.065  -1.450  35.817  1.00  0.00    -0.265 OA
ENDBRANCH  13  14
ENDBRANCH   7  13
BRANCH   5  17
HETATM   17  C9  UNK     1      17.897   0.861  34.216  1.00  0.00     0.161 C 
HETATM   18  C12 UNK     1      18.616   1.810  35.164  1.00  0.00     0.097 C 
HETATM   19  O3  UNK     1      16.651   0.856  34.211  1.00  0.00    -0.293 OA
ENDBRANCH   5  17
TORSDOF 3
ENDMDL
MODEL 2
REMARK VINA RESULT:      -7.7      2.015      4.815
REMARK  3 active torsions:
REMARK  status: ('A' for Active; 'I' for Inactive)
REMARK    1  A    between atoms: C13_18  and  O2_2 
REMARK    2  A    between atoms: C5_10  and  O2_2 
REMARK    3  A    between atoms: C3_8  and  C9_14 
ROOT
HETATM    1  O1  UNK     1      19.241  -0.469  32.914  1.00  0.00    -0.274 OA
HETATM    2  O4  UNK     1      20.081  -2.572  33.228  1.00  0.00    -0.260 OA
HETATM    3  C1  UNK     1      19.499   0.609  30.737  1.00  0.00     0.005 A 
HETATM    4  C2  UNK     1      19.040   0.630  32.054  1.00  0.00     0.106 A 
HETATM    5  C3  UNK     1      18.363   1.727  32.590  1.00  0.00     0.078 A 
HETATM    6  C4  UNK     1      20.203  -0.588  30.256  1.00  0.00    -0.043 A 
HETATM    7  C5  UNK     1      18.134   2.841  31.789  1.00  0.00     0.095 A 
HETATM    8  C6  UNK     1      19.259   1.741  29.946  1.00  0.00     0.017 A 
HETATM    9  C7  UNK     1      18.582   2.848  30.469  1.00  0.00     0.039 A 
HETATM   10  C8  UNK     1      20.379  -1.618  31.095  1.00  0.00     0.090 A 
HETATM   11  C10 UNK     1      20.709  -0.642  28.844  1.00  0.00     0.049 C 
HETATM   12  C11 UNK     1      19.900  -1.611  32.488  1.00  0.00     0.288 A 
ENDROOT
BRANCH   7  13
HETATM   13  O2  UNK     1      17.475   3.932  32.272  1.00  0.00    -0.278 OA
BRANCH  13  14
HETATM   14  C13 UNK     1      18.282   5.071  32.415  1.00  0.00     0.260 C 
HETATM   15  C14 UNK     1      17.652   6.237  31.712  1.00  0.00     0.126 C 
HETATM   16  O5  UNK     1      19.345   5.125  33.021  1.00  0.00    -0.265 OA
ENDBRANCH  13  14
ENDBRANCH   7  13
BRANCH   5  17
HETATM   17  C9  UNK     1      17.896   1.713  33.972  1.00  0.00     0.161 C 
HETATM   18  C12 UNK     1      18.743   2.337  35.072  1.00  0.00     0.097 C 
HETATM   19  O3  UNK     1      16.805   1.197  34.281  1.00  0.00    -0.293 OA
ENDBRANCH   5  17
TORSDOF 3
ENDMDL
MODEL 3
REMARK VINA RESULT:      -7.5      6.821      8.960
REMARK  3 active torsions:
REMARK  status: ('A' for Active; 'I' for Inactive)
REMARK    1  A    between atoms: C13_18  and  O2_2 
REMARK    2  A    between atoms: C5_10  and  O2_2 
REMARK    3  A    between atoms: C3_8  and  C9_14 
ROOT
HETATM    1  O1  UNK     1      18.091   6.421  30.912  1.00  0.00    -0.274 OA
HETATM    2  O4  UNK     1      18.770   5.069  29.198  1.00  0.00    -0.260 OA
HETATM    3  C1  UNK     1      19.665   6.967  32.699  1.00  0.00     0.005 A 
HETATM    4  C2  UNK     1      18.399   7.077  32.121  1.00  0.00     0.106 A 
HETATM    5  C3  UNK     1      17.379   7.834  32.700  1.00  0.00     0.078 A 
HETATM    6  C4  UNK     1      20.679   6.148  32.021  1.00  0.00    -0.043 A 
HETATM    7  C5  UNK     1      17.623   8.504  33.893  1.00  0.00     0.095 A 
HETATM    8  C6  UNK     1      19.892   7.649  33.902  1.00  0.00     0.017 A 
HETATM    9  C7  UNK     1      18.878   8.412  34.494  1.00  0.00     0.039 A 
HETATM   10  C8  UNK     1      20.358   5.537  30.872  1.00  0.00     0.090 A 
HETATM   11  C10 UNK     1      22.050   6.010  32.617  1.00  0.00     0.049 C 
HETATM   12  C11 UNK     1      19.028   5.644  30.249  1.00  0.00     0.288 A 
ENDROOT
BRANCH   7  13
HETATM   13  O2  UNK     1      16.656   9.255  34.490  1.00  0.00    -0.278 OA
BRANCH  13  14
HETATM   14  C13 UNK     1      16.616  10.589  34.054  1.00  0.00     0.260 C 
HETATM   15  C14 UNK     1      15.198  11.077  34.028  1.00  0.00     0.126 C 
HETATM   16  O5  UNK     1      17.584  11.269  33.740  1.00  0.00    -0.265 OA
ENDBRANCH  13  14
ENDBRANCH   7  13
BRANCH   5  17
HETATM   17  C9  UNK     1      16.068   7.927  32.066  1.00  0.00     0.161 C 
HETATM   18  C12 UNK     1      14.910   7.082  32.576  1.00  0.00     0.097 C 
HETATM   19  O3  UNK     1      15.868   8.692  31.103  1.00  0.00    -0.293 OA
ENDBRANCH   5  17
TORSDOF 3
ENDMDL
MODEL 4
REMARK VINA RESULT:      -7.3      2.708      4.421
REMARK  3 active torsions:
REMARK  status: ('A' for Active; 'I' for Inactive)
REMARK    1  A    between atoms: C13_18  and  O2_2 
REMARK    2  A    between atoms: C5_10  and  O2_2 
REMARK    3  A    between atoms: C3_8  and  C9_14 
ROOT
HETATM    1  O1  UNK     1      17.801   4.208  33.496  1.00  0.00    -0.274 OA
HETATM    2  O4  UNK     1      17.348   6.274  34.365  1.00  0.00    -0.260 OA
HETATM    3  C1  UNK     1      18.594   4.028  31.193  1.00  0.00     0.005 A 
HETATM    4  C2  UNK     1      18.231   3.432  32.401  1.00  0.00     0.106 A 
HETATM    5  C3  UNK     1      18.272   2.050  32.592  1.00  0.00     0.078 A 
HETATM    6  C4  UNK     1      18.520   5.491  31.079  1.00  0.00    -0.043 A 
HETATM    7  C5  UNK     1      18.689   1.232  31.548  1.00  0.00     0.095 A 
HETATM    8  C6  UNK     1      19.011   3.187  30.152  1.00  0.00     0.017 A 
HETATM    9  C7  UNK     1      19.058   1.800  30.329  1.00  0.00     0.039 A 
HETATM   10  C8  UNK     1      18.107   6.204  32.137  1.00  0.00     0.090 A 
HETATM   11  C10 UNK     1      18.904   6.163  29.793  1.00  0.00     0.049 C 
HETATM   12  C11 UNK     1      17.721   5.590  33.419  1.00  0.00     0.288 A 
ENDROOT
BRANCH   7  13
HETATM   13  O2  UNK     1      18.746  -0.122  31.693  1.00  0.00    -0.278 OA
BRANCH  13  14
HETATM   14  C13 UNK     1      19.986  -0.683  31.346  1.00  0.00     0.260 C 
HETATM   15  C14 UNK     1      19.826  -2.150  31.077  1.00  0.00     0.126 C 
HETATM   16  O5  UNK     1      21.048  -0.080  31.268  1.00  0.00    -0.265 OA
ENDBRANCH  13  14
ENDBRANCH   7  13
BRANCH   5  17
HETATM   17  C9  UNK     1      17.886   1.462  33.870  1.00  0.00     0.161 C 
HETATM   18  C12 UNK     1      18.870   1.442  35.031  1.00  0.00     0.097 C 
HETATM   19  O3  UNK     1      16.755   0.969  34.040  1.00  0.00    -0.293 OA
ENDBRANCH   5  17
TORSDOF 3
ENDMDL
MODEL 5
REMARK VINA RESULT:      -7.2      1.575      1.997
REMARK  3 active torsions:
REMARK  status: ('A' for Active; 'I' for Inactive)
REMARK    1  A    between atoms: C13_18  and  O2_2 
REMARK    2  A    between atoms: C5_10  and  O2_2 
REMARK    3  A    between atoms: C3_8  and  C9_14 
ROOT
HETATM    1  O1  UNK     1      18.017   2.654  33.544  1.00  0.00    -0.274 OA
HETATM    2  O4  UNK     1      17.655   4.732  32.662  1.00  0.00    -0.260 OA
HETATM    3  C1  UNK     1      18.733   0.840  32.073  1.00  0.00     0.005 A 
HETATM    4  C2  UNK     1      18.389   1.309  33.341  1.00  0.00     0.106 A 
HETATM    5  C3  UNK     1      18.394   0.485  34.468  1.00  0.00     0.078 A 
HETATM    6  C4  UNK     1      18.699   1.777  30.942  1.00  0.00    -0.043 A 
HETATM    7  C5  UNK     1      18.753  -0.851  34.330  1.00  0.00     0.095 A 
HETATM    8  C6  UNK     1      19.091  -0.510  31.954  1.00  0.00     0.017 A 
HETATM    9  C7  UNK     1      19.101  -1.349  33.075  1.00  0.00     0.039 A 
HETATM   10  C8  UNK     1      18.342   3.050  31.165  1.00  0.00     0.090 A 
HETATM   11  C10 UNK     1      19.064   1.302  29.565  1.00  0.00     0.049 C 
HETATM   12  C11 UNK     1      17.978   3.561  32.497  1.00  0.00     0.288 A 
ENDROOT
BRANCH   7  13
HETATM   13  O2  UNK     1      18.773  -1.689  35.405  1.00  0.00    -0.278 OA
BRANCH  13  14
HETATM   14  C13 UNK     1      20.050  -2.174  35.729  1.00  0.00     0.260 C 
HETATM   15  C14 UNK     1      19.961  -3.611  36.149  1.00  0.00     0.126 C 
HETATM   16  O5  UNK     1      21.093  -1.534  35.679  1.00  0.00    -0.265 OA
ENDBRANCH  13  14
ENDBRANCH   7  13
BRANCH   5  17
HETATM   17  C9  UNK     1      18.030   1.012  35.779  1.00  0.00     0.161 C 
HETATM   18  C12 UNK     1      16.603   0.873  36.289  1.00  0.00     0.097 C 
HETATM   19  O3  UNK     1      18.869   1.580  36.503  1.00  0.00    -0.293 OA
ENDBRANCH   5  17
TORSDOF 3
ENDMDL
MODEL 6
REMARK VINA RESULT:      -7.0      6.552      8.773
REMARK  3 active torsions:
REMARK  status: ('A' for Active; 'I' for Inactive)
REMARK    1  A    between atoms: C13_18  and  O2_2 
REMARK    2  A    between atoms: C5_10  and  O2_2 
REMARK    3  A    between atoms: C3_8  and  C9_14 
ROOT
HETATM    1  O1  UNK     1      16.780   9.692  33.403  1.00  0.00    -0.274 OA
HETATM    2  O4  UNK     1      16.628  11.894  33.998  1.00  0.00    -0.260 OA
HETATM    3  C1  UNK     1      18.898   8.514  33.715  1.00  0.00     0.005 A 
HETATM    4  C2  UNK     1      17.564   8.524  33.305  1.00  0.00     0.106 A 
HETATM    5  C3  UNK     1      16.936   7.392  32.781  1.00  0.00     0.078 A 
HETATM    6  C4  UNK     1      19.478   9.751  34.255  1.00  0.00    -0.043 A 
HETATM    7  C5  UNK     1      17.658   6.210  32.661  1.00  0.00     0.095 A 
HETATM    8  C6  UNK     1      19.609   7.313  33.585  1.00  0.00     0.017 A 
HETATM    9  C7  UNK     1      18.993   6.170  33.062  1.00  0.00     0.039 A 
HETATM   10  C8  UNK     1      18.709  10.846  34.337  1.00  0.00     0.090 A 
HETATM   11  C10 UNK     1      20.910   9.773  34.704  1.00  0.00     0.049 C 
HETATM   12  C11 UNK     1      17.300  10.873  33.909  1.00  0.00     0.288 A 
ENDROOT
BRANCH   7  13
HETATM   13  O2  UNK     1      17.084   5.082  32.157  1.00  0.00    -0.278 OA
BRANCH  13  14
HETATM   14  C13 UNK     1      17.954   3.984  32.074  1.00  0.00     0.260 C 
HETATM   15  C14 UNK     1      18.745   4.051  30.801  1.00  0.00     0.126 C 
HETATM   16  O5  UNK     1      18.067   3.094  32.909  1.00  0.00    -0.265 OA
ENDBRANCH  13  14
ENDBRANCH   7  13
BRANCH   5  17
HETATM   17  C9  UNK     1      15.539   7.440  32.365  1.00  0.00     0.161 C 
HETATM   18  C12 UNK     1      14.428   7.297  33.395  1.00  0.00     0.097 C 
HETATM   19  O3  UNK     1      15.226   7.598  31.169  1.00  0.00    -0.293 OA
ENDBRANCH   5  17
TORSDOF 3
ENDMDL
MODEL 7
REMARK VINA RESULT:      -7.0      8.159     10.811
REMARK  3 active torsions:
REMARK  status: ('A' for Active; 'I' for Inactive)
REMARK    1  A    between atoms: C13_18  and  O2_2 
REMARK    2  A    between atoms: C5_10  and  O2_2 
REMARK    3  A    between atoms: C3_8  and  C9_14 
ROOT
HETATM    1  O1  UNK     1      24.080  -8.355  37.532  1.00  0.00    -0.274 OA
HETATM    2  O4  UNK     1      26.330  -8.504  37.911  1.00  0.00    -0.260 OA
HETATM    3  C1  UNK     1      22.947 -10.163  36.341  1.00  0.00     0.005 A 
HETATM    4  C2  UNK     1      22.912  -8.928  36.989  1.00  0.00     0.106 A 
HETATM    5  C3  UNK     1      21.731  -8.197  37.137  1.00  0.00     0.078 A 
HETATM    6  C4  UNK     1      24.235 -10.863  36.231  1.00  0.00    -0.043 A 
HETATM    7  C5  UNK     1      20.545  -8.711  36.623  1.00  0.00     0.095 A 
HETATM    8  C6  UNK     1      21.743 -10.664  35.830  1.00  0.00     0.017 A 
HETATM    9  C7  UNK     1      20.551  -9.943  35.970  1.00  0.00     0.039 A 
HETATM   10  C8  UNK     1      25.329 -10.295  36.756  1.00  0.00     0.090 A 
HETATM   11  C10 UNK     1      24.306 -12.193  35.539  1.00  0.00     0.049 C 
HETATM   12  C11 UNK     1      25.308  -8.993  37.444  1.00  0.00     0.288 A 
ENDROOT
BRANCH   7  13
HETATM   13  O2  UNK     1      19.371  -8.032  36.748  1.00  0.00    -0.278 OA
BRANCH  13  14
HETATM   14  C13 UNK     1      18.954  -7.389  35.571  1.00  0.00     0.260 C 
HETATM   15  C14 UNK     1      17.471  -7.543  35.401  1.00  0.00     0.126 C 
HETATM   16  O5  UNK     1      19.678  -6.786  34.789  1.00  0.00    -0.265 OA
ENDBRANCH  13  14
ENDBRANCH   7  13
BRANCH   5  17
HETATM   17  C9  UNK     1      21.732  -6.910  37.822  1.00  0.00     0.161 C 
HETATM   18  C12 UNK     1      21.585  -6.849  39.336  1.00  0.00     0.097 C 
HETATM   19  O3  UNK     1      21.852  -5.842  37.192  1.00  0.00    -0.293 OA
ENDBRANCH   5  17
TORSDOF 3
ENDMDL
MODEL 8
REMARK VINA RESULT:      -6.9      2.709      4.778
REMARK  3 active torsions:
REMARK  status: ('A' for Active; 'I' for Inactive)
REMARK    1  A    between atoms: C13_18  and  O2_2 
REMARK    2  A    between atoms: C5_10  and  O2_2 
REMARK    3  A    between atoms: C3_8  and  C9_14 
ROOT
HETATM    1  O1  UNK     1      18.962   4.376  30.596  1.00  0.00    -0.274 OA
HETATM    2  O4  UNK     1      19.421   6.274  29.406  1.00  0.00    -0.260 OA
HETATM    3  C1  UNK     1      18.602   4.535  33.007  1.00  0.00     0.005 A 
HETATM    4  C2  UNK     1      18.679   3.775  31.839  1.00  0.00     0.106 A 
HETATM    5  C3  UNK     1      18.483   2.393  31.835  1.00  0.00     0.078 A 
HETATM    6  C4  UNK     1      18.824   5.985  32.919  1.00  0.00    -0.043 A 
HETATM    7  C5  UNK     1      18.200   1.743  33.031  1.00  0.00     0.095 A 
HETATM    8  C6  UNK     1      18.317   3.862  34.203  1.00  0.00     0.017 A 
HETATM    9  C7  UNK     1      18.118   2.477  34.214  1.00  0.00     0.039 A 
HETATM   10  C8  UNK     1      19.090   6.529  31.723  1.00  0.00     0.090 A 
HETATM   11  C10 UNK     1      18.748   6.829  34.157  1.00  0.00     0.049 C 
HETATM   12  C11 UNK     1      19.174   5.741  30.482  1.00  0.00     0.288 A 
ENDROOT
BRANCH   7  13
HETATM   13  O2  UNK     1      18.000   0.396  33.071  1.00  0.00    -0.278 OA
BRANCH  13  14
HETATM   14  C13 UNK     1      18.148  -0.167  34.348  1.00  0.00     0.260 C 
HETATM   15  C14 UNK     1      16.807  -0.569  34.890  1.00  0.00     0.126 C 
HETATM   16  O5  UNK     1      19.205  -0.319  34.947  1.00  0.00    -0.265 OA
ENDBRANCH  13  14
ENDBRANCH   7  13
BRANCH   5  17
HETATM   17  C9  UNK     1      18.570   1.631  30.594  1.00  0.00     0.161 C 
HETATM   18  C12 UNK     1      19.818   0.818  30.281  1.00  0.00     0.097 C 
HETATM   19  O3  UNK     1      17.635   1.627  29.770  1.00  0.00    -0.293 OA
ENDBRANCH   5  17
TORSDOF 3
ENDMDL
MODEL 9
REMARK VINA RESULT:      -6.9     24.002     26.142
REMARK  3 active torsions:
REMARK  status: ('A' for Active; 'I' for Inactive)
REMARK    1  A    between atoms: C13_18  and  O2_2 
REMARK    2  A    between atoms: C5_10  and  O2_2 
REMARK    3  A    between atoms: C3_8  and  C9_14 
ROOT
HETATM    1  O1  UNK     1      10.129   8.225   9.602  1.00  0.00    -0.274 OA
HETATM    2  O4  UNK     1       7.850   8.196   9.792  1.00  0.00    -0.260 OA
HETATM    3  C1  UNK     1      11.185   7.087   7.717  1.00  0.00     0.005 A 
HETATM    4  C2  UNK     1      11.280   7.841   8.886  1.00  0.00     0.106 A 
HETATM    5  C3  UNK     1      12.508   8.256   9.407  1.00  0.00     0.078 A 
HETATM    6  C4  UNK     1       9.852   6.693   7.240  1.00  0.00    -0.043 A 
HETATM    7  C5  UNK     1      13.680   7.909   8.744  1.00  0.00     0.095 A 
HETATM    8  C6  UNK     1      12.377   6.746   7.063  1.00  0.00     0.017 A 
HETATM    9  C7  UNK     1      13.615   7.155   7.573  1.00  0.00     0.039 A 
HETATM   10  C8  UNK     1       8.774   7.071   7.941  1.00  0.00     0.090 A 
HETATM   11  C10 UNK     1       9.716   5.880   5.986  1.00  0.00     0.049 C 
HETATM   12  C11 UNK     1       8.859   7.869   9.177  1.00  0.00     0.288 A 
ENDROOT
BRANCH   7  13
HETATM   13  O2  UNK     1      14.898   8.295   9.218  1.00  0.00    -0.278 OA
BRANCH  13  14
HETATM   14  C13 UNK     1      15.518   7.346  10.045  1.00  0.00     0.260 C 
HETATM   15  C14 UNK     1      16.981   7.653  10.170  1.00  0.00     0.126 C 
HETATM   16  O5  UNK     1      14.963   6.401  10.592  1.00  0.00    -0.265 OA
ENDBRANCH  13  14
ENDBRANCH   7  13
BRANCH   5  17
HETATM   17  C9  UNK     1      12.569   9.046  10.632  1.00  0.00     0.161 C 
HETATM   18  C12 UNK     1      12.573  10.567  10.562  1.00  0.00     0.097 C 
HETATM   19  O3  UNK     1      12.618   8.502  11.751  1.00  0.00    -0.293 OA
ENDBRANCH   5  17
TORSDOF 3
ENDMDL
MODEL 10
REMARK VINA RESULT:      -6.9      5.238      9.722
REMARK  3 active torsions:
REMARK  status: ('A' for Active; 'I' for Inactive)
REMARK    1  A    between atoms: C13_18  and  O2_2 
REMARK    2  A    between atoms: C5_10  and  O2_2 
REMARK    3  A    between atoms: C3_8  and  C9_14 
ROOT
HETATM    1  O1  UNK     1      19.202  -8.562  38.030  1.00  0.00    -0.274 OA
HETATM    2  O4  UNK     1      19.065 -10.688  38.860  1.00  0.00    -0.260 OA
HETATM    3  C1  UNK     1      21.122  -7.171  38.619  1.00  0.00     0.005 A 
HETATM    4  C2  UNK     1      19.912  -7.347  37.947  1.00  0.00     0.106 A 
HETATM    5  C3  UNK     1      19.341  -6.343  37.162  1.00  0.00     0.078 A 
HETATM    6  C4  UNK     1      21.648  -8.282  39.423  1.00  0.00    -0.043 A 
HETATM    7  C5  UNK     1      19.996  -5.121  37.041  1.00  0.00     0.095 A 
HETATM    8  C6  UNK     1      21.766  -5.933  38.485  1.00  0.00     0.017 A 
HETATM    9  C7  UNK     1      21.206  -4.917  37.702  1.00  0.00     0.039 A 
HETATM   10  C8  UNK     1      20.952  -9.426  39.484  1.00  0.00     0.090 A 
HETATM   11  C10 UNK     1      22.947  -8.124  40.158  1.00  0.00     0.049 C 
HETATM   12  C11 UNK     1      19.674  -9.628  38.779  1.00  0.00     0.288 A 
ENDROOT
BRANCH   7  13
HETATM   13  O2  UNK     1      19.475  -4.115  36.284  1.00  0.00    -0.278 OA
BRANCH  13  14
HETATM   14  C13 UNK     1      19.766  -2.829  36.763  1.00  0.00     0.260 C 
HETATM   15  C14 UNK     1      20.594  -2.082  35.759  1.00  0.00     0.126 C 
HETATM   16  O5  UNK     1      19.406  -2.366  37.838  1.00  0.00    -0.265 OA
ENDBRANCH  13  14
ENDBRANCH   7  13
BRANCH   5  17
HETATM   17  C9  UNK     1      18.075  -6.563  36.473  1.00  0.00     0.161 C 
HETATM   18  C12 UNK     1      18.043  -7.335  35.161  1.00  0.00     0.097 C 
HETATM   19  O3  UNK     1      17.003  -6.131  36.936  1.00  0.00    -0.293 OA
ENDBRANCH   5  17
TORSDOF 3
ENDMDL
