MODEL 1
REMARK VINA RESULT:      -9.3      0.000      0.000
REMARK  2 active torsions:
REMARK  status: ('A' for Active; 'I' for Inactive)
REMARK       I    between atoms: C6_11  and  N1_5 
REMARK    1  A    between atoms: C9_14  and  N1_5 
REMARK    2  A    between atoms: C2_7  and  C6_11 
ROOT
HETATM    1  O1  UNK     1      19.497  -1.278  34.752  1.00  0.00    -0.274 OA
HETATM    2  O3  UNK     1      20.669  -3.184  34.286  1.00  0.00    -0.259 OA
HETATM    3  C1  UNK     1      18.498  -0.989  36.949  1.00  0.00    -0.001 A 
HETATM    4  C2  UNK     1      19.741  -3.010  36.459  1.00  0.00     0.108 A 
HETATM    5  C3  UNK     1      18.746  -0.514  35.665  1.00  0.00     0.089 A 
HETATM    6  C4  UNK     1      19.028  -2.288  37.332  1.00  0.00     0.037 A 
HETATM    7  C5  UNK     1      17.749  -0.201  37.827  1.00  0.00     0.014 A 
HETATM    8  C7  UNK     1      20.016  -2.524  35.089  1.00  0.00     0.304 A 
HETATM    9  C8  UNK     1      18.266   0.723  35.235  1.00  0.00     0.038 A 
HETATM   10  C10 UNK     1      17.262   1.041  37.409  1.00  0.00     0.001 A 
HETATM   11  C11 UNK     1      17.520   1.502  36.116  1.00  0.00     0.003 A 
ENDROOT
BRANCH   4  12
HETATM   12  C6  UNK     1      20.231  -4.307  36.939  1.00  0.00     0.262 C 
HETATM   13  O2  UNK     1      21.441  -4.500  37.052  1.00  0.00    -0.267 OA
HETATM   14  N1  UNK     1      19.195  -5.190  37.213  1.00  0.00    -0.321 N 
HETATM   15  H4  UNK     1      18.239  -4.885  37.047  1.00  0.00     0.169 HD
BRANCH  14  16
HETATM   16  C9  UNK     1      19.296  -6.520  37.688  1.00  0.00     0.056 A 
HETATM   17  C12 UNK     1      18.829  -7.582  36.930  1.00  0.00     0.060 A 
HETATM   18 Cl1  UNK     1      18.103  -7.356  35.379  1.00  0.00    -0.082 Cl
HETATM   19  C14 UNK     1      18.942  -8.880  37.429  1.00  0.00     0.026 A 
HETATM   20  C16 UNK     1      19.522  -9.099  38.678  1.00  0.00     0.002 A 
HETATM   21  C15 UNK     1      19.988  -8.020  39.430  1.00  0.00     0.002 A 
HETATM   22  C13 UNK     1      19.874  -6.723  38.932  1.00  0.00     0.031 A 
ENDBRANCH  14  16
ENDBRANCH   4  12
TORSDOF 2
ENDMDL
MODEL 2
REMARK VINA RESULT:      -9.2      7.336     10.951
REMARK  2 active torsions:
REMARK  status: ('A' for Active; 'I' for Inactive)
REMARK       I    between atoms: C6_11  and  N1_5 
REMARK    1  A    between atoms: C9_14  and  N1_5 
REMARK    2  A    between atoms: C2_7  and  C6_11 
ROOT
HETATM    1  O1  UNK     1      18.799   0.303  32.861  1.00  0.00    -0.274 OA
HETATM    2  O3  UNK     1      17.940   1.916  34.234  1.00  0.00    -0.259 OA
HETATM    3  C1  UNK     1      19.360   0.858  30.562  1.00  0.00    -0.001 A 
HETATM    4  C2  UNK     1      18.450   2.570  32.015  1.00  0.00     0.108 A 
HETATM    5  C3  UNK     1      19.289  -0.070  31.596  1.00  0.00     0.089 A 
HETATM    6  C4  UNK     1      18.917   2.221  30.810  1.00  0.00     0.037 A 
HETATM    7  C5  UNK     1      19.853   0.448  29.320  1.00  0.00     0.014 A 
HETATM    8  C7  UNK     1      18.368   1.599  33.128  1.00  0.00     0.304 A 
HETATM    9  C8  UNK     1      19.698  -1.393  31.424  1.00  0.00     0.038 A 
HETATM   10  C10 UNK     1      20.266  -0.874  29.134  1.00  0.00     0.001 A 
HETATM   11  C11 UNK     1      20.188  -1.792  30.183  1.00  0.00     0.003 A 
ENDROOT
BRANCH   4  12
HETATM   12  C6  UNK     1      18.027   3.967  32.166  1.00  0.00     0.262 C 
HETATM   13  O2  UNK     1      17.182   4.435  31.405  1.00  0.00    -0.267 OA
HETATM   14  N1  UNK     1      18.684   4.604  33.211  1.00  0.00    -0.321 N 
HETATM   15  H4  UNK     1      19.379   4.081  33.739  1.00  0.00     0.169 HD
BRANCH  14  16
HETATM   16  C9  UNK     1      18.529   5.944  33.641  1.00  0.00     0.056 A 
HETATM   17  C12 UNK     1      19.563   6.856  33.509  1.00  0.00     0.060 A 
HETATM   18 Cl1  UNK     1      21.088   6.425  32.823  1.00  0.00    -0.082 Cl
HETATM   19  C14 UNK     1      19.376   8.168  33.945  1.00  0.00     0.026 A 
HETATM   20  C16 UNK     1      18.158   8.550  34.506  1.00  0.00     0.002 A 
HETATM   21  C15 UNK     1      17.125   7.621  34.631  1.00  0.00     0.002 A 
HETATM   22  C13 UNK     1      17.312   6.309  34.196  1.00  0.00     0.031 A 
ENDBRANCH  14  16
ENDBRANCH   4  12
TORSDOF 2
ENDMDL
MODEL 3
REMARK VINA RESULT:      -9.2      7.991     11.315
REMARK  2 active torsions:
REMARK  status: ('A' for Active; 'I' for Inactive)
REMARK       I    between atoms: C6_11  and  N1_5 
REMARK    1  A    between atoms: C9_14  and  N1_5 
REMARK    2  A    between atoms: C2_7  and  C6_11 
ROOT
HETATM    1  O1  UNK     1      19.189   1.458  28.841  1.00  0.00    -0.274 OA
HETATM    2  O3  UNK     1      18.360   3.579  29.030  1.00  0.00    -0.259 OA
HETATM    3  C1  UNK     1      19.565   0.133  30.843  1.00  0.00    -0.001 A 
HETATM    4  C2  UNK     1      18.685   2.381  31.048  1.00  0.00     0.108 A 
HETATM    5  C3  UNK     1      19.608   0.264  29.460  1.00  0.00     0.089 A 
HETATM    6  C4  UNK     1      19.081   1.249  31.642  1.00  0.00     0.037 A 
HETATM    7  C5  UNK     1      19.990  -1.068  31.420  1.00  0.00     0.014 A 
HETATM    8  C7  UNK     1      18.722   2.542  29.578  1.00  0.00     0.304 A 
HETATM    9  C8  UNK     1      20.061  -0.767  28.638  1.00  0.00     0.038 A 
HETATM   10  C10 UNK     1      20.446  -2.110  30.609  1.00  0.00     0.001 A 
HETATM   11  C11 UNK     1      20.482  -1.960  29.221  1.00  0.00     0.003 A 
ENDROOT
BRANCH   4  12
HETATM   12  C6  UNK     1      18.214   3.449  31.938  1.00  0.00     0.262 C 
HETATM   13  O2  UNK     1      17.613   3.162  32.972  1.00  0.00    -0.267 OA
HETATM   14  N1  UNK     1      18.532   4.711  31.455  1.00  0.00    -0.321 N 
HETATM   15  H4  UNK     1      19.019   4.783  30.564  1.00  0.00     0.169 HD
BRANCH  14  16
HETATM   16  C9  UNK     1      18.236   5.963  32.047  1.00  0.00     0.056 A 
HETATM   17  C12 UNK     1      19.236   6.730  32.620  1.00  0.00     0.060 A 
HETATM   18 Cl1  UNK     1      20.886   6.219  32.652  1.00  0.00    -0.082 Cl
HETATM   19  C14 UNK     1      18.910   7.958  33.197  1.00  0.00     0.026 A 
HETATM   20  C16 UNK     1      17.588   8.402  33.191  1.00  0.00     0.002 A 
HETATM   21  C15 UNK     1      16.592   7.619  32.609  1.00  0.00     0.002 A 
HETATM   22  C13 UNK     1      16.917   6.391  32.033  1.00  0.00     0.031 A 
ENDBRANCH  14  16
ENDBRANCH   4  12
TORSDOF 2
ENDMDL
MODEL 4
REMARK VINA RESULT:      -9.1     19.650     21.985
REMARK  2 active torsions:
REMARK  status: ('A' for Active; 'I' for Inactive)
REMARK       I    between atoms: C6_11  and  N1_5 
REMARK    1  A    between atoms: C9_14  and  N1_5 
REMARK    2  A    between atoms: C2_7  and  C6_11 
ROOT
HETATM    1  O1  UNK     1      19.840  -2.524  13.146  1.00  0.00    -0.274 OA
HETATM    2  O3  UNK     1      19.401  -0.457  14.019  1.00  0.00    -0.259 OA
HETATM    3  C1  UNK     1      19.338  -4.510  14.454  1.00  0.00    -0.001 A 
HETATM    4  C2  UNK     1      18.870  -2.321  15.382  1.00  0.00     0.108 A 
HETATM    5  C3  UNK     1      19.822  -3.924  13.289  1.00  0.00     0.089 A 
HETATM    6  C4  UNK     1      18.850  -3.652  15.523  1.00  0.00     0.037 A 
HETATM    7  C5  UNK     1      19.336  -5.904  14.558  1.00  0.00     0.014 A 
HETATM    8  C7  UNK     1      19.381  -1.677  14.151  1.00  0.00     0.304 A 
HETATM    9  C8  UNK     1      20.304  -4.690  12.228  1.00  0.00     0.038 A 
HETATM   10  C10 UNK     1      19.815  -6.684  13.501  1.00  0.00     0.001 A 
HETATM   11  C11 UNK     1      20.299  -6.078  12.340  1.00  0.00     0.003 A 
ENDROOT
BRANCH   4  12
HETATM   12  C6  UNK     1      18.358  -1.541  16.515  1.00  0.00     0.262 C 
HETATM   13  O2  UNK     1      17.237  -1.777  16.962  1.00  0.00    -0.267 OA
HETATM   14  N1  UNK     1      19.269  -0.586  16.947  1.00  0.00    -0.321 N 
HETATM   15  H4  UNK     1      20.155  -0.501  16.454  1.00  0.00     0.169 HD
BRANCH  14  16
HETATM   16  C9  UNK     1      19.113   0.338  18.008  1.00  0.00     0.056 A 
HETATM   17  C12 UNK     1      19.123   1.703  17.768  1.00  0.00     0.060 A 
HETATM   18 Cl1  UNK     1      19.325   2.357  16.182  1.00  0.00    -0.082 Cl
HETATM   19  C14 UNK     1      18.969   2.586  18.837  1.00  0.00     0.026 A 
HETATM   20  C16 UNK     1      18.805   2.093  20.131  1.00  0.00     0.002 A 
HETATM   21  C15 UNK     1      18.796   0.717  20.357  1.00  0.00     0.002 A 
HETATM   22  C13 UNK     1      18.951  -0.166  19.289  1.00  0.00     0.031 A 
ENDBRANCH  14  16
ENDBRANCH   4  12
TORSDOF 2
ENDMDL
MODEL 5
REMARK VINA RESULT:      -9.0      7.509      9.225
REMARK  2 active torsions:
REMARK  status: ('A' for Active; 'I' for Inactive)
REMARK       I    between atoms: C6_11  and  N1_5 
REMARK    1  A    between atoms: C9_14  and  N1_5 
REMARK    2  A    between atoms: C2_7  and  C6_11 
ROOT
HETATM    1  O1  UNK     1      19.214   6.501  31.343  1.00  0.00    -0.274 OA
HETATM    2  O3  UNK     1      19.752   5.002  29.704  1.00  0.00    -0.259 OA
HETATM    3  C1  UNK     1      17.798   5.803  33.191  1.00  0.00    -0.001 A 
HETATM    4  C2  UNK     1      18.368   4.210  31.457  1.00  0.00     0.108 A 
HETATM    5  C3  UNK     1      18.541   6.786  32.546  1.00  0.00     0.089 A 
HETATM    6  C4  UNK     1      17.727   4.475  32.601  1.00  0.00     0.037 A 
HETATM    7  C5  UNK     1      17.145   6.125  34.385  1.00  0.00     0.014 A 
HETATM    8  C7  UNK     1      19.164   5.241  30.755  1.00  0.00     0.304 A 
HETATM    9  C8  UNK     1      18.650   8.079  33.059  1.00  0.00     0.038 A 
HETATM   10  C10 UNK     1      17.246   7.416  34.910  1.00  0.00     0.001 A 
HETATM   11  C11 UNK     1      17.996   8.391  34.248  1.00  0.00     0.003 A 
ENDROOT
BRANCH   4  12
HETATM   12  C6  UNK     1      18.234   2.843  30.941  1.00  0.00     0.262 C 
HETATM   13  O2  UNK     1      17.164   2.473  30.460  1.00  0.00    -0.267 OA
HETATM   14  N1  UNK     1      19.408   2.114  31.080  1.00  0.00    -0.321 N 
HETATM   15  H4  UNK     1      20.208   2.560  31.522  1.00  0.00     0.169 HD
BRANCH  14  16
HETATM   16  C9  UNK     1      19.641   0.771  30.696  1.00  0.00     0.056 A 
HETATM   17  C12 UNK     1      19.375  -0.273  31.567  1.00  0.00     0.060 A 
HETATM   18 Cl1  UNK     1      18.751  -0.009  33.156  1.00  0.00    -0.082 Cl
HETATM   19  C14 UNK     1      19.618  -1.584  31.157  1.00  0.00     0.026 A 
HETATM   20  C16 UNK     1      20.123  -1.834  29.882  1.00  0.00     0.002 A 
HETATM   21  C15 UNK     1      20.386  -0.773  29.015  1.00  0.00     0.002 A 
HETATM   22  C13 UNK     1      20.144   0.538  29.425  1.00  0.00     0.031 A 
ENDBRANCH  14  16
ENDBRANCH   4  12
TORSDOF 2
ENDMDL
MODEL 6
REMARK VINA RESULT:      -9.0      6.919      8.784
REMARK  2 active torsions:
REMARK  status: ('A' for Active; 'I' for Inactive)
REMARK       I    between atoms: C6_11  and  N1_5 
REMARK    1  A    between atoms: C9_14  and  N1_5 
REMARK    2  A    between atoms: C2_7  and  C6_11 
ROOT
HETATM    1  O1  UNK     1      18.000   4.408  34.163  1.00  0.00    -0.274 OA
HETATM    2  O3  UNK     1      18.337   2.157  33.959  1.00  0.00    -0.259 OA
HETATM    3  C1  UNK     1      17.750   5.769  32.165  1.00  0.00    -0.001 A 
HETATM    4  C2  UNK     1      18.105   3.383  31.945  1.00  0.00     0.108 A 
HETATM    5  C3  UNK     1      17.798   5.659  33.550  1.00  0.00     0.089 A 
HETATM    6  C4  UNK     1      17.913   4.570  31.358  1.00  0.00     0.037 A 
HETATM    7  C5  UNK     1      17.546   7.029  31.595  1.00  0.00     0.014 A 
HETATM    8  C7  UNK     1      18.160   3.243  33.418  1.00  0.00     0.304 A 
HETATM    9  C8  UNK     1      17.649   6.770  34.380  1.00  0.00     0.038 A 
HETATM   10  C10 UNK     1      17.395   8.151  32.414  1.00  0.00     0.001 A 
HETATM   11  C11 UNK     1      17.447   8.022  33.804  1.00  0.00     0.003 A 
ENDROOT
BRANCH   4  12
HETATM   12  C6  UNK     1      18.260   2.233  31.047  1.00  0.00     0.262 C 
HETATM   13  O2  UNK     1      17.512   2.109  30.079  1.00  0.00    -0.267 OA
HETATM   14  N1  UNK     1      19.292   1.393  31.445  1.00  0.00    -0.321 N 
HETATM   15  H4  UNK     1      19.810   1.624  32.289  1.00  0.00     0.169 HD
BRANCH  14  16
HETATM   16  C9  UNK     1      19.722   0.197  30.820  1.00  0.00     0.056 A 
HETATM   17  C12 UNK     1      19.607  -1.022  31.468  1.00  0.00     0.060 A 
HETATM   18 Cl1  UNK     1      18.945  -1.162  33.058  1.00  0.00    -0.082 Cl
HETATM   19  C14 UNK     1      20.042  -2.182  30.825  1.00  0.00     0.026 A 
HETATM   20  C16 UNK     1      20.584  -2.106  29.542  1.00  0.00     0.002 A 
HETATM   21  C15 UNK     1      20.691  -0.872  28.902  1.00  0.00     0.002 A 
HETATM   22  C13 UNK     1      20.258   0.287  29.545  1.00  0.00     0.031 A 
ENDBRANCH  14  16
ENDBRANCH   4  12
TORSDOF 2
ENDMDL
MODEL 7
REMARK VINA RESULT:      -8.9      1.928      7.103
REMARK  2 active torsions:
REMARK  status: ('A' for Active; 'I' for Inactive)
REMARK       I    between atoms: C6_11  and  N1_5 
REMARK    1  A    between atoms: C9_14  and  N1_5 
REMARK    2  A    between atoms: C2_7  and  C6_11 
ROOT
HETATM    1  O1  UNK     1      20.055  -7.737  35.742  1.00  0.00    -0.274 OA
HETATM    2  O3  UNK     1      20.220  -5.730  34.662  1.00  0.00    -0.259 OA
HETATM    3  C1  UNK     1      19.882  -7.786  38.166  1.00  0.00    -0.001 A 
HETATM    4  C2  UNK     1      20.056  -5.656  37.024  1.00  0.00     0.108 A 
HETATM    5  C3  UNK     1      19.939  -8.454  36.948  1.00  0.00     0.089 A 
HETATM    6  C4  UNK     1      19.945  -6.332  38.174  1.00  0.00     0.037 A 
HETATM    7  C5  UNK     1      19.766  -8.533  39.341  1.00  0.00     0.014 A 
HETATM    8  C7  UNK     1      20.118  -6.347  35.718  1.00  0.00     0.304 A 
HETATM    9  C8  UNK     1      19.884  -9.846  36.871  1.00  0.00     0.038 A 
HETATM   10  C10 UNK     1      19.709  -9.928  39.279  1.00  0.00     0.001 A 
HETATM   11  C11 UNK     1      19.769 -10.583  38.047  1.00  0.00     0.003 A 
ENDROOT
BRANCH   4  12
HETATM   12  C6  UNK     1      20.113  -4.193  37.136  1.00  0.00     0.262 C 
HETATM   13  O2  UNK     1      21.099  -3.657  37.639  1.00  0.00    -0.267 OA
HETATM   14  N1  UNK     1      18.973  -3.584  36.629  1.00  0.00    -0.321 N 
HETATM   15  H4  UNK     1      18.229  -4.173  36.262  1.00  0.00     0.169 HD
BRANCH  14  16
HETATM   16  C9  UNK     1      18.685  -2.199  36.573  1.00  0.00     0.056 A 
HETATM   17  C12 UNK     1      19.045  -1.444  35.469  1.00  0.00     0.060 A 
HETATM   18 Cl1  UNK     1      19.858  -2.131  34.108  1.00  0.00    -0.082 Cl
HETATM   19  C14 UNK     1      18.749  -0.080  35.447  1.00  0.00     0.026 A 
HETATM   20  C16 UNK     1      18.094   0.508  36.529  1.00  0.00     0.002 A 
HETATM   21  C15 UNK     1      17.737  -0.265  37.633  1.00  0.00     0.002 A 
HETATM   22  C13 UNK     1      18.035  -1.628  37.655  1.00  0.00     0.031 A 
ENDBRANCH  14  16
ENDBRANCH   4  12
TORSDOF 2
ENDMDL
MODEL 8
REMARK VINA RESULT:      -8.7     19.999     22.251
REMARK  2 active torsions:
REMARK  status: ('A' for Active; 'I' for Inactive)
REMARK       I    between atoms: C6_11  and  N1_5 
REMARK    1  A    between atoms: C9_14  and  N1_5 
REMARK    2  A    between atoms: C2_7  and  C6_11 
ROOT
HETATM    1  O1  UNK     1      18.608  -4.242  13.825  1.00  0.00    -0.274 OA
HETATM    2  O3  UNK     1      17.534  -4.299  15.842  1.00  0.00    -0.259 OA
HETATM    3  C1  UNK     1      19.692  -2.192  13.100  1.00  0.00    -0.001 A 
HETATM    4  C2  UNK     1      18.555  -2.248  15.239  1.00  0.00     0.108 A 
HETATM    5  C3  UNK     1      19.352  -3.521  12.873  1.00  0.00     0.089 A 
HETATM    6  C4  UNK     1      19.264  -1.558  14.337  1.00  0.00     0.037 A 
HETATM    7  C5  UNK     1      20.432  -1.509  12.130  1.00  0.00     0.014 A 
HETATM    8  C7  UNK     1      18.184  -3.663  15.018  1.00  0.00     0.304 A 
HETATM    9  C8  UNK     1      19.731  -4.187  11.707  1.00  0.00     0.038 A 
HETATM   10  C10 UNK     1      20.819  -2.164  10.958  1.00  0.00     0.001 A 
HETATM   11  C11 UNK     1      20.469  -3.500  10.747  1.00  0.00     0.003 A 
ENDROOT
BRANCH   4  12
HETATM   12  C6  UNK     1      18.170  -1.522  16.454  1.00  0.00     0.262 C 
HETATM   13  O2  UNK     1      17.103  -1.782  17.009  1.00  0.00    -0.267 OA
HETATM   14  N1  UNK     1      19.122  -0.583  16.828  1.00  0.00    -0.321 N 
HETATM   15  H4  UNK     1      19.950  -0.472  16.247  1.00  0.00     0.169 HD
BRANCH  14  16
HETATM   16  C9  UNK     1      19.083   0.292  17.940  1.00  0.00     0.056 A 
HETATM   17  C12 UNK     1      19.129   1.666  17.764  1.00  0.00     0.060 A 
HETATM   18 Cl1  UNK     1      19.239   2.390  16.200  1.00  0.00    -0.082 Cl
HETATM   19  C14 UNK     1      19.090   2.500  18.882  1.00  0.00     0.026 A 
HETATM   20  C16 UNK     1      19.003   1.949  20.160  1.00  0.00     0.002 A 
HETATM   21  C15 UNK     1      18.956   0.565  20.322  1.00  0.00     0.002 A 
HETATM   22  C13 UNK     1      18.996  -0.269  19.205  1.00  0.00     0.031 A 
ENDBRANCH  14  16
ENDBRANCH   4  12
TORSDOF 2
ENDMDL
MODEL 9
REMARK VINA RESULT:      -8.6     19.598     21.248
REMARK  2 active torsions:
REMARK  status: ('A' for Active; 'I' for Inactive)
REMARK       I    between atoms: C6_11  and  N1_5 
REMARK    1  A    between atoms: C9_14  and  N1_5 
REMARK    2  A    between atoms: C2_7  and  C6_11 
ROOT
HETATM    1  O1  UNK     1      19.351   1.238  15.633  1.00  0.00    -0.274 OA
HETATM    2  O3  UNK     1      19.425  -0.281  13.927  1.00  0.00    -0.259 OA
HETATM    3  C1  UNK     1      18.919   0.476  17.900  1.00  0.00    -0.001 A 
HETATM    4  C2  UNK     1      18.997  -1.137  16.094  1.00  0.00     0.108 A 
HETATM    5  C3  UNK     1      19.176   1.508  17.003  1.00  0.00     0.089 A 
HETATM    6  C4  UNK     1      18.831  -0.886  17.398  1.00  0.00     0.037 A 
HETATM    7  C5  UNK     1      18.752   0.785  19.253  1.00  0.00     0.014 A 
HETATM    8  C7  UNK     1      19.273  -0.055  15.123  1.00  0.00     0.304 A 
HETATM    9  C8  UNK     1      19.272   2.835  17.419  1.00  0.00     0.038 A 
HETATM   10  C10 UNK     1      18.846   2.111  19.684  1.00  0.00     0.001 A 
HETATM   11  C11 UNK     1      19.105   3.134  18.769  1.00  0.00     0.003 A 
ENDROOT
BRANCH   4  12
HETATM   12  C6  UNK     1      18.890  -2.542  15.686  1.00  0.00     0.262 C 
HETATM   13  O2  UNK     1      17.827  -3.143  15.837  1.00  0.00    -0.267 OA
HETATM   14  N1  UNK     1      20.079  -3.026  15.155  1.00  0.00    -0.321 N 
HETATM   15  H4  UNK     1      20.882  -2.404  15.116  1.00  0.00     0.169 HD
BRANCH  14  16
HETATM   16  C9  UNK     1      20.339  -4.328  14.663  1.00  0.00     0.056 A 
HETATM   17  C12 UNK     1      19.965  -4.689  13.379  1.00  0.00     0.060 A 
HETATM   18 Cl1  UNK     1      19.167  -3.591  12.310  1.00  0.00    -0.082 Cl
HETATM   19  C14 UNK     1      20.235  -5.981  12.926  1.00  0.00     0.026 A 
HETATM   20  C16 UNK     1      20.876  -6.893  13.763  1.00  0.00     0.002 A 
HETATM   21  C15 UNK     1      21.247  -6.516  15.053  1.00  0.00     0.002 A 
HETATM   22  C13 UNK     1      20.977  -5.225  15.506  1.00  0.00     0.031 A 
ENDBRANCH  14  16
ENDBRANCH   4  12
TORSDOF 2
ENDMDL
MODEL 10
REMARK VINA RESULT:      -8.5      4.651      6.990
REMARK  2 active torsions:
REMARK  status: ('A' for Active; 'I' for Inactive)
REMARK       I    between atoms: C6_11  and  N1_5 
REMARK    1  A    between atoms: C9_14  and  N1_5 
REMARK    2  A    between atoms: C2_7  and  C6_11 
ROOT
HETATM    1  O1  UNK     1      19.029   2.579  30.682  1.00  0.00    -0.274 OA
HETATM    2  O3  UNK     1      18.833   0.393  31.320  1.00  0.00    -0.259 OA
HETATM    3  C1  UNK     1      18.334   4.341  32.205  1.00  0.00    -0.001 A 
HETATM    4  C2  UNK     1      18.126   2.025  32.885  1.00  0.00     0.108 A 
HETATM    5  C3  UNK     1      18.859   3.944  30.980  1.00  0.00     0.089 A 
HETATM    6  C4  UNK     1      17.962   3.321  33.174  1.00  0.00     0.037 A 
HETATM    7  C5  UNK     1      18.181   5.706  32.464  1.00  0.00     0.014 A 
HETATM    8  C7  UNK     1      18.682   1.581  31.588  1.00  0.00     0.304 A 
HETATM    9  C8  UNK     1      19.235   4.871  30.008  1.00  0.00     0.038 A 
HETATM   10  C10 UNK     1      18.554   6.646  31.499  1.00  0.00     0.001 A 
HETATM   11  C11 UNK     1      19.079   6.229  30.273  1.00  0.00     0.003 A 
ENDROOT
BRANCH   4  12
HETATM   12  C6  UNK     1      17.720   1.073  33.926  1.00  0.00     0.262 C 
HETATM   13  O2  UNK     1      16.531   0.797  34.072  1.00  0.00    -0.267 OA
HETATM   14  N1  UNK     1      18.806   0.590  34.645  1.00  0.00    -0.321 N 
HETATM   15  H4  UNK     1      19.734   0.935  34.414  1.00  0.00     0.169 HD
BRANCH  14  16
HETATM   16  C9  UNK     1      18.789  -0.337  35.716  1.00  0.00     0.056 A 
HETATM   17  C12 UNK     1      18.213  -0.006  36.932  1.00  0.00     0.060 A 
HETATM   18 Cl1  UNK     1      17.488   1.536  37.218  1.00  0.00    -0.082 Cl
HETATM   19  C14 UNK     1      18.215  -0.942  37.966  1.00  0.00     0.026 A 
HETATM   20  C16 UNK     1      18.793  -2.196  37.771  1.00  0.00     0.002 A 
HETATM   21  C15 UNK     1      19.369  -2.515  36.542  1.00  0.00     0.002 A 
HETATM   22  C13 UNK     1      19.368  -1.579  35.507  1.00  0.00     0.031 A 
ENDBRANCH  14  16
ENDBRANCH   4  12
TORSDOF 2
ENDMDL
