MODEL 1
REMARK VINA RESULT:      -8.1      0.000      0.000
REMARK  1 active torsions:
REMARK  status: ('A' for Active; 'I' for Inactive)
REMARK       I    between atoms: C7_11  and  N1_4 
REMARK    1  A    between atoms: C7_11  and  C8_12 
ROOT
HETATM    1  O2  UNK     1      11.799   6.737   6.364  1.00  0.00    -0.274 OA
HETATM    2  O3  UNK     1      14.076   6.913   6.341  1.00  0.00    -0.259 OA
HETATM    3  C8  UNK     1      13.093   6.118   8.344  1.00  0.00     0.108 A 
HETATM    4  C9  UNK     1      11.975   5.795   9.006  1.00  0.00     0.037 A 
HETATM    5  C10 UNK     1      13.055   6.618   6.952  1.00  0.00     0.304 A 
HETATM    6  C11 UNK     1      10.677   5.930   8.364  1.00  0.00    -0.001 A 
HETATM    7  C12 UNK     1      10.618   6.399   7.056  1.00  0.00     0.089 A 
HETATM    8  C13 UNK     1       9.486   5.606   9.017  1.00  0.00     0.014 A 
HETATM    9  C14 UNK     1       9.408   6.552   6.384  1.00  0.00     0.038 A 
HETATM   10  C15 UNK     1       8.262   5.754   8.356  1.00  0.00     0.001 A 
HETATM   11  C16 UNK     1       8.224   6.225   7.042  1.00  0.00     0.003 A 
ENDROOT
BRANCH   3  12
HETATM   12  C7  UNK     1      14.361   5.945   9.081  1.00  0.00     0.260 C 
HETATM   13  N1  UNK     1      14.956   7.080   9.637  1.00  0.00    -0.344 N 
HETATM   14  C1  UNK     1      14.353   8.434   9.673  1.00  0.00     0.083 C 
HETATM   15  C5  UNK     1      16.215   6.912  10.374  1.00  0.00     0.126 C 
HETATM   16  C2  UNK     1      15.395   9.524   9.371  1.00  0.00     0.025 C 
HETATM   17  C6  UNK     1      13.633   8.676  11.002  1.00  0.00     0.032 C 
HETATM   18  C3  UNK     1      16.671   9.374  10.191  1.00  0.00     0.004 C 
HETATM   19  C4  UNK     1      17.246   7.975  10.016  1.00  0.00     0.020 C 
HETATM   20  O1  UNK     1      14.816   4.802   9.163  1.00  0.00    -0.267 OA
ENDBRANCH   3  12
TORSDOF 1
ENDMDL
MODEL 2
REMARK VINA RESULT:      -7.9      2.080      6.446
REMARK  1 active torsions:
REMARK  status: ('A' for Active; 'I' for Inactive)
REMARK       I    between atoms: C7_11  and  N1_4 
REMARK    1  A    between atoms: C7_11  and  C8_12 
ROOT
HETATM    1  O2  UNK     1      15.411   7.786  10.066  1.00  0.00    -0.274 OA
HETATM    2  O3  UNK     1      13.742   6.320  10.599  1.00  0.00    -0.259 OA
HETATM    3  C8  UNK     1      13.110   8.253   9.385  1.00  0.00     0.108 A 
HETATM    4  C9  UNK     1      13.486   9.396   8.801  1.00  0.00     0.037 A 
HETATM    5  C10 UNK     1      14.083   7.369  10.064  1.00  0.00     0.304 A 
HETATM    6  C11 UNK     1      14.883   9.805   8.820  1.00  0.00    -0.001 A 
HETATM    7  C12 UNK     1      15.814   8.989   9.453  1.00  0.00     0.089 A 
HETATM    8  C13 UNK     1      15.320  10.990   8.224  1.00  0.00     0.014 A 
HETATM    9  C14 UNK     1      17.166   9.322   9.507  1.00  0.00     0.038 A 
HETATM   10  C15 UNK     1      16.674  11.338   8.269  1.00  0.00     0.001 A 
HETATM   11  C16 UNK     1      17.593  10.505   8.909  1.00  0.00     0.003 A 
ENDROOT
BRANCH   3  12
HETATM   12  C7  UNK     1      11.671   7.926   9.311  1.00  0.00     0.260 C 
HETATM   13  N1  UNK     1      11.246   7.062   8.299  1.00  0.00    -0.344 N 
HETATM   14  C1  UNK     1      12.136   6.326   7.369  1.00  0.00     0.083 C 
HETATM   15  C5  UNK     1       9.817   6.732   8.225  1.00  0.00     0.126 C 
HETATM   16  C2  UNK     1      11.577   6.324   5.936  1.00  0.00     0.025 C 
HETATM   17  C6  UNK     1      12.414   4.912   7.883  1.00  0.00     0.032 C 
HETATM   18  C3  UNK     1      10.110   5.916   5.868  1.00  0.00     0.004 C 
HETATM   19  C4  UNK     1       9.279   6.788   6.800  1.00  0.00     0.020 C 
HETATM   20  O1  UNK     1      10.931   8.438  10.154  1.00  0.00    -0.267 OA
ENDBRANCH   3  12
TORSDOF 1
ENDMDL
MODEL 3
REMARK VINA RESULT:      -7.8      1.999      2.742
REMARK  1 active torsions:
REMARK  status: ('A' for Active; 'I' for Inactive)
REMARK       I    between atoms: C7_11  and  N1_4 
REMARK    1  A    between atoms: C7_11  and  C8_12 
ROOT
HETATM    1  O2  UNK     1      11.264   7.472   9.639  1.00  0.00    -0.274 OA
HETATM    2  O3  UNK     1      12.725   8.167  11.251  1.00  0.00    -0.259 OA
HETATM    3  C8  UNK     1      13.657   7.592   9.150  1.00  0.00     0.108 A 
HETATM    4  C9  UNK     1      13.450   7.161   7.900  1.00  0.00     0.037 A 
HETATM    5  C10 UNK     1      12.541   7.772  10.105  1.00  0.00     0.304 A 
HETATM    6  C11 UNK     1      12.104   6.856   7.442  1.00  0.00    -0.001 A 
HETATM    7  C12 UNK     1      11.040   7.018   8.323  1.00  0.00     0.089 A 
HETATM    8  C13 UNK     1      11.842   6.403   6.147  1.00  0.00     0.014 A 
HETATM    9  C14 UNK     1       9.727   6.743   7.948  1.00  0.00     0.038 A 
HETATM   10  C15 UNK     1      10.529   6.123   5.755  1.00  0.00     0.001 A 
HETATM   11  C16 UNK     1       9.475   6.293   6.654  1.00  0.00     0.003 A 
ENDROOT
BRANCH   3  12
HETATM   12  C7  UNK     1      15.059   7.876   9.519  1.00  0.00     0.260 C 
HETATM   13  N1  UNK     1      15.530   9.181   9.351  1.00  0.00    -0.344 N 
HETATM   14  C1  UNK     1      14.702  10.348   8.964  1.00  0.00     0.083 C 
HETATM   15  C5  UNK     1      16.922   9.467   9.720  1.00  0.00     0.126 C 
HETATM   16  C2  UNK     1      15.434  11.249   7.955  1.00  0.00     0.025 C 
HETATM   17  C6  UNK     1      14.238  11.122  10.200  1.00  0.00     0.032 C 
HETATM   18  C3  UNK     1      16.856  11.592   8.384  1.00  0.00     0.004 C 
HETATM   19  C4  UNK     1      17.637  10.318   8.678  1.00  0.00     0.020 C 
HETATM   20  O1  UNK     1      15.729   6.939   9.956  1.00  0.00    -0.267 OA
ENDBRANCH   3  12
TORSDOF 1
ENDMDL
MODEL 4
REMARK VINA RESULT:      -7.8     22.078     23.810
REMARK  1 active torsions:
REMARK  status: ('A' for Active; 'I' for Inactive)
REMARK       I    between atoms: C7_11  and  N1_4 
REMARK    1  A    between atoms: C7_11  and  C8_12 
ROOT
HETATM    1  O2  UNK     1      18.980   1.611  28.661  1.00  0.00    -0.274 OA
HETATM    2  O3  UNK     1      18.071   3.707  28.687  1.00  0.00    -0.259 OA
HETATM    3  C8  UNK     1      18.598   2.752  30.790  1.00  0.00     0.108 A 
HETATM    4  C9  UNK     1      19.089   1.708  31.468  1.00  0.00     0.037 A 
HETATM    5  C10 UNK     1      18.519   2.752  29.312  1.00  0.00     0.304 A 
HETATM    6  C11 UNK     1      19.564   0.530  30.758  1.00  0.00    -0.001 A 
HETATM    7  C12 UNK     1      19.498   0.509  29.369  1.00  0.00     0.089 A 
HETATM    8  C13 UNK     1      20.083  -0.582  31.425  1.00  0.00     0.014 A 
HETATM    9  C14 UNK     1      19.936  -0.588  28.630  1.00  0.00     0.038 A 
HETATM   10  C15 UNK     1      20.527  -1.691  30.697  1.00  0.00     0.001 A 
HETATM   11  C16 UNK     1      20.454  -1.692  29.303  1.00  0.00     0.003 A 
ENDROOT
BRANCH   3  12
HETATM   12  C7  UNK     1      18.142   3.900  31.600  1.00  0.00     0.260 C 
HETATM   13  N1  UNK     1      19.016   4.978  31.760  1.00  0.00    -0.344 N 
HETATM   14  C1  UNK     1      20.318   5.136  31.068  1.00  0.00     0.083 C 
HETATM   15  C5  UNK     1      18.565   6.122  32.562  1.00  0.00     0.126 C 
HETATM   16  C2  UNK     1      21.396   5.689  32.015  1.00  0.00     0.025 C 
HETATM   17  C6  UNK     1      20.165   5.989  29.806  1.00  0.00     0.032 C 
HETATM   18  C3  UNK     1      20.936   6.917  32.792  1.00  0.00     0.004 C 
HETATM   19  C4  UNK     1      19.637   6.615  33.527  1.00  0.00     0.020 C 
HETATM   20  O1  UNK     1      17.012   3.835  32.087  1.00  0.00    -0.267 OA
ENDBRANCH   3  12
TORSDOF 1
ENDMDL
MODEL 5
REMARK VINA RESULT:      -7.6      1.557      6.194
REMARK  1 active torsions:
REMARK  status: ('A' for Active; 'I' for Inactive)
REMARK       I    between atoms: C7_11  and  N1_4 
REMARK    1  A    between atoms: C7_11  and  C8_12 
ROOT
HETATM    1  O2  UNK     1      14.549   5.458   9.331  1.00  0.00    -0.274 OA
HETATM    2  O3  UNK     1      12.928   4.238   8.283  1.00  0.00    -0.259 OA
HETATM    3  C8  UNK     1      12.964   6.564   7.834  1.00  0.00     0.108 A 
HETATM    4  C9  UNK     1      13.543   7.750   8.054  1.00  0.00     0.037 A 
HETATM    5  C10 UNK     1      13.454   5.327   8.482  1.00  0.00     0.304 A 
HETATM    6  C11 UNK     1      14.686   7.855   8.947  1.00  0.00    -0.001 A 
HETATM    7  C12 UNK     1      15.163   6.705   9.567  1.00  0.00     0.089 A 
HETATM    8  C13 UNK     1      15.321   9.072   9.206  1.00  0.00     0.014 A 
HETATM    9  C14 UNK     1      16.254   6.736  10.433  1.00  0.00     0.038 A 
HETATM   10  C15 UNK     1      16.417   9.119  10.073  1.00  0.00     0.001 A 
HETATM   11  C16 UNK     1      16.882   7.953  10.684  1.00  0.00     0.003 A 
ENDROOT
BRANCH   3  12
HETATM   12  C7  UNK     1      11.811   6.562   6.911  1.00  0.00     0.260 C 
HETATM   13  N1  UNK     1      10.529   6.637   7.462  1.00  0.00    -0.344 N 
HETATM   14  C1  UNK     1      10.223   6.861   8.896  1.00  0.00     0.083 C 
HETATM   15  C5  UNK     1       9.380   6.639   6.546  1.00  0.00     0.126 C 
HETATM   16  C2  UNK     1       9.057   5.977   9.368  1.00  0.00     0.025 C 
HETATM   17  C6  UNK     1       9.975   8.345   9.175  1.00  0.00     0.032 C 
HETATM   18  C3  UNK     1       7.847   6.040   8.443  1.00  0.00     0.004 C 
HETATM   19  C4  UNK     1       8.262   5.715   7.014  1.00  0.00     0.020 C 
HETATM   20  O1  UNK     1      12.053   6.496   5.704  1.00  0.00    -0.267 OA
ENDBRANCH   3  12
TORSDOF 1
ENDMDL
MODEL 6
REMARK VINA RESULT:      -7.6     28.460     30.538
REMARK  1 active torsions:
REMARK  status: ('A' for Active; 'I' for Inactive)
REMARK       I    between atoms: C7_11  and  N1_4 
REMARK    1  A    between atoms: C7_11  and  C8_12 
ROOT
HETATM    1  O2  UNK     1      19.256  -1.519  34.471  1.00  0.00    -0.274 OA
HETATM    2  O3  UNK     1      20.983  -3.013  34.527  1.00  0.00    -0.259 OA
HETATM    3  C8  UNK     1      19.778  -2.706  36.544  1.00  0.00     0.108 A 
HETATM    4  C9  UNK     1      18.780  -2.084  37.182  1.00  0.00     0.037 A 
HETATM    5  C10 UNK     1      20.070  -2.445  35.117  1.00  0.00     0.304 A 
HETATM    6  C11 UNK     1      17.946  -1.121  36.479  1.00  0.00    -0.001 A 
HETATM    7  C12 UNK     1      18.204  -0.860  35.138  1.00  0.00     0.089 A 
HETATM    8  C13 UNK     1      16.895  -0.448  37.106  1.00  0.00     0.014 A 
HETATM    9  C14 UNK     1      17.444   0.050  34.407  1.00  0.00     0.038 A 
HETATM   10  C15 UNK     1      16.122   0.468  36.387  1.00  0.00     0.001 A 
HETATM   11  C16 UNK     1      16.397   0.716  35.040  1.00  0.00     0.003 A 
ENDROOT
BRANCH   3  12
HETATM   12  C7  UNK     1      20.566  -3.666  37.343  1.00  0.00     0.260 C 
HETATM   13  N1  UNK     1      20.167  -5.005  37.341  1.00  0.00    -0.344 N 
HETATM   14  C1  UNK     1      19.098  -5.580  36.489  1.00  0.00     0.083 C 
HETATM   15  C5  UNK     1      20.950  -5.963  38.132  1.00  0.00     0.126 C 
HETATM   16  C2  UNK     1      18.236  -6.587  37.269  1.00  0.00     0.025 C 
HETATM   17  C6  UNK     1      19.685  -6.188  35.212  1.00  0.00     0.032 C 
HETATM   18  C3  UNK     1      19.062  -7.615  38.032  1.00  0.00     0.004 C 
HETATM   19  C4  UNK     1      20.070  -6.914  38.933  1.00  0.00     0.020 C 
HETATM   20  O1  UNK     1      21.533  -3.223  37.966  1.00  0.00    -0.267 OA
ENDBRANCH   3  12
TORSDOF 1
ENDMDL
MODEL 7
REMARK VINA RESULT:      -7.5     22.824     24.548
REMARK  1 active torsions:
REMARK  status: ('A' for Active; 'I' for Inactive)
REMARK       I    between atoms: C7_11  and  N1_4 
REMARK    1  A    between atoms: C7_11  and  C8_12 
ROOT
HETATM    1  O2  UNK     1      18.761   1.162  32.707  1.00  0.00    -0.274 OA
HETATM    2  O3  UNK     1      17.947   2.823  34.046  1.00  0.00    -0.259 OA
HETATM    3  C8  UNK     1      18.182   3.334  31.745  1.00  0.00     0.108 A 
HETATM    4  C9  UNK     1      18.543   2.920  30.525  1.00  0.00     0.037 A 
HETATM    5  C10 UNK     1      18.278   2.448  32.927  1.00  0.00     0.304 A 
HETATM    6  C11 UNK     1      19.045   1.569  30.327  1.00  0.00    -0.001 A 
HETATM    7  C12 UNK     1      19.143   0.720  31.424  1.00  0.00     0.089 A 
HETATM    8  C13 UNK     1      19.433   1.095  29.072  1.00  0.00     0.014 A 
HETATM    9  C14 UNK     1      19.615  -0.585  31.303  1.00  0.00     0.038 A 
HETATM   10  C15 UNK     1      19.909  -0.213  28.934  1.00  0.00     0.001 A 
HETATM   11  C16 UNK     1      19.999  -1.050  30.047  1.00  0.00     0.003 A 
ENDROOT
BRANCH   3  12
HETATM   12  C7  UNK     1      17.685   4.722  31.842  1.00  0.00     0.260 C 
HETATM   13  N1  UNK     1      18.603   5.727  32.159  1.00  0.00    -0.344 N 
HETATM   14  C1  UNK     1      20.071   5.544  32.270  1.00  0.00     0.083 C 
HETATM   15  C5  UNK     1      18.113   7.108  32.253  1.00  0.00     0.126 C 
HETATM   16  C2  UNK     1      20.647   6.323  33.464  1.00  0.00     0.025 C 
HETATM   17  C6  UNK     1      20.766   5.903  30.954  1.00  0.00     0.032 C 
HETATM   18  C3  UNK     1      20.181   7.773  33.511  1.00  0.00     0.004 C 
HETATM   19  C4  UNK     1      18.660   7.837  33.473  1.00  0.00     0.020 C 
HETATM   20  O1  UNK     1      16.484   4.908  31.635  1.00  0.00    -0.267 OA
ENDBRANCH   3  12
TORSDOF 1
ENDMDL
MODEL 8
REMARK VINA RESULT:      -7.5     32.799     35.452
REMARK  1 active torsions:
REMARK  status: ('A' for Active; 'I' for Inactive)
REMARK       I    between atoms: C7_11  and  N1_4 
REMARK    1  A    between atoms: C7_11  and  C8_12 
ROOT
HETATM    1  O2  UNK     1      25.396  -5.600  38.618  1.00  0.00    -0.274 OA
HETATM    2  O3  UNK     1      23.133  -5.386  38.851  1.00  0.00    -0.259 OA
HETATM    3  C8  UNK     1      24.022  -7.571  39.072  1.00  0.00     0.108 A 
HETATM    4  C9  UNK     1      25.103  -8.359  39.063  1.00  0.00     0.037 A 
HETATM    5  C10 UNK     1      24.121  -6.112  38.843  1.00  0.00     0.304 A 
HETATM    6  C11 UNK     1      26.422  -7.793  38.826  1.00  0.00    -0.001 A 
HETATM    7  C12 UNK     1      26.538  -6.425  38.608  1.00  0.00     0.089 A 
HETATM    8  C13 UNK     1      27.577  -8.579  38.808  1.00  0.00     0.014 A 
HETATM    9  C14 UNK     1      27.771  -5.820  38.375  1.00  0.00     0.038 A 
HETATM   10  C15 UNK     1      28.823  -7.986  38.575  1.00  0.00     0.001 A 
HETATM   11  C16 UNK     1      28.918  -6.610  38.360  1.00  0.00     0.003 A 
ENDROOT
BRANCH   3  12
HETATM   12  C7  UNK     1      22.729  -8.240  39.322  1.00  0.00     0.260 C 
HETATM   13  N1  UNK     1      21.948  -8.592  38.218  1.00  0.00    -0.344 N 
HETATM   14  C1  UNK     1      22.366  -8.479  36.800  1.00  0.00     0.083 C 
HETATM   15  C5  UNK     1      20.663  -9.260  38.464  1.00  0.00     0.126 C 
HETATM   16  C2  UNK     1      21.222  -7.959  35.914  1.00  0.00     0.025 C 
HETATM   17  C6  UNK     1      22.935  -9.806  36.292  1.00  0.00     0.032 C 
HETATM   18  C3  UNK     1      19.912  -8.706  36.133  1.00  0.00     0.004 C 
HETATM   19  C4  UNK     1      19.538  -8.690  37.609  1.00  0.00     0.020 C 
HETATM   20  O1  UNK     1      22.419  -8.449  40.496  1.00  0.00    -0.267 OA
ENDBRANCH   3  12
TORSDOF 1
ENDMDL
MODEL 9
REMARK VINA RESULT:      -7.3     35.680     37.684
REMARK  1 active torsions:
REMARK  status: ('A' for Active; 'I' for Inactive)
REMARK       I    between atoms: C7_11  and  N1_4 
REMARK    1  A    between atoms: C7_11  and  C8_12 
ROOT
HETATM    1  O2  UNK     1      32.839  -9.125  35.327  1.00  0.00    -0.274 OA
HETATM    2  O3  UNK     1      31.220 -10.713  35.604  1.00  0.00    -0.259 OA
HETATM    3  C8  UNK     1      31.572  -9.226  37.415  1.00  0.00     0.108 A 
HETATM    4  C9  UNK     1      32.252  -8.185  37.909  1.00  0.00     0.037 A 
HETATM    5  C10 UNK     1      31.842  -9.760  36.062  1.00  0.00     0.304 A 
HETATM    6  C11 UNK     1      33.288  -7.543  37.117  1.00  0.00    -0.001 A 
HETATM    7  C12 UNK     1      33.559  -8.029  35.842  1.00  0.00     0.089 A 
HETATM    8  C13 UNK     1      34.023  -6.454  37.593  1.00  0.00     0.014 A 
HETATM    9  C14 UNK     1      34.538  -7.459  35.031  1.00  0.00     0.038 A 
HETATM   10  C15 UNK     1      35.010  -5.871  36.791  1.00  0.00     0.001 A 
HETATM   11  C16 UNK     1      35.266  -6.373  35.514  1.00  0.00     0.003 A 
ENDROOT
BRANCH   3  12
HETATM   12  C7  UNK     1      30.539  -9.809  38.297  1.00  0.00     0.260 C 
HETATM   13  N1  UNK     1      29.244  -9.291  38.221  1.00  0.00    -0.344 N 
HETATM   14  C1  UNK     1      28.775  -8.295  37.227  1.00  0.00     0.083 C 
HETATM   15  C5  UNK     1      28.214  -9.870  39.093  1.00  0.00     0.126 C 
HETATM   16  C2  UNK     1      27.852  -7.247  37.872  1.00  0.00     0.025 C 
HETATM   17  C6  UNK     1      28.118  -8.986  36.030  1.00  0.00     0.032 C 
HETATM   18  C3  UNK     1      26.748  -7.865  38.721  1.00  0.00     0.004 C 
HETATM   19  C4  UNK     1      27.348  -8.806  39.757  1.00  0.00     0.020 C 
HETATM   20  O1  UNK     1      30.887 -10.722  39.047  1.00  0.00    -0.267 OA
ENDBRANCH   3  12
TORSDOF 1
ENDMDL
MODEL 10
REMARK VINA RESULT:      -7.2     23.411     25.764
REMARK  1 active torsions:
REMARK  status: ('A' for Active; 'I' for Inactive)
REMARK       I    between atoms: C7_11  and  N1_4 
REMARK    1  A    between atoms: C7_11  and  C8_12 
ROOT
HETATM    1  O2  UNK     1      14.178   9.215  34.654  1.00  0.00    -0.274 OA
HETATM    2  O3  UNK     1      14.132   7.348  33.338  1.00  0.00    -0.259 OA
HETATM    3  C8  UNK     1      15.933   8.848  32.992  1.00  0.00     0.108 A 
HETATM    4  C9  UNK     1      16.538   9.990  33.339  1.00  0.00     0.037 A 
HETATM    5  C10 UNK     1      14.689   8.395  33.652  1.00  0.00     0.304 A 
HETATM    6  C11 UNK     1      15.980  10.826  34.391  1.00  0.00    -0.001 A 
HETATM    7  C12 UNK     1      14.811  10.419  35.025  1.00  0.00     0.089 A 
HETATM    8  C13 UNK     1      16.577  12.025  34.785  1.00  0.00     0.014 A 
HETATM    9  C14 UNK     1      14.225  11.172  36.039  1.00  0.00     0.038 A 
HETATM   10  C15 UNK     1      16.001  12.793  35.802  1.00  0.00     0.001 A 
HETATM   11  C16 UNK     1      14.827  12.367  36.427  1.00  0.00     0.003 A 
ENDROOT
BRANCH   3  12
HETATM   12  C7  UNK     1      16.578   8.070  31.914  1.00  0.00     0.260 C 
HETATM   13  N1  UNK     1      17.625   7.212  32.261  1.00  0.00    -0.344 N 
HETATM   14  C1  UNK     1      18.059   6.904  33.646  1.00  0.00     0.083 C 
HETATM   15  C5  UNK     1      18.266   6.434  31.193  1.00  0.00     0.126 C 
HETATM   16  C2  UNK     1      19.592   6.850  33.757  1.00  0.00     0.025 C 
HETATM   17  C6  UNK     1      17.397   5.621  34.153  1.00  0.00     0.032 C 
HETATM   18  C3  UNK     1      20.239   5.986  32.681  1.00  0.00     0.004 C 
HETATM   19  C4  UNK     1      19.786   6.441  31.300  1.00  0.00     0.020 C 
HETATM   20  O1  UNK     1      16.149   8.226  30.769  1.00  0.00    -0.267 OA
ENDBRANCH   3  12
TORSDOF 1
ENDMDL
