MODEL 1
REMARK VINA RESULT:      -8.9      0.000      0.000
REMARK  8 active torsions:
REMARK  status: ('A' for Active; 'I' for Inactive)
REMARK    1  A    between atoms: C1_11  and  O1_1 
REMARK    2  A    between atoms: C15_25  and  O1_1 
REMARK    3  A    between atoms: C13_23  and  O3_3 
REMARK    4  A    between atoms: C17_27  and  O3_3 
REMARK    5  A    between atoms: C10_20  and  N1_9 
REMARK       I    between atoms: C15_25  and  N1_9 
REMARK    6  A    between atoms: C24_34  and  N2_10 
REMARK    7  A    between atoms: C11_21  and  C5_15 
REMARK    8  A    between atoms: C10_20  and  C17_27 
ROOT
HETATM    1  O2  UNK     1      24.402 -10.496  36.328  1.00  0.00    -0.313 OA
HETATM    2  O4  UNK     1      23.063  -7.136  38.190  1.00  0.00    -0.286 OA
HETATM    3  C5  UNK     1      22.597  -8.928  36.697  1.00  0.00     0.054 A 
HETATM    4  C6  UNK     1      24.824  -8.654  37.844  1.00  0.00     0.049 A 
HETATM    5  C7  UNK     1      25.223  -9.808  37.180  1.00  0.00     0.092 A 
HETATM    6  C8  UNK     1      23.462  -8.148  37.628  1.00  0.00     0.198 A 
HETATM    7  C9  UNK     1      23.110 -10.034  36.114  1.00  0.00     0.065 A 
HETATM    8  C12 UNK     1      26.511 -10.312  37.369  1.00  0.00     0.075 A 
HETATM    9  C13 UNK     1      27.396  -9.654  38.224  1.00  0.00     0.082 A 
HETATM   10  C14 UNK     1      25.706  -7.992  38.703  1.00  0.00     0.021 A 
HETATM   11  C16 UNK     1      26.994  -8.497  38.890  1.00  0.00     0.038 A 
HETATM   12  C19 UNK     1      22.364 -10.918  35.154  1.00  0.00     0.077 C 
ENDROOT
BRANCH   9  13
HETATM   13  O3  UNK     1      28.653 -10.144  38.409  1.00  0.00    -0.277 OA
BRANCH  13  14
HETATM   14  C17 UNK     1      29.676  -9.334  37.893  1.00  0.00     0.286 C 
HETATM   15  O6  UNK     1      30.711  -9.057  38.492  1.00  0.00    -0.263 OA
BRANCH  14  16
HETATM   16  C10 UNK     1      29.379  -8.830  36.487  1.00  0.00     0.183 C 
HETATM   17  C18 UNK     1      29.774  -9.877  35.457  1.00  0.00     0.043 C 
BRANCH  16  18
HETATM   18  N1  UNK     1      30.041  -7.582  36.211  1.00  0.00    -0.323 N 
HETATM   19  C15 UNK     1      29.504  -6.343  36.506  1.00  0.00     0.362 C 
HETATM   20  O5  UNK     1      28.414  -6.145  37.033  1.00  0.00    -0.238 OA
HETATM   21  H13 UNK     1      30.980  -7.606  35.824  1.00  0.00     0.165 HD
BRANCH  19  22
HETATM   22  O1  UNK     1      30.371  -5.358  36.123  1.00  0.00    -0.294 OA
BRANCH  22  23
HETATM   23  C1  UNK     1      31.054  -4.681  37.184  1.00  0.00     0.061 C 
HETATM   24  C2  UNK     1      32.094  -3.744  36.572  1.00  0.00     0.046 C 
HETATM   25  C3  UNK     1      30.012  -3.888  37.970  1.00  0.00     0.046 C 
HETATM   26  C4  UNK     1      31.721  -5.726  38.077  1.00  0.00     0.046 C 
ENDBRANCH  22  23
ENDBRANCH  19  22
ENDBRANCH  16  18
ENDBRANCH  14  16
ENDBRANCH  13  14
ENDBRANCH   9  13
BRANCH   3  27
HETATM   27  C11 UNK     1      21.235  -8.478  36.442  1.00  0.00    -0.019 A 
HETATM   28  C20 UNK     1      20.208  -8.843  37.311  1.00  0.00     0.015 A 
HETATM   29  C22 UNK     1      18.905  -8.409  37.068  1.00  0.00     0.037 A 
HETATM   30  C24 UNK     1      18.631  -7.612  35.956  1.00  0.00     0.102 A 
HETATM   31  C23 UNK     1      19.660  -7.249  35.088  1.00  0.00     0.037 A 
HETATM   32  C21 UNK     1      20.963  -7.682  35.331  1.00  0.00     0.015 A 
BRANCH  30  33
HETATM   33  N2  UNK     1      17.304  -7.171  35.707  1.00  0.00    -0.116 N 
HETATM   34  O7  UNK     1      16.762  -6.385  36.521  1.00  0.00    -0.532 OA
HETATM   35  O8  UNK     1      16.710  -7.579  34.680  1.00  0.00    -0.532 OA
ENDBRANCH  30  33
ENDBRANCH   3  27
TORSDOF 8
ENDMDL
MODEL 2
REMARK VINA RESULT:      -8.8     32.892     35.823
REMARK  8 active torsions:
REMARK  status: ('A' for Active; 'I' for Inactive)
REMARK    1  A    between atoms: C1_11  and  O1_1 
REMARK    2  A    between atoms: C15_25  and  O1_1 
REMARK    3  A    between atoms: C13_23  and  O3_3 
REMARK    4  A    between atoms: C17_27  and  O3_3 
REMARK    5  A    between atoms: C10_20  and  N1_9 
REMARK       I    between atoms: C15_25  and  N1_9 
REMARK    6  A    between atoms: C24_34  and  N2_10 
REMARK    7  A    between atoms: C11_21  and  C5_15 
REMARK    8  A    between atoms: C10_20  and  C17_27 
ROOT
HETATM    1  O2  UNK     1      14.296  10.214   8.638  1.00  0.00    -0.313 OA
HETATM    2  O4  UNK     1      17.619   8.294   9.984  1.00  0.00    -0.286 OA
HETATM    3  C5  UNK     1      16.666  10.292   9.114  1.00  0.00     0.054 A 
HETATM    4  C6  UNK     1      15.315   8.206   9.530  1.00  0.00     0.049 A 
HETATM    5  C7  UNK     1      14.215   8.916   9.059  1.00  0.00     0.092 A 
HETATM    6  C8  UNK     1      16.621   8.876   9.578  1.00  0.00     0.198 A 
HETATM    7  C9  UNK     1      15.522  10.865   8.679  1.00  0.00     0.065 A 
HETATM    8  C12 UNK     1      12.962   8.304   9.004  1.00  0.00     0.075 A 
HETATM    9  C13 UNK     1      12.816   6.980   9.420  1.00  0.00     0.082 A 
HETATM   10  C14 UNK     1      15.174   6.880   9.948  1.00  0.00     0.021 A 
HETATM   11  C16 UNK     1      13.920   6.269   9.891  1.00  0.00     0.038 A 
HETATM   12  C19 UNK     1      15.410  12.279   8.180  1.00  0.00     0.077 C 
ENDROOT
BRANCH   9  13
HETATM   13  O3  UNK     1      11.594   6.382   9.366  1.00  0.00    -0.277 OA
BRANCH  13  14
HETATM   14  C17 UNK     1      11.465   5.408   8.363  1.00  0.00     0.286 C 
HETATM   15  O6  UNK     1      12.022   4.315   8.379  1.00  0.00    -0.263 OA
BRANCH  14  16
HETATM   16  C10 UNK     1      10.540   5.844   7.234  1.00  0.00     0.183 C 
HETATM   17  C18 UNK     1      11.330   6.571   6.156  1.00  0.00     0.043 C 
BRANCH  16  18
HETATM   18  N1  UNK     1       9.462   6.673   7.708  1.00  0.00    -0.323 N 
HETATM   19  C15 UNK     1       8.163   6.229   7.871  1.00  0.00     0.362 C 
HETATM   20  O5  UNK     1       7.763   5.094   7.637  1.00  0.00    -0.238 OA
HETATM   21  H13 UNK     1       9.671   7.626   7.992  1.00  0.00     0.165 HD
BRANCH  19  22
HETATM   22  O1  UNK     1       7.380   7.248   8.334  1.00  0.00    -0.294 OA
BRANCH  22  23
HETATM   23  C1  UNK     1       7.300   7.377   9.758  1.00  0.00     0.061 C 
HETATM   24  C2  UNK     1       7.701   6.045  10.390  1.00  0.00     0.046 C 
HETATM   25  C3  UNK     1       8.268   8.482  10.174  1.00  0.00     0.046 C 
HETATM   26  C4  UNK     1       5.866   7.749  10.133  1.00  0.00     0.046 C 
ENDBRANCH  22  23
ENDBRANCH  19  22
ENDBRANCH  16  18
ENDBRANCH  14  16
ENDBRANCH  13  14
ENDBRANCH   9  13
BRANCH   3  27
HETATM   27  C11 UNK     1      17.933  11.012   9.140  1.00  0.00    -0.019 A 
HETATM   28  C20 UNK     1      18.367  11.613  10.321  1.00  0.00     0.015 A 
HETATM   29  C22 UNK     1      19.581  12.299  10.345  1.00  0.00     0.037 A 
HETATM   30  C24 UNK     1      20.357  12.385   9.189  1.00  0.00     0.102 A 
HETATM   31  C23 UNK     1      19.920  11.783   8.009  1.00  0.00     0.037 A 
HETATM   32  C21 UNK     1      18.707  11.097   7.985  1.00  0.00     0.015 A 
BRANCH  30  33
HETATM   33  N2  UNK     1      21.593  13.084   9.213  1.00  0.00    -0.116 N 
HETATM   34  O7  UNK     1      21.658  14.222   8.688  1.00  0.00    -0.532 OA
HETATM   35  O8  UNK     1      22.586  12.546   9.759  1.00  0.00    -0.532 OA
ENDBRANCH  30  33
ENDBRANCH   3  27
TORSDOF 8
ENDMDL
MODEL 3
REMARK VINA RESULT:      -8.5     14.918     18.166
REMARK  8 active torsions:
REMARK  status: ('A' for Active; 'I' for Inactive)
REMARK    1  A    between atoms: C1_11  and  O1_1 
REMARK    2  A    between atoms: C15_25  and  O1_1 
REMARK    3  A    between atoms: C13_23  and  O3_3 
REMARK    4  A    between atoms: C17_27  and  O3_3 
REMARK    5  A    between atoms: C10_20  and  N1_9 
REMARK       I    between atoms: C15_25  and  N1_9 
REMARK    6  A    between atoms: C24_34  and  N2_10 
REMARK    7  A    between atoms: C11_21  and  C5_15 
REMARK    8  A    between atoms: C10_20  and  C17_27 
ROOT
HETATM    1  O2  UNK     1      15.988   7.848  31.800  1.00  0.00    -0.313 OA
HETATM    2  O4  UNK     1      18.618   9.228  34.579  1.00  0.00    -0.286 OA
HETATM    3  C5  UNK     1      16.464   9.408  33.586  1.00  0.00     0.054 A 
HETATM    4  C6  UNK     1      18.166   7.703  32.849  1.00  0.00     0.049 A 
HETATM    5  C7  UNK     1      17.224   7.275  31.919  1.00  0.00     0.092 A 
HETATM    6  C8  UNK     1      17.822   8.815  33.744  1.00  0.00     0.198 A 
HETATM    7  C9  UNK     1      15.644   8.899  32.641  1.00  0.00     0.065 A 
HETATM    8  C12 UNK     1      17.524   6.220  31.058  1.00  0.00     0.075 A 
HETATM    9  C13 UNK     1      18.770   5.596  31.130  1.00  0.00     0.082 A 
HETATM   10  C14 UNK     1      19.416   7.081  32.926  1.00  0.00     0.021 A 
HETATM   11  C16 UNK     1      19.714   6.025  32.062  1.00  0.00     0.038 A 
HETATM   12  C19 UNK     1      14.251   9.391  32.361  1.00  0.00     0.077 C 
ENDROOT
BRANCH   9  13
HETATM   13  O3  UNK     1      19.064   4.566  30.289  1.00  0.00    -0.277 OA
BRANCH  13  14
HETATM   14  C17 UNK     1      18.469   3.342  30.634  1.00  0.00     0.286 C 
HETATM   15  O6  UNK     1      17.568   3.216  31.457  1.00  0.00    -0.263 OA
BRANCH  14  16
HETATM   16  C10 UNK     1      19.055   2.164  29.866  1.00  0.00     0.183 C 
HETATM   17  C18 UNK     1      17.968   1.465  29.064  1.00  0.00     0.043 C 
BRANCH  16  18
HETATM   18  N1  UNK     1      19.714   1.227  30.738  1.00  0.00    -0.323 N 
HETATM   19  C15 UNK     1      20.519   0.195  30.292  1.00  0.00     0.362 C 
HETATM   20  O5  UNK     1      20.773  -0.055  29.119  1.00  0.00    -0.238 OA
HETATM   21  H13 UNK     1      19.630   1.356  31.742  1.00  0.00     0.165 HD
BRANCH  19  22
HETATM   22  O1  UNK     1      20.995  -0.515  31.358  1.00  0.00    -0.294 OA
BRANCH  22  23
HETATM   23  C1  UNK     1      20.332  -1.756  31.627  1.00  0.00     0.061 C 
HETATM   24  C2  UNK     1      21.136  -2.518  32.679  1.00  0.00     0.046 C 
HETATM   25  C3  UNK     1      18.937  -1.427  32.153  1.00  0.00     0.046 C 
HETATM   26  C4  UNK     1      20.243  -2.552  30.326  1.00  0.00     0.046 C 
ENDBRANCH  22  23
ENDBRANCH  19  22
ENDBRANCH  16  18
ENDBRANCH  14  16
ENDBRANCH  13  14
ENDBRANCH   9  13
BRANCH   3  27
HETATM   27  C11 UNK     1      16.063  10.514  34.446  1.00  0.00    -0.019 A 
HETATM   28  C20 UNK     1      15.007  10.350  35.342  1.00  0.00     0.015 A 
HETATM   29  C22 UNK     1      14.626  11.408  36.167  1.00  0.00     0.037 A 
HETATM   30  C24 UNK     1      15.300  12.628  36.094  1.00  0.00     0.102 A 
HETATM   31  C23 UNK     1      16.355  12.788  35.197  1.00  0.00     0.037 A 
HETATM   32  C21 UNK     1      16.737  11.731  34.372  1.00  0.00     0.015 A 
BRANCH  30  33
HETATM   33  N2  UNK     1      14.911  13.706  36.934  1.00  0.00    -0.116 N 
HETATM   34  O7  UNK     1      13.766  13.695  37.445  1.00  0.00    -0.532 OA
HETATM   35  O8  UNK     1      15.725  14.638  37.141  1.00  0.00    -0.532 OA
ENDBRANCH  30  33
ENDBRANCH   3  27
TORSDOF 8
ENDMDL
MODEL 4
REMARK VINA RESULT:      -8.5      1.643      2.108
REMARK  8 active torsions:
REMARK  status: ('A' for Active; 'I' for Inactive)
REMARK    1  A    between atoms: C1_11  and  O1_1 
REMARK    2  A    between atoms: C15_25  and  O1_1 
REMARK    3  A    between atoms: C13_23  and  O3_3 
REMARK    4  A    between atoms: C17_27  and  O3_3 
REMARK    5  A    between atoms: C10_20  and  N1_9 
REMARK       I    between atoms: C15_25  and  N1_9 
REMARK    6  A    between atoms: C24_34  and  N2_10 
REMARK    7  A    between atoms: C11_21  and  C5_15 
REMARK    8  A    between atoms: C10_20  and  C17_27 
ROOT
HETATM    1  O2  UNK     1      24.483 -10.368  36.411  1.00  0.00    -0.313 OA
HETATM    2  O4  UNK     1      23.071  -6.984  38.172  1.00  0.00    -0.286 OA
HETATM    3  C5  UNK     1      22.641  -8.836  36.741  1.00  0.00     0.054 A 
HETATM    4  C6  UNK     1      24.867  -8.468  37.863  1.00  0.00     0.049 A 
HETATM    5  C7  UNK     1      25.292  -9.633  37.233  1.00  0.00     0.092 A 
HETATM    6  C8  UNK     1      23.492  -8.004  37.640  1.00  0.00     0.198 A 
HETATM    7  C9  UNK     1      23.178  -9.947  36.191  1.00  0.00     0.065 A 
HETATM    8  C12 UNK     1      26.593 -10.097  37.429  1.00  0.00     0.075 A 
HETATM    9  C13 UNK     1      27.466  -9.390  38.256  1.00  0.00     0.082 A 
HETATM   10  C14 UNK     1      25.738  -7.757  38.693  1.00  0.00     0.021 A 
HETATM   11  C16 UNK     1      27.040  -8.222  38.887  1.00  0.00     0.038 A 
HETATM   12  C19 UNK     1      22.448 -10.881  35.266  1.00  0.00     0.077 C 
ENDROOT
BRANCH   9  13
HETATM   13  O3  UNK     1      28.737  -9.842  38.448  1.00  0.00    -0.277 OA
BRANCH  13  14
HETATM   14  C17 UNK     1      29.735  -9.037  37.878  1.00  0.00     0.286 C 
HETATM   15  O6  UNK     1      30.392  -8.204  38.494  1.00  0.00    -0.263 OA
BRANCH  14  16
HETATM   16  C10 UNK     1      29.934  -9.307  36.392  1.00  0.00     0.183 C 
HETATM   17  C18 UNK     1      31.173 -10.163  36.174  1.00  0.00     0.043 C 
BRANCH  16  18
HETATM   18  N1  UNK     1      30.028  -8.090  35.630  1.00  0.00    -0.323 N 
HETATM   19  C15 UNK     1      28.933  -7.374  35.184  1.00  0.00     0.362 C 
HETATM   20  O5  UNK     1      27.760  -7.674  35.373  1.00  0.00    -0.238 OA
HETATM   21  H13 UNK     1      30.949  -7.699  35.450  1.00  0.00     0.165 HD
BRANCH  19  22
HETATM   22  O1  UNK     1      29.350  -6.271  34.493  1.00  0.00    -0.294 OA
BRANCH  22  23
HETATM   23  C1  UNK     1      29.230  -6.345  33.067  1.00  0.00     0.061 C 
HETATM   24  C2  UNK     1      27.797  -5.986  32.680  1.00  0.00     0.046 C 
HETATM   25  C3  UNK     1      30.215  -5.343  32.470  1.00  0.00     0.046 C 
HETATM   26  C4  UNK     1      29.575  -7.766  32.624  1.00  0.00     0.046 C 
ENDBRANCH  22  23
ENDBRANCH  19  22
ENDBRANCH  16  18
ENDBRANCH  14  16
ENDBRANCH  13  14
ENDBRANCH   9  13
BRANCH   3  27
HETATM   27  C11 UNK     1      21.266  -8.429  36.482  1.00  0.00    -0.019 A 
HETATM   28  C20 UNK     1      20.259  -8.767  37.385  1.00  0.00     0.015 A 
HETATM   29  C22 UNK     1      18.943  -8.375  37.137  1.00  0.00     0.037 A 
HETATM   30  C24 UNK     1      18.638  -7.645  35.987  1.00  0.00     0.102 A 
HETATM   31  C23 UNK     1      19.647  -7.309  35.087  1.00  0.00     0.037 A 
HETATM   32  C21 UNK     1      20.963  -7.700  35.334  1.00  0.00     0.015 A 
BRANCH  30  33
HETATM   33  N2  UNK     1      17.298  -7.246  35.734  1.00  0.00    -0.116 N 
HETATM   34  O7  UNK     1      16.718  -6.504  36.563  1.00  0.00    -0.532 OA
HETATM   35  O8  UNK     1      16.732  -7.646  34.688  1.00  0.00    -0.532 OA
ENDBRANCH  30  33
ENDBRANCH   3  27
TORSDOF 8
ENDMDL
MODEL 5
REMARK VINA RESULT:      -8.4     32.887     36.655
REMARK  8 active torsions:
REMARK  status: ('A' for Active; 'I' for Inactive)
REMARK    1  A    between atoms: C1_11  and  O1_1 
REMARK    2  A    between atoms: C15_25  and  O1_1 
REMARK    3  A    between atoms: C13_23  and  O3_3 
REMARK    4  A    between atoms: C17_27  and  O3_3 
REMARK    5  A    between atoms: C10_20  and  N1_9 
REMARK       I    between atoms: C15_25  and  N1_9 
REMARK    6  A    between atoms: C24_34  and  N2_10 
REMARK    7  A    between atoms: C11_21  and  C5_15 
REMARK    8  A    between atoms: C10_20  and  C17_27 
ROOT
HETATM    1  O2  UNK     1      18.446  10.601   9.288  1.00  0.00    -0.313 OA
HETATM    2  O4  UNK     1      15.724  12.440   6.890  1.00  0.00    -0.286 OA
HETATM    3  C5  UNK     1      17.942  12.397   7.748  1.00  0.00     0.054 A 
HETATM    4  C6  UNK     1      16.202  10.688   8.382  1.00  0.00     0.049 A 
HETATM    5  C7  UNK     1      17.176  10.104   9.184  1.00  0.00     0.092 A 
HETATM    6  C8  UNK     1      16.547  11.889   7.611  1.00  0.00     0.198 A 
HETATM    7  C9  UNK     1      18.792  11.735   8.564  1.00  0.00     0.065 A 
HETATM    8  C12 UNK     1      16.876   8.961   9.926  1.00  0.00     0.075 A 
HETATM    9  C13 UNK     1      15.597   8.407   9.863  1.00  0.00     0.082 A 
HETATM   10  C14 UNK     1      14.919  10.136   8.315  1.00  0.00     0.021 A 
HETATM   11  C16 UNK     1      14.620   8.994   9.058  1.00  0.00     0.038 A 
HETATM   12  C19 UNK     1      20.223  12.125   8.806  1.00  0.00     0.077 C 
ENDROOT
BRANCH   9  13
HETATM   13  O3  UNK     1      15.302   7.292  10.587  1.00  0.00    -0.277 OA
BRANCH  13  14
HETATM   14  C17 UNK     1      13.954   6.904  10.540  1.00  0.00     0.286 C 
HETATM   15  O6  UNK     1      13.014   7.618  10.876  1.00  0.00    -0.263 OA
BRANCH  14  16
HETATM   16  C10 UNK     1      13.766   5.488  10.012  1.00  0.00     0.183 C 
HETATM   17  C18 UNK     1      15.114   4.866   9.679  1.00  0.00     0.043 C 
BRANCH  16  18
HETATM   18  N1  UNK     1      12.901   5.452   8.862  1.00  0.00    -0.323 N 
HETATM   19  C15 UNK     1      11.556   5.138   8.919  1.00  0.00     0.362 C 
HETATM   20  O5  UNK     1      10.933   4.855   9.936  1.00  0.00    -0.238 OA
HETATM   21  H13 UNK     1      13.282   5.722   7.959  1.00  0.00     0.165 HD
BRANCH  19  22
HETATM   22  O1  UNK     1      11.014   5.189   7.666  1.00  0.00    -0.294 OA
BRANCH  22  23
HETATM   23  C1  UNK     1      10.323   6.399   7.333  1.00  0.00     0.061 C 
HETATM   24  C2  UNK     1      10.501   7.392   8.480  1.00  0.00     0.046 C 
HETATM   25  C3  UNK     1      10.944   6.944   6.048  1.00  0.00     0.046 C 
HETATM   26  C4  UNK     1       8.846   6.071   7.119  1.00  0.00     0.046 C 
ENDBRANCH  22  23
ENDBRANCH  19  22
ENDBRANCH  16  18
ENDBRANCH  14  16
ENDBRANCH  13  14
ENDBRANCH   9  13
BRANCH   3  27
HETATM   27  C11 UNK     1      18.346  13.584   7.006  1.00  0.00    -0.019 A 
HETATM   28  C20 UNK     1      18.947  13.451   5.756  1.00  0.00     0.015 A 
HETATM   29  C22 UNK     1      19.331  14.589   5.045  1.00  0.00     0.037 A 
HETATM   30  C24 UNK     1      19.114  15.856   5.588  1.00  0.00     0.102 A 
HETATM   31  C23 UNK     1      18.513  15.985   6.839  1.00  0.00     0.037 A 
HETATM   32  C21 UNK     1      18.129  14.849   7.550  1.00  0.00     0.015 A 
BRANCH  30  33
HETATM   33  N2  UNK     1      19.505  17.015   4.865  1.00  0.00    -0.116 N 
HETATM   34  O7  UNK     1      20.547  17.622   5.209  1.00  0.00    -0.532 OA
HETATM   35  O8  UNK     1      18.798  17.399   3.902  1.00  0.00    -0.532 OA
ENDBRANCH  30  33
ENDBRANCH   3  27
TORSDOF 8
ENDMDL
MODEL 6
REMARK VINA RESULT:      -8.3      1.079      2.128
REMARK  8 active torsions:
REMARK  status: ('A' for Active; 'I' for Inactive)
REMARK    1  A    between atoms: C1_11  and  O1_1 
REMARK    2  A    between atoms: C15_25  and  O1_1 
REMARK    3  A    between atoms: C13_23  and  O3_3 
REMARK    4  A    between atoms: C17_27  and  O3_3 
REMARK    5  A    between atoms: C10_20  and  N1_9 
REMARK       I    between atoms: C15_25  and  N1_9 
REMARK    6  A    between atoms: C24_34  and  N2_10 
REMARK    7  A    between atoms: C11_21  and  C5_15 
REMARK    8  A    between atoms: C10_20  and  C17_27 
ROOT
HETATM    1  O2  UNK     1      24.086  -7.448  38.736  1.00  0.00    -0.313 OA
HETATM    2  O4  UNK     1      22.680  -9.805  35.733  1.00  0.00    -0.286 OA
HETATM    3  C5  UNK     1      22.255  -8.040  37.270  1.00  0.00     0.054 A 
HETATM    4  C6  UNK     1      24.469  -9.237  37.148  1.00  0.00     0.049 A 
HETATM    5  C7  UNK     1      24.892  -8.401  38.176  1.00  0.00     0.092 A 
HETATM    6  C8  UNK     1      23.099  -9.093  36.637  1.00  0.00     0.198 A 
HETATM    7  C9  UNK     1      22.789  -7.295  38.263  1.00  0.00     0.065 A 
HETATM    8  C12 UNK     1      26.188  -8.516  38.679  1.00  0.00     0.075 A 
HETATM    9  C13 UNK     1      27.057  -9.471  38.150  1.00  0.00     0.082 A 
HETATM   10  C14 UNK     1      25.336 -10.195  36.615  1.00  0.00     0.021 A 
HETATM   11  C16 UNK     1      26.632 -10.308  37.119  1.00  0.00     0.038 A 
HETATM   12  C19 UNK     1      22.063  -6.202  38.997  1.00  0.00     0.077 C 
ENDROOT
BRANCH   9  13
HETATM   13  O3  UNK     1      28.322  -9.584  38.641  1.00  0.00    -0.277 OA
BRANCH  13  14
HETATM   14  C17 UNK     1      29.150  -8.481  38.382  1.00  0.00     0.286 C 
HETATM   15  O6  UNK     1      29.182  -7.461  39.065  1.00  0.00    -0.263 OA
BRANCH  14  16
HETATM   16  C10 UNK     1      30.029  -8.677  37.153  1.00  0.00     0.183 C 
HETATM   17  C18 UNK     1      30.901  -9.912  37.322  1.00  0.00     0.043 C 
BRANCH  16  18
HETATM   18  N1  UNK     1      30.844  -7.522  36.884  1.00  0.00    -0.323 N 
HETATM   19  C15 UNK     1      30.426  -6.442  36.129  1.00  0.00     0.362 C 
HETATM   20  O5  UNK     1      29.326  -6.326  35.599  1.00  0.00    -0.238 OA
HETATM   21  H13 UNK     1      31.764  -7.466  37.312  1.00  0.00     0.165 HD
BRANCH  19  22
HETATM   22  O1  UNK     1      31.424  -5.512  36.056  1.00  0.00    -0.294 OA
BRANCH  22  23
HETATM   23  C1  UNK     1      31.475  -4.566  37.130  1.00  0.00     0.061 C 
HETATM   24  C2  UNK     1      32.381  -5.122  38.227  1.00  0.00     0.046 C 
HETATM   25  C3  UNK     1      32.046  -3.265  36.570  1.00  0.00     0.046 C 
HETATM   26  C4  UNK     1      30.056  -4.348  37.654  1.00  0.00     0.046 C 
ENDBRANCH  22  23
ENDBRANCH  19  22
ENDBRANCH  16  18
ENDBRANCH  14  16
ENDBRANCH  13  14
ENDBRANCH   9  13
BRANCH   3  27
HETATM   27  C11 UNK     1      20.887  -7.847  36.805  1.00  0.00    -0.019 A 
HETATM   28  C20 UNK     1      19.847  -8.569  37.387  1.00  0.00     0.015 A 
HETATM   29  C22 UNK     1      18.537  -8.381  36.943  1.00  0.00     0.037 A 
HETATM   30  C24 UNK     1      18.272  -7.472  35.918  1.00  0.00     0.102 A 
HETATM   31  C23 UNK     1      19.315  -6.751  35.338  1.00  0.00     0.037 A 
HETATM   32  C21 UNK     1      20.624  -6.938  35.782  1.00  0.00     0.015 A 
BRANCH  30  33
HETATM   33  N2  UNK     1      16.939  -7.281  35.465  1.00  0.00    -0.116 N 
HETATM   34  O7  UNK     1      16.565  -7.860  34.417  1.00  0.00    -0.532 OA
HETATM   35  O8  UNK     1      16.173  -6.538  36.125  1.00  0.00    -0.532 OA
ENDBRANCH  30  33
ENDBRANCH   3  27
TORSDOF 8
ENDMDL
MODEL 7
REMARK VINA RESULT:      -8.3     32.319     36.213
REMARK  8 active torsions:
REMARK  status: ('A' for Active; 'I' for Inactive)
REMARK    1  A    between atoms: C1_11  and  O1_1 
REMARK    2  A    between atoms: C15_25  and  O1_1 
REMARK    3  A    between atoms: C13_23  and  O3_3 
REMARK    4  A    between atoms: C17_27  and  O3_3 
REMARK    5  A    between atoms: C10_20  and  N1_9 
REMARK       I    between atoms: C15_25  and  N1_9 
REMARK    6  A    between atoms: C24_34  and  N2_10 
REMARK    7  A    between atoms: C11_21  and  C5_15 
REMARK    8  A    between atoms: C10_20  and  C17_27 
ROOT
HETATM    1  O2  UNK     1      15.014  10.918   8.191  1.00  0.00    -0.313 OA
HETATM    2  O4  UNK     1      18.896  10.675   9.385  1.00  0.00    -0.286 OA
HETATM    3  C5  UNK     1      17.239  11.868   8.164  1.00  0.00     0.054 A 
HETATM    4  C6  UNK     1      16.738   9.743   9.422  1.00  0.00     0.049 A 
HETATM    5  C7  UNK     1      15.426   9.881   8.983  1.00  0.00     0.092 A 
HETATM    6  C8  UNK     1      17.728  10.752   9.023  1.00  0.00     0.198 A 
HETATM    7  C9  UNK     1      15.936  11.884   7.806  1.00  0.00     0.065 A 
HETATM    8  C12 UNK     1      14.465   8.938   9.349  1.00  0.00     0.075 A 
HETATM    9  C13 UNK     1      14.823   7.857  10.155  1.00  0.00     0.082 A 
HETATM   10  C14 UNK     1      17.102   8.662  10.230  1.00  0.00     0.021 A 
HETATM   11  C16 UNK     1      16.139   7.719  10.595  1.00  0.00     0.038 A 
HETATM   12  C19 UNK     1      15.298  12.938   6.945  1.00  0.00     0.077 C 
ENDROOT
BRANCH   9  13
HETATM   13  O3  UNK     1      13.886   6.936  10.512  1.00  0.00    -0.277 OA
BRANCH  13  14
HETATM   14  C17 UNK     1      14.036   5.683   9.897  1.00  0.00     0.286 C 
HETATM   15  O6  UNK     1      14.842   4.828  10.250  1.00  0.00    -0.263 OA
BRANCH  14  16
HETATM   16  C10 UNK     1      13.075   5.478   8.733  1.00  0.00     0.183 C 
HETATM   17  C18 UNK     1      13.707   5.964   7.437  1.00  0.00     0.043 C 
BRANCH  16  18
HETATM   18  N1  UNK     1      11.814   6.137   8.952  1.00  0.00    -0.323 N 
HETATM   19  C15 UNK     1      10.638   5.473   9.242  1.00  0.00     0.362 C 
HETATM   20  O5  UNK     1      10.513   4.257   9.349  1.00  0.00    -0.238 OA
HETATM   21  H13 UNK     1      11.789   7.153   8.946  1.00  0.00     0.165 HD
BRANCH  19  22
HETATM   22  O1  UNK     1       9.621   6.373   9.394  1.00  0.00    -0.294 OA
BRANCH  22  23
HETATM   23  C1  UNK     1       8.543   6.260   8.458  1.00  0.00     0.061 C 
HETATM   24  C2  UNK     1       7.712   5.030   8.818  1.00  0.00     0.046 C 
HETATM   25  C3  UNK     1       7.701   7.530   8.571  1.00  0.00     0.046 C 
HETATM   26  C4  UNK     1       9.130   6.129   7.053  1.00  0.00     0.046 C 
ENDBRANCH  22  23
ENDBRANCH  19  22
ENDBRANCH  16  18
ENDBRANCH  14  16
ENDBRANCH  13  14
ENDBRANCH   9  13
BRANCH   3  27
HETATM   27  C11 UNK     1      18.173  12.902   7.736  1.00  0.00    -0.019 A 
HETATM   28  C20 UNK     1      18.853  12.767   6.527  1.00  0.00     0.015 A 
HETATM   29  C22 UNK     1      19.745  13.758   6.118  1.00  0.00     0.037 A 
HETATM   30  C24 UNK     1      19.955  14.881   6.918  1.00  0.00     0.102 A 
HETATM   31  C23 UNK     1      19.273  15.013   8.127  1.00  0.00     0.037 A 
HETATM   32  C21 UNK     1      18.381  14.023   8.537  1.00  0.00     0.015 A 
BRANCH  30  33
HETATM   33  N2  UNK     1      20.864  15.891   6.502  1.00  0.00    -0.116 N 
HETATM   34  O7  UNK     1      20.558  17.095   6.679  1.00  0.00    -0.532 OA
HETATM   35  O8  UNK     1      21.948  15.551   5.969  1.00  0.00    -0.532 OA
ENDBRANCH  30  33
ENDBRANCH   3  27
TORSDOF 8
ENDMDL
MODEL 8
REMARK VINA RESULT:      -8.3      2.690      4.624
REMARK  8 active torsions:
REMARK  status: ('A' for Active; 'I' for Inactive)
REMARK    1  A    between atoms: C1_11  and  O1_1 
REMARK    2  A    between atoms: C15_25  and  O1_1 
REMARK    3  A    between atoms: C13_23  and  O3_3 
REMARK    4  A    between atoms: C17_27  and  O3_3 
REMARK    5  A    between atoms: C10_20  and  N1_9 
REMARK       I    between atoms: C15_25  and  N1_9 
REMARK    6  A    between atoms: C24_34  and  N2_10 
REMARK    7  A    between atoms: C11_21  and  C5_15 
REMARK    8  A    between atoms: C10_20  and  C17_27 
ROOT
HETATM    1  O2  UNK     1      28.079  -8.205  38.610  1.00  0.00    -0.313 OA
HETATM    2  O4  UNK     1      25.217  -5.317  38.690  1.00  0.00    -0.286 OA
HETATM    3  C5  UNK     1      25.728  -7.640  38.648  1.00  0.00     0.054 A 
HETATM    4  C6  UNK     1      27.505  -5.853  38.657  1.00  0.00     0.049 A 
HETATM    5  C7  UNK     1      28.437  -6.885  38.630  1.00  0.00     0.092 A 
HETATM    6  C8  UNK     1      26.075  -6.190  38.666  1.00  0.00     0.198 A 
HETATM    7  C9  UNK     1      26.732  -8.543  38.621  1.00  0.00     0.065 A 
HETATM    8  C12 UNK     1      29.801  -6.593  38.622  1.00  0.00     0.075 A 
HETATM    9  C13 UNK     1      30.228  -5.265  38.641  1.00  0.00     0.082 A 
HETATM   10  C14 UNK     1      27.927  -4.520  38.676  1.00  0.00     0.021 A 
HETATM   11  C16 UNK     1      29.293  -4.230  38.668  1.00  0.00     0.038 A 
HETATM   12  C19 UNK     1      26.541 -10.034  38.599  1.00  0.00     0.077 C 
ENDROOT
BRANCH   9  13
HETATM   13  O3  UNK     1      31.559  -4.978  38.633  1.00  0.00    -0.277 OA
BRANCH  13  14
HETATM   14  C17 UNK     1      32.280  -5.584  37.593  1.00  0.00     0.286 C 
HETATM   15  O6  UNK     1      32.977  -6.586  37.722  1.00  0.00    -0.263 OA
BRANCH  14  16
HETATM   16  C10 UNK     1      32.105  -4.870  36.259  1.00  0.00     0.183 C 
HETATM   17  C18 UNK     1      32.217  -3.365  36.449  1.00  0.00     0.043 C 
BRANCH  16  18
HETATM   18  N1  UNK     1      30.854  -5.202  35.629  1.00  0.00    -0.323 N 
HETATM   19  C15 UNK     1      30.641  -6.357  34.900  1.00  0.00     0.362 C 
HETATM   20  O5  UNK     1      31.472  -7.234  34.696  1.00  0.00    -0.238 OA
HETATM   21  H13 UNK     1      30.060  -4.582  35.768  1.00  0.00     0.165 HD
BRANCH  19  22
HETATM   22  O1  UNK     1      29.357  -6.381  34.433  1.00  0.00    -0.294 OA
BRANCH  22  23
HETATM   23  C1  UNK     1      29.210  -6.349  33.009  1.00  0.00     0.061 C 
HETATM   24  C2  UNK     1      30.193  -5.327  32.441  1.00  0.00     0.046 C 
HETATM   25  C3  UNK     1      29.524  -7.748  32.483  1.00  0.00     0.046 C 
HETATM   26  C4  UNK     1      27.769  -5.962  32.678  1.00  0.00     0.046 C 
ENDBRANCH  22  23
ENDBRANCH  19  22
ENDBRANCH  16  18
ENDBRANCH  14  16
ENDBRANCH  13  14
ENDBRANCH   9  13
BRANCH   3  27
HETATM   27  C11 UNK     1      24.326  -8.038  38.658  1.00  0.00    -0.019 A 
HETATM   28  C20 UNK     1      23.600  -7.997  39.847  1.00  0.00     0.015 A 
HETATM   29  C22 UNK     1      22.258  -8.376  39.855  1.00  0.00     0.037 A 
HETATM   30  C24 UNK     1      21.645  -8.796  38.674  1.00  0.00     0.102 A 
HETATM   31  C23 UNK     1      22.374  -8.836  37.486  1.00  0.00     0.037 A 
HETATM   32  C21 UNK     1      23.716  -8.457  37.478  1.00  0.00     0.015 A 
BRANCH  30  33
HETATM   33  N2  UNK     1      20.278  -9.183  38.682  1.00  0.00    -0.116 N 
HETATM   34  O7  UNK     1      19.981 -10.372  38.412  1.00  0.00    -0.532 OA
HETATM   35  O8  UNK     1      19.405  -8.325  38.958  1.00  0.00    -0.532 OA
ENDBRANCH  30  33
ENDBRANCH   3  27
TORSDOF 8
ENDMDL
MODEL 9
REMARK VINA RESULT:      -8.3     17.806     20.777
REMARK  8 active torsions:
REMARK  status: ('A' for Active; 'I' for Inactive)
REMARK    1  A    between atoms: C1_11  and  O1_1 
REMARK    2  A    between atoms: C15_25  and  O1_1 
REMARK    3  A    between atoms: C13_23  and  O3_3 
REMARK    4  A    between atoms: C17_27  and  O3_3 
REMARK    5  A    between atoms: C10_20  and  N1_9 
REMARK       I    between atoms: C15_25  and  N1_9 
REMARK    6  A    between atoms: C24_34  and  N2_10 
REMARK    7  A    between atoms: C11_21  and  C5_15 
REMARK    8  A    between atoms: C10_20  and  C17_27 
ROOT
HETATM    1  O2  UNK     1      18.991   8.501  33.735  1.00  0.00    -0.313 OA
HETATM    2  O4  UNK     1      15.895   7.152  31.467  1.00  0.00    -0.286 OA
HETATM    3  C5  UNK     1      18.130   6.827  32.216  1.00  0.00     0.054 A 
HETATM    4  C6  UNK     1      16.718   8.783  32.946  1.00  0.00     0.049 A 
HETATM    5  C7  UNK     1      17.811   9.193  33.702  1.00  0.00     0.092 A 
HETATM    6  C8  UNK     1      16.830   7.554  32.149  1.00  0.00     0.198 A 
HETATM    7  C9  UNK     1      19.113   7.335  32.990  1.00  0.00     0.065 A 
HETATM    8  C12 UNK     1      17.731  10.355  34.470  1.00  0.00     0.075 A 
HETATM    9  C13 UNK     1      16.555  11.105  34.476  1.00  0.00     0.082 A 
HETATM   10  C14 UNK     1      15.537   9.530  32.950  1.00  0.00     0.021 A 
HETATM   11  C16 UNK     1      15.459  10.693  33.718  1.00  0.00     0.038 A 
HETATM   12  C19 UNK     1      20.475   6.719  33.157  1.00  0.00     0.077 C 
ENDROOT
BRANCH   9  13
HETATM   13  O3  UNK     1      16.476  12.240  35.225  1.00  0.00    -0.277 OA
BRANCH  13  14
HETATM   14  C17 UNK     1      17.532  13.143  35.028  1.00  0.00     0.286 C 
HETATM   15  O6  UNK     1      18.670  12.986  35.459  1.00  0.00    -0.263 OA
BRANCH  14  16
HETATM   16  C10 UNK     1      17.124  14.358  34.204  1.00  0.00     0.183 C 
HETATM   17  C18 UNK     1      15.614  14.535  34.240  1.00  0.00     0.043 C 
BRANCH  16  18
HETATM   18  N1  UNK     1      17.585  14.265  32.843  1.00  0.00    -0.323 N 
HETATM   19  C15 UNK     1      18.787  14.784  32.400  1.00  0.00     0.362 C 
HETATM   20  O5  UNK     1      19.605  15.380  33.092  1.00  0.00    -0.238 OA
HETATM   21  H13 UNK     1      17.024  13.744  32.175  1.00  0.00     0.165 HD
BRANCH  19  22
HETATM   22  O1  UNK     1      18.935  14.535  31.064  1.00  0.00    -0.294 OA
BRANCH  22  23
HETATM   23  C1  UNK     1      18.757  15.660  30.196  1.00  0.00     0.061 C 
HETATM   24  C2  UNK     1      20.132  16.224  29.843  1.00  0.00     0.046 C 
HETATM   25  C3  UNK     1      18.041  15.164  28.942  1.00  0.00     0.046 C 
HETATM   26  C4  UNK     1      17.910  16.705  30.921  1.00  0.00     0.046 C 
ENDBRANCH  22  23
ENDBRANCH  19  22
ENDBRANCH  16  18
ENDBRANCH  14  16
ENDBRANCH  13  14
ENDBRANCH   9  13
BRANCH   3  27
HETATM   27  C11 UNK     1      18.301   5.601  31.449  1.00  0.00    -0.019 A 
HETATM   28  C20 UNK     1      18.819   5.656  30.156  1.00  0.00     0.015 A 
HETATM   29  C22 UNK     1      18.986   4.480  29.423  1.00  0.00     0.037 A 
HETATM   30  C24 UNK     1      18.634   3.253  29.985  1.00  0.00     0.102 A 
HETATM   31  C23 UNK     1      18.116   3.201  31.279  1.00  0.00     0.037 A 
HETATM   32  C21 UNK     1      17.950   4.375  32.012  1.00  0.00     0.015 A 
BRANCH  30  33
HETATM   33  N2  UNK     1      18.803   2.055  29.240  1.00  0.00    -0.116 N 
HETATM   34  O7  UNK     1      19.570   1.167  29.682  1.00  0.00    -0.532 OA
HETATM   35  O8  UNK     1      18.179   1.919  28.159  1.00  0.00    -0.532 OA
ENDBRANCH  30  33
ENDBRANCH   3  27
TORSDOF 8
ENDMDL
MODEL 10
REMARK VINA RESULT:      -8.3     16.785     20.539
REMARK  8 active torsions:
REMARK  status: ('A' for Active; 'I' for Inactive)
REMARK    1  A    between atoms: C1_11  and  O1_1 
REMARK    2  A    between atoms: C15_25  and  O1_1 
REMARK    3  A    between atoms: C13_23  and  O3_3 
REMARK    4  A    between atoms: C17_27  and  O3_3 
REMARK    5  A    between atoms: C10_20  and  N1_9 
REMARK       I    between atoms: C15_25  and  N1_9 
REMARK    6  A    between atoms: C24_34  and  N2_10 
REMARK    7  A    between atoms: C11_21  and  C5_15 
REMARK    8  A    between atoms: C10_20  and  C17_27 
ROOT
HETATM    1  O2  UNK     1      19.477   8.267  33.498  1.00  0.00    -0.313 OA
HETATM    2  O4  UNK     1      16.102   6.777  31.782  1.00  0.00    -0.286 OA
HETATM    3  C5  UNK     1      18.420   6.493  32.238  1.00  0.00     0.054 A 
HETATM    4  C6  UNK     1      17.116   8.506  33.011  1.00  0.00     0.049 A 
HETATM    5  C7  UNK     1      18.302   8.962  33.577  1.00  0.00     0.092 A 
HETATM    6  C8  UNK     1      17.121   7.222  32.298  1.00  0.00     0.198 A 
HETATM    7  C9  UNK     1      19.499   7.049  32.830  1.00  0.00     0.065 A 
HETATM    8  C12 UNK     1      18.325  10.178  34.261  1.00  0.00     0.075 A 
HETATM    9  C13 UNK     1      17.158  10.934  34.375  1.00  0.00     0.082 A 
HETATM   10  C14 UNK     1      15.944   9.260  33.122  1.00  0.00     0.021 A 
HETATM   11  C16 UNK     1      15.970  10.476  33.806  1.00  0.00     0.038 A 
HETATM   12  C19 UNK     1      20.873   6.437  32.852  1.00  0.00     0.077 C 
ENDROOT
BRANCH   9  13
HETATM   13  O3  UNK     1      17.179  12.121  35.041  1.00  0.00    -0.277 OA
BRANCH  13  14
HETATM   14  C17 UNK     1      16.420  13.140  34.445  1.00  0.00     0.286 C 
HETATM   15  O6  UNK     1      16.659  13.632  33.347  1.00  0.00    -0.263 OA
BRANCH  14  16
HETATM   16  C10 UNK     1      15.242  13.579  35.305  1.00  0.00     0.183 C 
HETATM   17  C18 UNK     1      15.399  15.037  35.709  1.00  0.00     0.043 C 
BRANCH  16  18
HETATM   18  N1  UNK     1      15.089  12.750  36.473  1.00  0.00    -0.323 N 
HETATM   19  C15 UNK     1      14.003  11.924  36.694  1.00  0.00     0.362 C 
HETATM   20  O5  UNK     1      13.045  11.789  35.941  1.00  0.00    -0.238 OA
HETATM   21  H13 UNK     1      15.843  12.727  37.154  1.00  0.00     0.165 HD
BRANCH  19  22
HETATM   22  O1  UNK     1      14.151  11.272  37.885  1.00  0.00    -0.294 OA
BRANCH  22  23
HETATM   23  C1  UNK     1      13.468  11.851  39.003  1.00  0.00     0.061 C 
HETATM   24  C2  UNK     1      13.225  13.331  38.711  1.00  0.00     0.046 C 
HETATM   25  C3  UNK     1      12.143  11.111  39.166  1.00  0.00     0.046 C 
HETATM   26  C4  UNK     1      14.338  11.677  40.247  1.00  0.00     0.046 C 
ENDBRANCH  22  23
ENDBRANCH  19  22
ENDBRANCH  16  18
ENDBRANCH  14  16
ENDBRANCH  13  14
ENDBRANCH   9  13
BRANCH   3  27
HETATM   27  C11 UNK     1      18.489   5.212  31.547  1.00  0.00    -0.019 A 
HETATM   28  C20 UNK     1      18.167   4.038  32.225  1.00  0.00     0.015 A 
HETATM   29  C22 UNK     1      18.231   2.812  31.561  1.00  0.00     0.037 A 
HETATM   30  C24 UNK     1      18.616   2.764  30.221  1.00  0.00     0.102 A 
HETATM   31  C23 UNK     1      18.937   3.941  29.545  1.00  0.00     0.037 A 
HETATM   32  C21 UNK     1      18.874   5.166  30.208  1.00  0.00     0.015 A 
BRANCH  30  33
HETATM   33  N2  UNK     1      18.682   1.517  29.544  1.00  0.00    -0.116 N 
HETATM   34  O7  UNK     1      18.219   1.431  28.381  1.00  0.00    -0.532 OA
HETATM   35  O8  UNK     1      19.201   0.535  30.128  1.00  0.00    -0.532 OA
ENDBRANCH  30  33
ENDBRANCH   3  27
TORSDOF 8
ENDMDL
