MODEL 1
REMARK VINA RESULT:      -9.9      0.000      0.000
REMARK  7 active torsions:
REMARK  status: ('A' for Active; 'I' for Inactive)
REMARK    1  A    between atoms: C15_24  and  O3_5 
REMARK    2  A    between atoms: C20_29  and  O3_5 
REMARK    3  A    between atoms: C5_14  and  N1_7 
REMARK    4  A    between atoms: C6_15  and  N2_8 
REMARK    5  A    between atoms: C17_26  and  N3_9 
REMARK       I    between atoms: C9_18  and  N3_9 
REMARK    6  A    between atoms: C5_14  and  C7_16 
REMARK    7  A    between atoms: C6_15  and  C9_18 
ROOT
HETATM    1  N1  UNK     1      19.227  -3.766  36.412  1.00  0.00     0.096 N 
HETATM    2  N2  UNK     1      18.996  -0.968  35.723  1.00  0.00     0.100 N 
HETATM    3  C1  UNK     1      20.310  -3.061  35.717  1.00  0.00     0.303 C 
HETATM    4  C2  UNK     1      18.464  -2.836  37.252  1.00  0.00     0.303 C 
HETATM    5  C3  UNK     1      19.757  -1.900  34.882  1.00  0.00     0.303 C 
HETATM    6  C4  UNK     1      17.912  -1.674  36.418  1.00  0.00     0.303 C 
ENDROOT
BRANCH   1   7
HETATM    7  C5  UNK     1      19.756  -4.871  37.210  1.00  0.00     0.312 C 
BRANCH   7   8
HETATM    8  C7  UNK     1      19.151  -6.178  36.830  1.00  0.00    -0.011 A 
HETATM    9  C10 UNK     1      18.168  -6.248  35.923  1.00  0.00     0.092 A 
HETATM   10  C13 UNK     1      17.539  -7.516  35.515  1.00  0.00     0.288 A 
HETATM   11  O1  UNK     1      18.013  -8.669  36.120  1.00  0.00    -0.275 OA
HETATM   12  O4  UNK     1      16.641  -7.542  34.681  1.00  0.00    -0.260 OA
HETATM   13  C11 UNK     1      19.046  -8.628  37.079  1.00  0.00     0.090 A 
HETATM   14  C8  UNK     1      19.633  -7.418  37.455  1.00  0.00     0.009 A 
HETATM   15  C14 UNK     1      19.443  -9.849  37.623  1.00  0.00     0.041 A 
HETATM   16  C12 UNK     1      20.652  -7.461  38.415  1.00  0.00     0.051 A 
HETATM   17  C15 UNK     1      21.061  -8.678  38.970  1.00  0.00     0.069 A 
HETATM   18  C16 UNK     1      20.458  -9.871  38.575  1.00  0.00     0.039 A 
BRANCH  17  19
HETATM   19  O3  UNK     1      22.054  -8.698  39.902  1.00  0.00    -0.351 OA
BRANCH  19  20
HETATM   20  C20 UNK     1      22.968  -7.603  39.899  1.00  0.00     0.171 C 
HETATM   21  C24 UNK     1      24.156  -7.955  39.029  1.00  0.00     0.034 C 
ENDBRANCH  19  20
ENDBRANCH  17  19
ENDBRANCH   7   8
ENDBRANCH   1   7
BRANCH   2  22
HETATM   22  C6  UNK     1      18.468   0.137  34.926  1.00  0.00     0.375 C 
BRANCH  22  23
HETATM   23  C9  UNK     1      18.273  -0.322  33.491  1.00  0.00     0.250 C 
HETATM   24  O2  UNK     1      17.367  -1.079  33.157  1.00  0.00    -0.271 OA
HETATM   25  N3  UNK     1      19.246   0.243  32.669  1.00  0.00    -0.323 N 
HETATM   26  H15 UNK     1      19.928   0.865  33.096  1.00  0.00     0.169 HD
BRANCH  25  27
HETATM   27  C17 UNK     1      19.406   0.065  31.274  1.00  0.00     0.076 A 
HETATM   28  C18 UNK     1      20.148  -1.011  30.786  1.00  0.00     0.143 A 
HETATM   29  F1  UNK     1      20.716  -1.884  31.631  1.00  0.00    -0.204 F 
HETATM   30  C22 UNK     1      20.304  -1.184  29.411  1.00  0.00     0.047 A 
HETATM   31  C23 UNK     1      19.719  -0.282  28.523  1.00  0.00     0.045 A 
HETATM   32  C21 UNK     1      18.977   0.794  29.010  1.00  0.00     0.118 A 
HETATM   33  C19 UNK     1      18.820   0.967  30.386  1.00  0.00     0.074 A 
HETATM   34  F2  UNK     1      18.414   1.660  28.158  1.00  0.00    -0.206 F 
ENDBRANCH  25  27
ENDBRANCH  22  23
ENDBRANCH   2  22
TORSDOF 7
ENDMDL
MODEL 2
REMARK VINA RESULT:      -9.6      7.713     13.872
REMARK  7 active torsions:
REMARK  status: ('A' for Active; 'I' for Inactive)
REMARK    1  A    between atoms: C15_24  and  O3_5 
REMARK    2  A    between atoms: C20_29  and  O3_5 
REMARK    3  A    between atoms: C5_14  and  N1_7 
REMARK    4  A    between atoms: C6_15  and  N2_8 
REMARK    5  A    between atoms: C17_26  and  N3_9 
REMARK       I    between atoms: C9_18  and  N3_9 
REMARK    6  A    between atoms: C5_14  and  C7_16 
REMARK    7  A    between atoms: C6_15  and  C9_18 
ROOT
HETATM    1  N1  UNK     1      18.144   6.209  32.881  1.00  0.00     0.096 N 
HETATM    2  N2  UNK     1      18.184   4.470  30.572  1.00  0.00     0.100 N 
HETATM    3  C1  UNK     1      17.789   6.706  31.546  1.00  0.00     0.303 C 
HETATM    4  C2  UNK     1      17.828   4.780  32.998  1.00  0.00     0.303 C 
HETATM    5  C3  UNK     1      18.503   5.898  30.456  1.00  0.00     0.303 C 
HETATM    6  C4  UNK     1      18.539   3.972  31.907  1.00  0.00     0.303 C 
ENDROOT
BRANCH   1   7
HETATM    7  C5  UNK     1      17.461   6.977  33.920  1.00  0.00     0.312 C 
BRANCH   7   8
HETATM    8  C7  UNK     1      18.038   8.342  34.080  1.00  0.00    -0.011 A 
HETATM    9  C10 UNK     1      19.354   8.520  34.257  1.00  0.00     0.092 A 
HETATM   10  C13 UNK     1      19.969   9.849  34.419  1.00  0.00     0.288 A 
HETATM   11  O1  UNK     1      19.116  10.939  34.382  1.00  0.00    -0.275 OA
HETATM   12  O4  UNK     1      21.178   9.974  34.580  1.00  0.00    -0.260 OA
HETATM   13  C11 UNK     1      17.727  10.783  34.198  1.00  0.00     0.090 A 
HETATM   14  C8  UNK     1      17.158   9.518  34.045  1.00  0.00     0.009 A 
HETATM   15  C14 UNK     1      16.964  11.951  34.178  1.00  0.00     0.041 A 
HETATM   16  C12 UNK     1      15.770   9.447  33.868  1.00  0.00     0.051 A 
HETATM   17  C15 UNK     1      14.991  10.609  33.845  1.00  0.00     0.069 A 
HETATM   18  C16 UNK     1      15.587  11.860  34.001  1.00  0.00     0.039 A 
BRANCH  17  19
HETATM   19  O3  UNK     1      13.643  10.518  33.673  1.00  0.00    -0.351 OA
BRANCH  19  20
HETATM   20  C20 UNK     1      13.043  11.434  32.758  1.00  0.00     0.171 C 
HETATM   21  C24 UNK     1      12.035  12.283  33.500  1.00  0.00     0.034 C 
ENDBRANCH  19  20
ENDBRANCH  17  19
ENDBRANCH   7   8
ENDBRANCH   1   7
BRANCH   2  22
HETATM   22  C6  UNK     1      18.865   3.700  29.533  1.00  0.00     0.375 C 
BRANCH  22  23
HETATM   23  C9  UNK     1      18.582   2.221  29.733  1.00  0.00     0.250 C 
HETATM   24  O2  UNK     1      17.496   1.714  29.473  1.00  0.00    -0.271 OA
HETATM   25  N3  UNK     1      19.714   1.578  30.230  1.00  0.00    -0.323 N 
HETATM   26  H15 UNK     1      20.550   2.136  30.385  1.00  0.00     0.169 HD
BRANCH  25  27
HETATM   27  C17 UNK     1      19.858   0.206  30.547  1.00  0.00     0.076 A 
HETATM   28  C18 UNK     1      20.362  -0.684  29.599  1.00  0.00     0.143 A 
HETATM   29  F1  UNK     1      20.713  -0.251  28.379  1.00  0.00    -0.204 F 
HETATM   30  C22 UNK     1      20.502  -2.035  29.915  1.00  0.00     0.047 A 
HETATM   31  C23 UNK     1      20.139  -2.498  31.179  1.00  0.00     0.045 A 
HETATM   32  C21 UNK     1      19.635  -1.609  32.128  1.00  0.00     0.118 A 
HETATM   33  C19 UNK     1      19.495  -0.256  31.813  1.00  0.00     0.074 A 
HETATM   34  F2  UNK     1      19.287  -2.052  33.343  1.00  0.00    -0.206 F 
ENDBRANCH  25  27
ENDBRANCH  22  23
ENDBRANCH   2  22
TORSDOF 7
ENDMDL
MODEL 3
REMARK VINA RESULT:      -9.6      2.532      3.077
REMARK  7 active torsions:
REMARK  status: ('A' for Active; 'I' for Inactive)
REMARK    1  A    between atoms: C15_24  and  O3_5 
REMARK    2  A    between atoms: C20_29  and  O3_5 
REMARK    3  A    between atoms: C5_14  and  N1_7 
REMARK    4  A    between atoms: C6_15  and  N2_8 
REMARK    5  A    between atoms: C17_26  and  N3_9 
REMARK       I    between atoms: C9_18  and  N3_9 
REMARK    6  A    between atoms: C5_14  and  C7_16 
REMARK    7  A    between atoms: C6_15  and  C9_18 
ROOT
HETATM    1  N1  UNK     1      19.256  -3.051  36.265  1.00  0.00     0.096 N 
HETATM    2  N2  UNK     1      18.371  -0.434  35.414  1.00  0.00     0.100 N 
HETATM    3  C1  UNK     1      19.955  -2.319  35.203  1.00  0.00     0.303 C 
HETATM    4  C2  UNK     1      18.628  -2.117  37.206  1.00  0.00     0.303 C 
HETATM    5  C3  UNK     1      18.996  -1.371  34.473  1.00  0.00     0.303 C 
HETATM    6  C4  UNK     1      17.671  -1.167  36.477  1.00  0.00     0.303 C 
ENDROOT
BRANCH   1   7
HETATM    7  C5  UNK     1      20.171  -3.953  36.963  1.00  0.00     0.312 C 
BRANCH   7   8
HETATM    8  C7  UNK     1      19.801  -5.384  36.776  1.00  0.00    -0.011 A 
HETATM    9  C10 UNK     1      18.658  -5.729  36.168  1.00  0.00     0.092 A 
HETATM   10  C13 UNK     1      18.250  -7.129  35.960  1.00  0.00     0.288 A 
HETATM   11  O1  UNK     1      19.113  -8.106  36.430  1.00  0.00    -0.275 OA
HETATM   12  O4  UNK     1      17.196  -7.408  35.399  1.00  0.00    -0.260 OA
HETATM   13  C11 UNK     1      20.322  -7.774  37.074  1.00  0.00     0.090 A 
HETATM   14  C8  UNK     1      20.696  -6.442  37.263  1.00  0.00     0.009 A 
HETATM   15  C14 UNK     1      21.113  -8.839  37.507  1.00  0.00     0.041 A 
HETATM   16  C12 UNK     1      21.912  -6.195  37.914  1.00  0.00     0.051 A 
HETATM   17  C15 UNK     1      22.716  -7.252  38.354  1.00  0.00     0.069 A 
HETATM   18  C16 UNK     1      22.317  -8.572  38.151  1.00  0.00     0.039 A 
BRANCH  17  19
HETATM   19  O3  UNK     1      23.894  -6.990  38.985  1.00  0.00    -0.351 OA
BRANCH  19  20
HETATM   20  C20 UNK     1      24.888  -8.012  38.953  1.00  0.00     0.171 C 
HETATM   21  C24 UNK     1      26.211  -7.402  38.541  1.00  0.00     0.034 C 
ENDBRANCH  19  20
ENDBRANCH  17  19
ENDBRANCH   7   8
ENDBRANCH   1   7
BRANCH   2  22
HETATM   22  C6  UNK     1      17.457   0.469  34.718  1.00  0.00     0.375 C 
BRANCH  22  23
HETATM   23  C9  UNK     1      18.202   1.729  34.312  1.00  0.00     0.250 C 
HETATM   24  O2  UNK     1      19.082   2.229  35.006  1.00  0.00    -0.271 OA
HETATM   25  N3  UNK     1      17.739   2.185  33.079  1.00  0.00    -0.323 N 
HETATM   26  H15 UNK     1      17.006   1.651  32.618  1.00  0.00     0.169 HD
BRANCH  25  27
HETATM   27  C17 UNK     1      18.177   3.324  32.361  1.00  0.00     0.076 A 
HETATM   28  C18 UNK     1      18.545   3.208  31.021  1.00  0.00     0.143 A 
HETATM   29  F1  UNK     1      18.491   2.020  30.401  1.00  0.00    -0.204 F 
HETATM   30  C22 UNK     1      18.976   4.331  30.316  1.00  0.00     0.047 A 
HETATM   31  C23 UNK     1      19.038   5.571  30.950  1.00  0.00     0.045 A 
HETATM   32  C21 UNK     1      18.670   5.688  32.291  1.00  0.00     0.118 A 
HETATM   33  C19 UNK     1      18.238   4.565  32.996  1.00  0.00     0.074 A 
HETATM   34  F2  UNK     1      18.728   6.879  32.900  1.00  0.00    -0.206 F 
ENDBRANCH  25  27
ENDBRANCH  22  23
ENDBRANCH   2  22
TORSDOF 7
ENDMDL
MODEL 4
REMARK VINA RESULT:      -9.5      3.876      9.794
REMARK  7 active torsions:
REMARK  status: ('A' for Active; 'I' for Inactive)
REMARK    1  A    between atoms: C15_24  and  O3_5 
REMARK    2  A    between atoms: C20_29  and  O3_5 
REMARK    3  A    between atoms: C5_14  and  N1_7 
REMARK    4  A    between atoms: C6_15  and  N2_8 
REMARK    5  A    between atoms: C17_26  and  N3_9 
REMARK       I    between atoms: C9_18  and  N3_9 
REMARK    6  A    between atoms: C5_14  and  C7_16 
REMARK    7  A    between atoms: C6_15  and  C9_18 
ROOT
HETATM    1  N1  UNK     1      19.945  -4.741  36.614  1.00  0.00     0.096 N 
HETATM    2  N2  UNK     1      20.063  -7.629  36.636  1.00  0.00     0.100 N 
HETATM    3  C1  UNK     1      20.509  -5.472  37.755  1.00  0.00     0.303 C 
HETATM    4  C2  UNK     1      20.125  -5.505  35.374  1.00  0.00     0.303 C 
HETATM    5  C3  UNK     1      19.879  -6.865  37.875  1.00  0.00     0.303 C 
HETATM    6  C4  UNK     1      19.498  -6.898  35.494  1.00  0.00     0.303 C 
ENDROOT
BRANCH   1   7
HETATM    7  C5  UNK     1      20.548  -3.414  36.498  1.00  0.00     0.312 C 
BRANCH   7   8
HETATM    8  C7  UNK     1      19.539  -2.365  36.180  1.00  0.00    -0.011 A 
HETATM    9  C10 UNK     1      18.744  -1.858  37.132  1.00  0.00     0.092 A 
HETATM   10  C13 UNK     1      17.733  -0.821  36.866  1.00  0.00     0.288 A 
HETATM   11  O1  UNK     1      17.630  -0.373  35.559  1.00  0.00    -0.275 OA
HETATM   12  O4  UNK     1      17.022  -0.381  37.763  1.00  0.00    -0.260 OA
HETATM   13  C11 UNK     1      18.451  -0.886  34.536  1.00  0.00     0.090 A 
HETATM   14  C8  UNK     1      19.406  -1.870  34.803  1.00  0.00     0.009 A 
HETATM   15  C14 UNK     1      18.259  -0.362  33.257  1.00  0.00     0.041 A 
HETATM   16  C12 UNK     1      20.182  -2.330  33.732  1.00  0.00     0.051 A 
HETATM   17  C15 UNK     1      20.001  -1.813  32.443  1.00  0.00     0.069 A 
HETATM   18  C16 UNK     1      19.041  -0.832  32.206  1.00  0.00     0.039 A 
BRANCH  17  19
HETATM   19  O3  UNK     1      20.767  -2.275  31.415  1.00  0.00    -0.351 OA
BRANCH  19  20
HETATM   20  C20 UNK     1      20.215  -2.180  30.103  1.00  0.00     0.171 C 
HETATM   21  C24 UNK     1      20.892  -1.047  29.364  1.00  0.00     0.034 C 
ENDBRANCH  19  20
ENDBRANCH  17  19
ENDBRANCH   7   8
ENDBRANCH   1   7
BRANCH   2  22
HETATM   22  C6  UNK     1      19.462  -8.956  36.751  1.00  0.00     0.375 C 
BRANCH  22  23
HETATM   23  C9  UNK     1      20.556  -9.992  36.940  1.00  0.00     0.250 C 
HETATM   24  O2  UNK     1      20.370 -11.051  37.531  1.00  0.00    -0.271 OA
HETATM   25  N3  UNK     1      21.740  -9.554  36.350  1.00  0.00    -0.323 N 
HETATM   26  H15 UNK     1      21.734  -8.650  35.884  1.00  0.00     0.169 HD
BRANCH  25  27
HETATM   27  C17 UNK     1      22.985 -10.227  36.308  1.00  0.00     0.076 A 
HETATM   28  C18 UNK     1      24.137  -9.600  36.781  1.00  0.00     0.143 A 
HETATM   29  F1  UNK     1      24.079  -8.355  37.277  1.00  0.00    -0.204 F 
HETATM   30  C22 UNK     1      25.361 -10.267  36.738  1.00  0.00     0.047 A 
HETATM   31  C23 UNK     1      25.434 -11.560  36.223  1.00  0.00     0.045 A 
HETATM   32  C21 UNK     1      24.282 -12.188  35.750  1.00  0.00     0.118 A 
HETATM   33  C19 UNK     1      23.057 -11.522  35.793  1.00  0.00     0.074 A 
HETATM   34  F2  UNK     1      24.351 -13.431  35.256  1.00  0.00    -0.206 F 
ENDBRANCH  25  27
ENDBRANCH  22  23
ENDBRANCH   2  22
TORSDOF 7
ENDMDL
MODEL 5
REMARK VINA RESULT:      -9.5      6.539     10.251
REMARK  7 active torsions:
REMARK  status: ('A' for Active; 'I' for Inactive)
REMARK    1  A    between atoms: C15_24  and  O3_5 
REMARK    2  A    between atoms: C20_29  and  O3_5 
REMARK    3  A    between atoms: C5_14  and  N1_7 
REMARK    4  A    between atoms: C6_15  and  N2_8 
REMARK    5  A    between atoms: C17_26  and  N3_9 
REMARK       I    between atoms: C9_18  and  N3_9 
REMARK    6  A    between atoms: C5_14  and  C7_16 
REMARK    7  A    between atoms: C6_15  and  C9_18 
ROOT
HETATM    1  N1  UNK     1      18.886   3.659  31.266  1.00  0.00     0.096 N 
HETATM    2  N2  UNK     1      19.203   6.325  32.340  1.00  0.00     0.100 N 
HETATM    3  C1  UNK     1      18.026   4.152  32.348  1.00  0.00     0.303 C 
HETATM    4  C2  UNK     1      19.338   4.772  30.422  1.00  0.00     0.303 C 
HETATM    5  C3  UNK     1      18.754   5.211  33.184  1.00  0.00     0.303 C 
HETATM    6  C4  UNK     1      20.064   5.831  31.257  1.00  0.00     0.303 C 
ENDROOT
BRANCH   1   7
HETATM    7  C5  UNK     1      18.190   2.652  30.468  1.00  0.00     0.312 C 
BRANCH   7   8
HETATM    8  C7  UNK     1      18.924   1.356  30.434  1.00  0.00    -0.011 A 
HETATM    9  C10 UNK     1      19.582   0.961  29.335  1.00  0.00     0.092 A 
HETATM   10  C13 UNK     1      20.321  -0.310  29.255  1.00  0.00     0.288 A 
HETATM   11  O1  UNK     1      20.313  -1.108  30.387  1.00  0.00    -0.275 OA
HETATM   12  O4  UNK     1      20.912  -0.639  28.232  1.00  0.00    -0.260 OA
HETATM   13  C11 UNK     1      19.630  -0.721  31.558  1.00  0.00     0.090 A 
HETATM   14  C8  UNK     1      18.934   0.488  31.619  1.00  0.00     0.009 A 
HETATM   15  C14 UNK     1      19.689  -1.603  32.637  1.00  0.00     0.041 A 
HETATM   16  C12 UNK     1      18.279   0.800  32.818  1.00  0.00     0.051 A 
HETATM   17  C15 UNK     1      18.329  -0.075  33.910  1.00  0.00     0.069 A 
HETATM   18  C16 UNK     1      19.032  -1.275  33.819  1.00  0.00     0.039 A 
BRANCH  17  19
HETATM   19  O3  UNK     1      17.685   0.248  35.066  1.00  0.00    -0.351 OA
BRANCH  19  20
HETATM   20  C20 UNK     1      18.498   0.547  36.199  1.00  0.00     0.171 C 
HETATM   21  C24 UNK     1      19.053   1.948  36.052  1.00  0.00     0.034 C 
ENDBRANCH  19  20
ENDBRANCH  17  19
ENDBRANCH   7   8
ENDBRANCH   1   7
BRANCH   2  22
HETATM   22  C6  UNK     1      19.897   7.333  33.137  1.00  0.00     0.375 C 
BRANCH  22  23
HETATM   23  C9  UNK     1      18.915   7.984  34.096  1.00  0.00     0.250 C 
HETATM   24  O2  UNK     1      19.002   7.865  35.314  1.00  0.00    -0.271 OA
HETATM   25  N3  UNK     1      17.956   8.705  33.386  1.00  0.00    -0.323 N 
HETATM   26  H15 UNK     1      18.024   8.717  32.372  1.00  0.00     0.169 HD
BRANCH  25  27
HETATM   27  C17 UNK     1      16.874   9.450  33.911  1.00  0.00     0.076 A 
HETATM   28  C18 UNK     1      15.657   8.824  34.180  1.00  0.00     0.143 A 
HETATM   29  F1  UNK     1      15.500   7.513  33.943  1.00  0.00    -0.204 F 
HETATM   30  C22 UNK     1      14.592   9.561  34.698  1.00  0.00     0.047 A 
HETATM   31  C23 UNK     1      14.743  10.924  34.947  1.00  0.00     0.045 A 
HETATM   32  C21 UNK     1      15.960  11.552  34.678  1.00  0.00     0.118 A 
HETATM   33  C19 UNK     1      17.026  10.815  34.161  1.00  0.00     0.074 A 
HETATM   34  F2  UNK     1      16.106  12.861  34.919  1.00  0.00    -0.206 F 
ENDBRANCH  25  27
ENDBRANCH  22  23
ENDBRANCH   2  22
TORSDOF 7
ENDMDL
MODEL 6
REMARK VINA RESULT:      -9.3      7.753     13.723
REMARK  7 active torsions:
REMARK  status: ('A' for Active; 'I' for Inactive)
REMARK    1  A    between atoms: C15_24  and  O3_5 
REMARK    2  A    between atoms: C20_29  and  O3_5 
REMARK    3  A    between atoms: C5_14  and  N1_7 
REMARK    4  A    between atoms: C6_15  and  N2_8 
REMARK    5  A    between atoms: C17_26  and  N3_9 
REMARK       I    between atoms: C9_18  and  N3_9 
REMARK    6  A    between atoms: C5_14  and  C7_16 
REMARK    7  A    between atoms: C6_15  and  C9_18 
ROOT
HETATM    1  N1  UNK     1      18.444   6.731  33.220  1.00  0.00     0.096 N 
HETATM    2  N2  UNK     1      18.291   4.886  30.999  1.00  0.00     0.100 N 
HETATM    3  C1  UNK     1      18.015   7.175  31.888  1.00  0.00     0.303 C 
HETATM    4  C2  UNK     1      18.102   5.319  33.425  1.00  0.00     0.303 C 
HETATM    5  C3  UNK     1      18.636   6.298  30.795  1.00  0.00     0.303 C 
HETATM    6  C4  UNK     1      18.720   4.442  32.332  1.00  0.00     0.303 C 
ENDROOT
BRANCH   1   7
HETATM    7  C5  UNK     1      17.850   7.566  34.262  1.00  0.00     0.312 C 
BRANCH   7   8
HETATM    8  C7  UNK     1      16.526   8.115  33.855  1.00  0.00    -0.011 A 
HETATM    9  C10 UNK     1      15.530   7.306  33.469  1.00  0.00     0.092 A 
HETATM   10  C13 UNK     1      14.205   7.802  33.059  1.00  0.00     0.288 A 
HETATM   11  O1  UNK     1      14.018   9.174  33.086  1.00  0.00    -0.275 OA
HETATM   12  O4  UNK     1      13.318   7.031  32.711  1.00  0.00    -0.260 OA
HETATM   13  C11 UNK     1      15.047  10.051  33.487  1.00  0.00     0.090 A 
HETATM   14  C8  UNK     1      16.297   9.567  33.874  1.00  0.00     0.009 A 
HETATM   15  C14 UNK     1      14.747  11.414  33.475  1.00  0.00     0.041 A 
HETATM   16  C12 UNK     1      17.267  10.503  34.256  1.00  0.00     0.051 A 
HETATM   17  C15 UNK     1      16.981  11.873  34.250  1.00  0.00     0.069 A 
HETATM   18  C16 UNK     1      15.723  12.328  33.859  1.00  0.00     0.039 A 
BRANCH  17  19
HETATM   19  O3  UNK     1      17.938  12.766  34.626  1.00  0.00    -0.351 OA
BRANCH  19  20
HETATM   20  C20 UNK     1      17.950  14.024  33.953  1.00  0.00     0.171 C 
HETATM   21  C24 UNK     1      18.793  13.906  32.702  1.00  0.00     0.034 C 
ENDBRANCH  19  20
ENDBRANCH  17  19
ENDBRANCH   7   8
ENDBRANCH   1   7
BRANCH   2  22
HETATM   22  C6  UNK     1      18.883   4.050  29.958  1.00  0.00     0.375 C 
BRANCH  22  23
HETATM   23  C9  UNK     1      18.517   2.597  30.207  1.00  0.00     0.250 C 
HETATM   24  O2  UNK     1      17.356   2.201  30.224  1.00  0.00    -0.271 OA
HETATM   25  N3  UNK     1      19.670   1.837  30.396  1.00  0.00    -0.323 N 
HETATM   26  H15 UNK     1      20.568   2.311  30.341  1.00  0.00     0.169 HD
BRANCH  25  27
HETATM   27  C17 UNK     1      19.755   0.447  30.652  1.00  0.00     0.076 A 
HETATM   28  C18 UNK     1      20.312  -0.408  29.702  1.00  0.00     0.143 A 
HETATM   29  F1  UNK     1      20.770   0.075  28.538  1.00  0.00    -0.204 F 
HETATM   30  C22 UNK     1      20.394  -1.776  29.958  1.00  0.00     0.047 A 
HETATM   31  C23 UNK     1      19.920  -2.291  31.163  1.00  0.00     0.045 A 
HETATM   32  C21 UNK     1      19.362  -1.436  32.115  1.00  0.00     0.118 A 
HETATM   33  C19 UNK     1      19.280  -0.067  31.860  1.00  0.00     0.074 A 
HETATM   34  F2  UNK     1      18.907  -1.929  33.274  1.00  0.00    -0.206 F 
ENDBRANCH  25  27
ENDBRANCH  22  23
ENDBRANCH   2  22
TORSDOF 7
ENDMDL
MODEL 7
REMARK VINA RESULT:      -9.1      4.452     11.026
REMARK  7 active torsions:
REMARK  status: ('A' for Active; 'I' for Inactive)
REMARK    1  A    between atoms: C15_24  and  O3_5 
REMARK    2  A    between atoms: C20_29  and  O3_5 
REMARK    3  A    between atoms: C5_14  and  N1_7 
REMARK    4  A    between atoms: C6_15  and  N2_8 
REMARK    5  A    between atoms: C17_26  and  N3_9 
REMARK       I    between atoms: C9_18  and  N3_9 
REMARK    6  A    between atoms: C5_14  and  C7_16 
REMARK    7  A    between atoms: C6_15  and  C9_18 
ROOT
HETATM    1  N1  UNK     1      17.901   1.489  35.248  1.00  0.00     0.096 N 
HETATM    2  N2  UNK     1      18.321  -1.055  36.555  1.00  0.00     0.100 N 
HETATM    3  C1  UNK     1      17.697   1.332  36.693  1.00  0.00     0.303 C 
HETATM    4  C2  UNK     1      18.915   0.544  34.766  1.00  0.00     0.303 C 
HETATM    5  C3  UNK     1      17.305  -0.110  37.035  1.00  0.00     0.303 C 
HETATM    6  C4  UNK     1      18.524  -0.898  35.109  1.00  0.00     0.303 C 
ENDROOT
BRANCH   1   7
HETATM    7  C5  UNK     1      18.278   2.864  34.923  1.00  0.00     0.312 C 
BRANCH   7   8
HETATM    8  C7  UNK     1      18.319   3.102  33.453  1.00  0.00    -0.011 A 
HETATM    9  C10 UNK     1      18.353   2.080  32.586  1.00  0.00     0.092 A 
HETATM   10  C13 UNK     1      18.395   2.266  31.126  1.00  0.00     0.288 A 
HETATM   11  O1  UNK     1      18.399   3.573  30.665  1.00  0.00    -0.275 OA
HETATM   12  O4  UNK     1      18.427   1.307  30.363  1.00  0.00    -0.260 OA
HETATM   13  C11 UNK     1      18.364   4.668  31.551  1.00  0.00     0.090 A 
HETATM   14  C8  UNK     1      18.324   4.476  32.933  1.00  0.00     0.009 A 
HETATM   15  C14 UNK     1      18.372   5.939  30.975  1.00  0.00     0.041 A 
HETATM   16  C12 UNK     1      18.293   5.616  33.746  1.00  0.00     0.051 A 
HETATM   17  C15 UNK     1      18.299   6.898  33.184  1.00  0.00     0.069 A 
HETATM   18  C16 UNK     1      18.339   7.059  31.800  1.00  0.00     0.039 A 
BRANCH  17  19
HETATM   19  O3  UNK     1      18.269   7.993  33.992  1.00  0.00    -0.351 OA
BRANCH  19  20
HETATM   20  C20 UNK     1      19.334   8.137  34.930  1.00  0.00     0.171 C 
HETATM   21  C24 UNK     1      20.243   9.258  34.476  1.00  0.00     0.034 C 
ENDBRANCH  19  20
ENDBRANCH  17  19
ENDBRANCH   7   8
ENDBRANCH   1   7
BRANCH   2  22
HETATM   22  C6  UNK     1      17.946  -2.429  36.880  1.00  0.00     0.375 C 
BRANCH  22  23
HETATM   23  C9  UNK     1      19.174  -3.320  36.802  1.00  0.00     0.250 C 
HETATM   24  O2  UNK     1      20.316  -2.882  36.906  1.00  0.00    -0.271 OA
HETATM   25  N3  UNK     1      18.795  -4.647  36.610  1.00  0.00    -0.323 N 
HETATM   26  H15 UNK     1      17.800  -4.854  36.554  1.00  0.00     0.169 HD
BRANCH  25  27
HETATM   27  C17 UNK     1      19.638  -5.776  36.487  1.00  0.00     0.076 A 
HETATM   28  C18 UNK     1      20.223  -6.341  37.620  1.00  0.00     0.143 A 
HETATM   29  F1  UNK     1      19.994  -5.820  38.835  1.00  0.00    -0.204 F 
HETATM   30  C22 UNK     1      21.054  -7.454  37.496  1.00  0.00     0.047 A 
HETATM   31  C23 UNK     1      21.300  -8.004  36.238  1.00  0.00     0.045 A 
HETATM   32  C21 UNK     1      20.716  -7.440  35.104  1.00  0.00     0.118 A 
HETATM   33  C19 UNK     1      19.884  -6.327  35.228  1.00  0.00     0.074 A 
HETATM   34  F2  UNK     1      20.951  -7.968  33.896  1.00  0.00    -0.206 F 
ENDBRANCH  25  27
ENDBRANCH  22  23
ENDBRANCH   2  22
TORSDOF 7
ENDMDL
MODEL 8
REMARK VINA RESULT:      -9.1      3.267     10.470
REMARK  7 active torsions:
REMARK  status: ('A' for Active; 'I' for Inactive)
REMARK    1  A    between atoms: C15_24  and  O3_5 
REMARK    2  A    between atoms: C20_29  and  O3_5 
REMARK    3  A    between atoms: C5_14  and  N1_7 
REMARK    4  A    between atoms: C6_15  and  N2_8 
REMARK    5  A    between atoms: C17_26  and  N3_9 
REMARK       I    between atoms: C9_18  and  N3_9 
REMARK    6  A    between atoms: C5_14  and  C7_16 
REMARK    7  A    between atoms: C6_15  and  C9_18 
ROOT
HETATM    1  N1  UNK     1      18.993  -0.986  34.481  1.00  0.00     0.096 N 
HETATM    2  N2  UNK     1      19.664  -2.934  36.510  1.00  0.00     0.100 N 
HETATM    3  C1  UNK     1      19.954  -2.063  34.215  1.00  0.00     0.303 C 
HETATM    4  C2  UNK     1      18.009  -1.412  35.483  1.00  0.00     0.303 C 
HETATM    5  C3  UNK     1      20.648  -2.506  35.508  1.00  0.00     0.303 C 
HETATM    6  C4  UNK     1      18.702  -1.856  36.775  1.00  0.00     0.303 C 
ENDROOT
BRANCH   1   7
HETATM    7  C5  UNK     1      18.329  -0.567  33.248  1.00  0.00     0.312 C 
BRANCH   7   8
HETATM    8  C7  UNK     1      18.350   0.912  33.074  1.00  0.00    -0.011 A 
HETATM    9  C10 UNK     1      18.232   1.735  34.126  1.00  0.00     0.092 A 
HETATM   10  C13 UNK     1      18.247   3.203  34.003  1.00  0.00     0.288 A 
HETATM   11  O1  UNK     1      18.392   3.719  32.726  1.00  0.00    -0.275 OA
HETATM   12  O4  UNK     1      18.136   3.924  34.988  1.00  0.00    -0.260 OA
HETATM   13  C11 UNK     1      18.518   2.880  31.600  1.00  0.00     0.090 A 
HETATM   14  C8  UNK     1      18.502   1.491  31.732  1.00  0.00     0.009 A 
HETATM   15  C14 UNK     1      18.656   3.510  30.363  1.00  0.00     0.041 A 
HETATM   16  C12 UNK     1      18.630   0.726  30.565  1.00  0.00     0.051 A 
HETATM   17  C15 UNK     1      18.771   1.343  29.317  1.00  0.00     0.069 A 
HETATM   18  C16 UNK     1      18.784   2.733  29.216  1.00  0.00     0.039 A 
BRANCH  17  19
HETATM   19  O3  UNK     1      18.894   0.582  28.195  1.00  0.00    -0.351 OA
BRANCH  19  20
HETATM   20  C20 UNK     1      19.465  -0.716  28.352  1.00  0.00     0.171 C 
HETATM   21  C24 UNK     1      20.882  -0.574  28.862  1.00  0.00     0.034 C 
ENDBRANCH  19  20
ENDBRANCH  17  19
ENDBRANCH   7   8
ENDBRANCH   1   7
BRANCH   2  22
HETATM   22  C6  UNK     1      20.326  -3.355  37.742  1.00  0.00     0.375 C 
BRANCH  22  23
HETATM   23  C9  UNK     1      20.658  -4.835  37.657  1.00  0.00     0.250 C 
HETATM   24  O2  UNK     1      21.798  -5.246  37.464  1.00  0.00    -0.271 OA
HETATM   25  N3  UNK     1      19.506  -5.597  37.835  1.00  0.00    -0.323 N 
HETATM   26  H15 UNK     1      18.630  -5.106  37.997  1.00  0.00     0.169 HD
BRANCH  25  27
HETATM   27  C17 UNK     1      19.395  -7.008  37.826  1.00  0.00     0.076 A 
HETATM   28  C18 UNK     1      18.890  -7.664  36.703  1.00  0.00     0.143 A 
HETATM   29  F1  UNK     1      18.505  -6.967  35.624  1.00  0.00    -0.204 F 
HETATM   30  C22 UNK     1      18.782  -9.055  36.697  1.00  0.00     0.047 A 
HETATM   31  C23 UNK     1      19.178  -9.790  37.813  1.00  0.00     0.045 A 
HETATM   32  C21 UNK     1      19.683  -9.135  38.937  1.00  0.00     0.118 A 
HETATM   33  C19 UNK     1      19.792  -7.744  38.943  1.00  0.00     0.074 A 
HETATM   34  F2  UNK     1      20.064  -9.841  40.009  1.00  0.00    -0.206 F 
ENDBRANCH  25  27
ENDBRANCH  22  23
ENDBRANCH   2  22
TORSDOF 7
ENDMDL
MODEL 9
REMARK VINA RESULT:      -9.1      3.356     10.284
REMARK  7 active torsions:
REMARK  status: ('A' for Active; 'I' for Inactive)
REMARK    1  A    between atoms: C15_24  and  O3_5 
REMARK    2  A    between atoms: C20_29  and  O3_5 
REMARK    3  A    between atoms: C5_14  and  N1_7 
REMARK    4  A    between atoms: C6_15  and  N2_8 
REMARK    5  A    between atoms: C17_26  and  N3_9 
REMARK       I    between atoms: C9_18  and  N3_9 
REMARK    6  A    between atoms: C5_14  and  C7_16 
REMARK    7  A    between atoms: C6_15  and  C9_18 
ROOT
HETATM    1  N1  UNK     1      18.753  -0.830  35.259  1.00  0.00     0.096 N 
HETATM    2  N2  UNK     1      19.747  -2.987  36.908  1.00  0.00     0.100 N 
HETATM    3  C1  UNK     1      19.678  -1.835  34.723  1.00  0.00     0.303 C 
HETATM    4  C2  UNK     1      17.936  -1.405  36.334  1.00  0.00     0.303 C 
HETATM    5  C3  UNK     1      20.565  -2.409  35.835  1.00  0.00     0.303 C 
HETATM    6  C4  UNK     1      18.821  -1.981  37.445  1.00  0.00     0.303 C 
ENDROOT
BRANCH   1   7
HETATM    7  C5  UNK     1      17.906  -0.286  34.200  1.00  0.00     0.312 C 
BRANCH   7   8
HETATM    8  C7  UNK     1      18.593  -0.282  32.878  1.00  0.00    -0.011 A 
HETATM    9  C10 UNK     1      19.168  -1.391  32.394  1.00  0.00     0.092 A 
HETATM   10  C13 UNK     1      19.858  -1.437  31.093  1.00  0.00     0.288 A 
HETATM   11  O1  UNK     1      19.893  -0.258  30.366  1.00  0.00    -0.275 OA
HETATM   12  O4  UNK     1      20.374  -2.470  30.682  1.00  0.00    -0.260 OA
HETATM   13  C11 UNK     1      19.298   0.925  30.848  1.00  0.00     0.090 A 
HETATM   14  C8  UNK     1      18.647   0.952  32.083  1.00  0.00     0.009 A 
HETATM   15  C14 UNK     1      19.395   2.052  30.031  1.00  0.00     0.041 A 
HETATM   16  C12 UNK     1      18.082   2.167  32.492  1.00  0.00     0.051 A 
HETATM   17  C15 UNK     1      18.171   3.306  31.684  1.00  0.00     0.069 A 
HETATM   18  C16 UNK     1      18.827   3.249  30.456  1.00  0.00     0.039 A 
BRANCH  17  19
HETATM   19  O3  UNK     1      17.616   4.478  32.101  1.00  0.00    -0.351 OA
BRANCH  19  20
HETATM   20  C20 UNK     1      18.240   5.136  33.202  1.00  0.00     0.171 C 
HETATM   21  C24 UNK     1      19.279   6.101  32.676  1.00  0.00     0.034 C 
ENDBRANCH  19  20
ENDBRANCH  17  19
ENDBRANCH   7   8
ENDBRANCH   1   7
BRANCH   2  22
HETATM   22  C6  UNK     1      20.592  -3.532  37.968  1.00  0.00     0.375 C 
BRANCH  22  23
HETATM   23  C9  UNK     1      20.818  -5.014  37.721  1.00  0.00     0.250 C 
HETATM   24  O2  UNK     1      21.872  -5.457  37.275  1.00  0.00    -0.271 OA
HETATM   25  N3  UNK     1      19.683  -5.739  38.078  1.00  0.00    -0.323 N 
HETATM   26  H15 UNK     1      18.886  -5.226  38.446  1.00  0.00     0.169 HD
BRANCH  25  27
HETATM   27  C17 UNK     1      19.494  -7.140  38.000  1.00  0.00     0.076 A 
HETATM   28  C18 UNK     1      18.977  -7.713  36.838  1.00  0.00     0.143 A 
HETATM   29  F1  UNK     1      18.653  -6.946  35.787  1.00  0.00    -0.204 F 
HETATM   30  C22 UNK     1      18.793  -9.094  36.764  1.00  0.00     0.047 A 
HETATM   31  C23 UNK     1      19.124  -9.902  37.851  1.00  0.00     0.045 A 
HETATM   32  C21 UNK     1      19.641  -9.329  39.013  1.00  0.00     0.118 A 
HETATM   33  C19 UNK     1      19.827  -7.948  39.088  1.00  0.00     0.074 A 
HETATM   34  F2  UNK     1      19.961 -10.105  40.057  1.00  0.00    -0.206 F 
ENDBRANCH  25  27
ENDBRANCH  22  23
ENDBRANCH   2  22
TORSDOF 7
ENDMDL
MODEL 10
REMARK VINA RESULT:      -9.1      7.698     11.694
REMARK  7 active torsions:
REMARK  status: ('A' for Active; 'I' for Inactive)
REMARK    1  A    between atoms: C15_24  and  O3_5 
REMARK    2  A    between atoms: C20_29  and  O3_5 
REMARK    3  A    between atoms: C5_14  and  N1_7 
REMARK    4  A    between atoms: C6_15  and  N2_8 
REMARK    5  A    between atoms: C17_26  and  N3_9 
REMARK       I    between atoms: C9_18  and  N3_9 
REMARK    6  A    between atoms: C5_14  and  C7_16 
REMARK    7  A    between atoms: C6_15  and  C9_18 
ROOT
HETATM    1  N1  UNK     1      26.814  -9.437  37.584  1.00  0.00     0.096 N 
HETATM    2  N2  UNK     1      29.647  -9.158  38.088  1.00  0.00     0.100 N 
HETATM    3  C1  UNK     1      27.337  -9.324  38.950  1.00  0.00     0.303 C 
HETATM    4  C2  UNK     1      27.690  -8.734  36.639  1.00  0.00     0.303 C 
HETATM    5  C3  UNK     1      28.771  -9.862  39.032  1.00  0.00     0.303 C 
HETATM    6  C4  UNK     1      29.123  -9.270  36.721  1.00  0.00     0.303 C 
ENDROOT
BRANCH   1   7
HETATM    7  C5  UNK     1      25.449  -8.921  37.507  1.00  0.00     0.312 C 
BRANCH   7   8
HETATM    8  C7  UNK     1      24.541  -9.843  36.769  1.00  0.00    -0.011 A 
HETATM    9  C10 UNK     1      24.984 -11.011  36.286  1.00  0.00     0.092 A 
HETATM   10  C13 UNK     1      24.125 -11.955  35.551  1.00  0.00     0.288 A 
HETATM   11  O1  UNK     1      22.803 -11.583  35.370  1.00  0.00    -0.275 OA
HETATM   12  O4  UNK     1      24.566 -13.016  35.122  1.00  0.00    -0.260 OA
HETATM   13  C11 UNK     1      22.307 -10.360  35.867  1.00  0.00     0.090 A 
HETATM   14  C8  UNK     1      23.133  -9.476  36.562  1.00  0.00     0.009 A 
HETATM   15  C14 UNK     1      20.959 -10.088  35.626  1.00  0.00     0.041 A 
HETATM   16  C12 UNK     1      22.565  -8.281  37.021  1.00  0.00     0.051 A 
HETATM   17  C15 UNK     1      21.215  -7.994  36.788  1.00  0.00     0.069 A 
HETATM   18  C16 UNK     1      20.414  -8.896  36.091  1.00  0.00     0.039 A 
BRANCH  17  19
HETATM   19  O3  UNK     1      20.682  -6.826  37.243  1.00  0.00    -0.351 OA
BRANCH  19  20
HETATM   20  C20 UNK     1      19.546  -6.922  38.100  1.00  0.00     0.171 C 
HETATM   21  C24 UNK     1      20.006  -7.301  39.490  1.00  0.00     0.034 C 
ENDBRANCH  19  20
ENDBRANCH  17  19
ENDBRANCH   7   8
ENDBRANCH   1   7
BRANCH   2  22
HETATM   22  C6  UNK     1      31.013  -9.671  38.165  1.00  0.00     0.375 C 
BRANCH  22  23
HETATM   23  C9  UNK     1      31.881  -8.951  37.148  1.00  0.00     0.250 C 
HETATM   24  O2  UNK     1      32.335  -9.508  36.154  1.00  0.00    -0.271 OA
HETATM   25  N3  UNK     1      32.055  -7.620  37.521  1.00  0.00    -0.323 N 
HETATM   26  H15 UNK     1      31.603  -7.301  38.375  1.00  0.00     0.169 HD
BRANCH  25  27
HETATM   27  C17 UNK     1      32.795  -6.623  36.841  1.00  0.00     0.076 A 
HETATM   28  C18 UNK     1      34.140  -6.418  37.146  1.00  0.00     0.143 A 
HETATM   29  F1  UNK     1      34.746  -7.161  38.084  1.00  0.00    -0.204 F 
HETATM   30  C22 UNK     1      34.866  -5.435  36.474  1.00  0.00     0.047 A 
HETATM   31  C23 UNK     1      34.248  -4.656  35.497  1.00  0.00     0.045 A 
HETATM   32  C21 UNK     1      32.902  -4.860  35.191  1.00  0.00     0.118 A 
HETATM   33  C19 UNK     1      32.175  -5.844  35.863  1.00  0.00     0.074 A 
HETATM   34  F2  UNK     1      32.308  -4.112  34.253  1.00  0.00    -0.206 F 
ENDBRANCH  25  27
ENDBRANCH  22  23
ENDBRANCH   2  22
TORSDOF 7
ENDMDL
