MODEL 1
REMARK VINA RESULT:      -7.6      0.000      0.000
REMARK  2 active torsions:
REMARK  status: ('A' for Active; 'I' for Inactive)
REMARK    1  A    between atoms: C5_9  and  O2_2 
REMARK    2  A    between atoms: C10_14  and  C4_8 
ROOT
HETATM    1  O1  UNK     1      18.559   1.175  31.865  1.00  0.00    -0.271 OA
HETATM    2  O3  UNK     1      17.606   1.822  33.838  1.00  0.00    -0.259 OA
HETATM    3  C1  UNK     1      19.514  -1.052  31.668  1.00  0.00     0.002 A 
HETATM    4  C2  UNK     1      19.219   0.187  31.108  1.00  0.00     0.123 A 
HETATM    5  C3  UNK     1      19.131  -1.311  33.047  1.00  0.00     0.035 A 
HETATM    6  C4  UNK     1      18.505  -0.368  33.761  1.00  0.00     0.086 A 
HETATM    7  C5  UNK     1      19.558   0.498  29.793  1.00  0.00     0.102 A 
HETATM    8  C6  UNK     1      20.168  -2.006  30.884  1.00  0.00     0.014 A 
HETATM    9  C7  UNK     1      20.211  -0.459  29.019  1.00  0.00     0.040 A 
HETATM   10  C8  UNK     1      18.180   0.956  33.186  1.00  0.00     0.302 A 
HETATM   11  C9  UNK     1      20.515  -1.709  29.563  1.00  0.00     0.004 A 
ENDROOT
BRANCH   6  12
HETATM   12  C10 UNK     1      18.160  -0.724  35.142  1.00  0.00     0.161 C 
HETATM   13  O4  UNK     1      19.025  -0.739  36.020  1.00  0.00    -0.293 OA
HETATM   14  C11 UNK     1      16.723  -1.059  35.449  1.00  0.00     0.097 C 
ENDBRANCH   6  12
BRANCH   7  15
HETATM   15  O2  UNK     1      19.264   1.714  29.259  1.00  0.00    -0.353 OA
HETATM   16  C12 UNK     1      18.002   1.850  28.607  1.00  0.00     0.210 C 
ENDBRANCH   7  15
TORSDOF 2
ENDMDL
MODEL 2
REMARK VINA RESULT:      -7.2      2.188      4.266
REMARK  2 active torsions:
REMARK  status: ('A' for Active; 'I' for Inactive)
REMARK    1  A    between atoms: C5_9  and  O2_2 
REMARK    2  A    between atoms: C10_14  and  C4_8 
ROOT
HETATM    1  O1  UNK     1      18.771   0.696  32.658  1.00  0.00    -0.271 OA
HETATM    2  O3  UNK     1      17.942   2.536  33.729  1.00  0.00    -0.259 OA
HETATM    3  C1  UNK     1      19.424   0.861  30.322  1.00  0.00     0.002 A 
HETATM    4  C2  UNK     1      19.284   0.109  31.485  1.00  0.00     0.123 A 
HETATM    5  C3  UNK     1      19.032   2.261  30.336  1.00  0.00     0.035 A 
HETATM    6  C4  UNK     1      18.544   2.813  31.454  1.00  0.00     0.086 A 
HETATM    7  C5  UNK     1      19.642  -1.236  31.537  1.00  0.00     0.102 A 
HETATM    8  C6  UNK     1      19.938   0.243  29.179  1.00  0.00     0.014 A 
HETATM    9  C7  UNK     1      20.153  -1.844  30.392  1.00  0.00     0.040 A 
HETATM   10  C8  UNK     1      18.388   2.034  32.702  1.00  0.00     0.302 A 
HETATM   11  C9  UNK     1      20.301  -1.106  29.215  1.00  0.00     0.004 A 
ENDROOT
BRANCH   6  12
HETATM   12  C10 UNK     1      18.176   4.231  31.370  1.00  0.00     0.161 C 
HETATM   13  O4  UNK     1      17.206   4.664  31.992  1.00  0.00    -0.293 OA
HETATM   14  C11 UNK     1      19.025   5.132  30.510  1.00  0.00     0.097 C 
ENDBRANCH   6  12
BRANCH   7  15
HETATM   15  O2  UNK     1      19.499  -1.958  32.680  1.00  0.00    -0.353 OA
HETATM   16  C12 UNK     1      20.678  -2.548  33.229  1.00  0.00     0.210 C 
ENDBRANCH   7  15
TORSDOF 2
ENDMDL
MODEL 3
REMARK VINA RESULT:      -7.0     12.810     15.468
REMARK  2 active torsions:
REMARK  status: ('A' for Active; 'I' for Inactive)
REMARK    1  A    between atoms: C5_9  and  O2_2 
REMARK    2  A    between atoms: C10_14  and  C4_8 
ROOT
HETATM    1  O1  UNK     1      19.367   1.251  16.296  1.00  0.00    -0.271 OA
HETATM    2  O3  UNK     1      19.483   0.159  14.294  1.00  0.00    -0.259 OA
HETATM    3  C1  UNK     1      18.776   0.015  18.305  1.00  0.00     0.002 A 
HETATM    4  C2  UNK     1      19.125   1.210  17.684  1.00  0.00     0.123 A 
HETATM    5  C3  UNK     1      18.665  -1.191  17.500  1.00  0.00     0.035 A 
HETATM    6  C4  UNK     1      18.896  -1.146  16.183  1.00  0.00     0.086 A 
HETATM    7  C5  UNK     1      19.248   2.400  18.398  1.00  0.00     0.102 A 
HETATM    8  C6  UNK     1      18.545   0.015  19.683  1.00  0.00     0.014 A 
HETATM    9  C7  UNK     1      19.015   2.391  19.771  1.00  0.00     0.040 A 
HETATM   10  C8  UNK     1      19.269   0.113  15.501  1.00  0.00     0.302 A 
HETATM   11  C9  UNK     1      18.664   1.201  20.413  1.00  0.00     0.004 A 
ENDROOT
BRANCH   6  12
HETATM   12  C10 UNK     1      18.759  -2.414  15.457  1.00  0.00     0.161 C 
HETATM   13  O4  UNK     1      17.697  -2.708  14.905  1.00  0.00    -0.293 OA
HETATM   14  C11 UNK     1      19.954  -3.330  15.403  1.00  0.00     0.097 C 
ENDBRANCH   6  12
BRANCH   7  15
HETATM   15  O2  UNK     1      19.589   3.561  17.777  1.00  0.00    -0.353 OA
HETATM   16  C12 UNK     1      20.610   4.351  18.388  1.00  0.00     0.210 C 
ENDBRANCH   7  15
TORSDOF 2
ENDMDL
MODEL 4
REMARK VINA RESULT:      -6.8      3.628      5.592
REMARK  2 active torsions:
REMARK  status: ('A' for Active; 'I' for Inactive)
REMARK    1  A    between atoms: C5_9  and  O2_2 
REMARK    2  A    between atoms: C10_14  and  C4_8 
ROOT
HETATM    1  O1  UNK     1      19.570  -1.227  34.695  1.00  0.00    -0.271 OA
HETATM    2  O3  UNK     1      20.692  -3.135  34.129  1.00  0.00    -0.259 OA
HETATM    3  C1  UNK     1      18.547  -1.044  36.893  1.00  0.00     0.002 A 
HETATM    4  C2  UNK     1      18.828  -0.497  35.644  1.00  0.00     0.123 A 
HETATM    5  C3  UNK     1      19.030  -2.381  37.202  1.00  0.00     0.035 A 
HETATM    6  C4  UNK     1      19.735  -3.069  36.295  1.00  0.00     0.086 A 
HETATM    7  C5  UNK     1      18.394   0.777  35.286  1.00  0.00     0.102 A 
HETATM    8  C6  UNK     1      17.809  -0.289  37.808  1.00  0.00     0.014 A 
HETATM    9  C7  UNK     1      17.658   1.523  36.205  1.00  0.00     0.040 A 
HETATM   10  C8  UNK     1      20.046  -2.507  34.962  1.00  0.00     0.302 A 
HETATM   11  C9  UNK     1      17.366   0.991  37.463  1.00  0.00     0.004 A 
ENDROOT
BRANCH   6  12
HETATM   12  C10 UNK     1      20.178  -4.408  36.700  1.00  0.00     0.161 C 
HETATM   13  O4  UNK     1      21.317  -4.584  37.137  1.00  0.00    -0.293 OA
HETATM   14  C11 UNK     1      19.199  -5.546  36.574  1.00  0.00     0.097 C 
ENDBRANCH   6  12
BRANCH   7  15
HETATM   15  O2  UNK     1      18.676   1.298  34.063  1.00  0.00    -0.353 OA
HETATM   16  C12 UNK     1      18.182   2.608  33.783  1.00  0.00     0.210 C 
ENDBRANCH   7  15
TORSDOF 2
ENDMDL
MODEL 5
REMARK VINA RESULT:      -6.7     23.534     25.778
REMARK  2 active torsions:
REMARK  status: ('A' for Active; 'I' for Inactive)
REMARK    1  A    between atoms: C5_9  and  O2_2 
REMARK    2  A    between atoms: C10_14  and  C4_8 
ROOT
HETATM    1  O1  UNK     1      11.222   7.426   9.589  1.00  0.00    -0.271 OA
HETATM    2  O3  UNK     1      12.834   7.927  11.128  1.00  0.00    -0.259 OA
HETATM    3  C1  UNK     1      11.872   6.616   7.390  1.00  0.00     0.002 A 
HETATM    4  C2  UNK     1      10.880   6.973   8.299  1.00  0.00     0.123 A 
HETATM    5  C3  UNK     1      13.266   6.717   7.793  1.00  0.00     0.035 A 
HETATM    6  C4  UNK     1      13.584   7.148   9.020  1.00  0.00     0.086 A 
HETATM    7  C5  UNK     1       9.527   6.899   7.976  1.00  0.00     0.102 A 
HETATM    8  C6  UNK     1      11.493   6.170   6.122  1.00  0.00     0.014 A 
HETATM    9  C7  UNK     1       9.159   6.455   6.708  1.00  0.00     0.040 A 
HETATM   10  C8  UNK     1      12.547   7.532  10.002  1.00  0.00     0.302 A 
HETATM   11  C9  UNK     1      10.139   6.091   5.782  1.00  0.00     0.004 A 
ENDROOT
BRANCH   6  12
HETATM   12  C10 UNK     1      15.016   7.215   9.331  1.00  0.00     0.161 C 
HETATM   13  O4  UNK     1      15.583   8.304   9.438  1.00  0.00    -0.293 OA
HETATM   14  C11 UNK     1      15.760   5.919   9.523  1.00  0.00     0.097 C 
ENDBRANCH   6  12
BRANCH   7  15
HETATM   15  O2  UNK     1       8.569   7.252   8.874  1.00  0.00    -0.353 OA
HETATM   16  C12 UNK     1       7.848   6.195   9.507  1.00  0.00     0.210 C 
ENDBRANCH   7  15
TORSDOF 2
ENDMDL
MODEL 6
REMARK VINA RESULT:      -6.7      2.429      3.710
REMARK  2 active torsions:
REMARK  status: ('A' for Active; 'I' for Inactive)
REMARK    1  A    between atoms: C5_9  and  O2_2 
REMARK    2  A    between atoms: C10_14  and  C4_8 
ROOT
HETATM    1  O1  UNK     1      18.397   1.026  32.608  1.00  0.00    -0.271 OA
HETATM    2  O3  UNK     1      18.171  -0.479  34.311  1.00  0.00    -0.259 OA
HETATM    3  C1  UNK     1      18.314   3.407  33.091  1.00  0.00     0.002 A 
HETATM    4  C2  UNK     1      18.448   2.366  32.177  1.00  0.00     0.123 A 
HETATM    5  C3  UNK     1      18.120   3.090  34.497  1.00  0.00     0.035 A 
HETATM    6  C4  UNK     1      18.072   1.814  34.900  1.00  0.00     0.086 A 
HETATM    7  C5  UNK     1      18.636   2.603  30.817  1.00  0.00     0.102 A 
HETATM    8  C6  UNK     1      18.371   4.723  32.625  1.00  0.00     0.014 A 
HETATM    9  C7  UNK     1      18.691   3.919  30.362  1.00  0.00     0.040 A 
HETATM   10  C8  UNK     1      18.214   0.691  33.946  1.00  0.00     0.302 A 
HETATM   11  C9  UNK     1      18.559   4.977  31.264  1.00  0.00     0.004 A 
ENDROOT
BRANCH   6  12
HETATM   12  C10 UNK     1      17.874   1.595  36.337  1.00  0.00     0.161 C 
HETATM   13  O4  UNK     1      18.766   1.870  37.141  1.00  0.00    -0.293 OA
HETATM   14  C11 UNK     1      16.550   1.037  36.791  1.00  0.00     0.097 C 
ENDBRANCH   6  12
BRANCH   7  15
HETATM   15  O2  UNK     1      18.765   1.576  29.936  1.00  0.00    -0.353 OA
HETATM   16  C12 UNK     1      17.957   1.622  28.759  1.00  0.00     0.210 C 
ENDBRANCH   7  15
TORSDOF 2
ENDMDL
MODEL 7
REMARK VINA RESULT:      -6.7      1.689      2.097
REMARK  2 active torsions:
REMARK  status: ('A' for Active; 'I' for Inactive)
REMARK    1  A    between atoms: C5_9  and  O2_2 
REMARK    2  A    between atoms: C10_14  and  C4_8 
ROOT
HETATM    1  O1  UNK     1      18.562   0.007  32.587  1.00  0.00    -0.271 OA
HETATM    2  O3  UNK     1      18.186  -0.607  34.755  1.00  0.00    -0.259 OA
HETATM    3  C1  UNK     1      20.212  -1.196  31.268  1.00  0.00     0.002 A 
HETATM    4  C2  UNK     1      19.257  -0.190  31.377  1.00  0.00     0.123 A 
HETATM    5  C3  UNK     1      20.482  -2.040  32.421  1.00  0.00     0.035 A 
HETATM    6  C4  UNK     1      19.818  -1.848  33.567  1.00  0.00     0.086 A 
HETATM    7  C5  UNK     1      18.952   0.653  30.310  1.00  0.00     0.102 A 
HETATM    8  C6  UNK     1      20.880  -1.360  30.051  1.00  0.00     0.014 A 
HETATM    9  C7  UNK     1      19.623   0.481  29.102  1.00  0.00     0.040 A 
HETATM   10  C8  UNK     1      18.797  -0.786  33.706  1.00  0.00     0.302 A 
HETATM   11  C9  UNK     1      20.586  -0.523  28.972  1.00  0.00     0.004 A 
ENDROOT
BRANCH   6  12
HETATM   12  C10 UNK     1      20.160  -2.750  34.673  1.00  0.00     0.161 C 
HETATM   13  O4  UNK     1      20.336  -3.952  34.468  1.00  0.00    -0.293 OA
HETATM   14  C11 UNK     1      20.294  -2.159  36.052  1.00  0.00     0.097 C 
ENDBRANCH   6  12
BRANCH   7  15
HETATM   15  O2  UNK     1      18.017   1.632  30.432  1.00  0.00    -0.353 OA
HETATM   16  C12 UNK     1      18.482   2.981  30.425  1.00  0.00     0.210 C 
ENDBRANCH   7  15
TORSDOF 2
ENDMDL
MODEL 8
REMARK VINA RESULT:      -6.6      2.808      5.542
REMARK  2 active torsions:
REMARK  status: ('A' for Active; 'I' for Inactive)
REMARK    1  A    between atoms: C5_9  and  O2_2 
REMARK    2  A    between atoms: C10_14  and  C4_8 
ROOT
HETATM    1  O1  UNK     1      18.201   1.709  32.089  1.00  0.00    -0.271 OA
HETATM    2  O3  UNK     1      18.142   3.276  30.428  1.00  0.00    -0.259 OA
HETATM    3  C1  UNK     1      18.322   2.424  34.410  1.00  0.00     0.002 A 
HETATM    4  C2  UNK     1      18.262   1.406  33.463  1.00  0.00     0.123 A 
HETATM    5  C3  UNK     1      18.320   3.807  33.958  1.00  0.00     0.035 A 
HETATM    6  C4  UNK     1      18.262   4.088  32.650  1.00  0.00     0.086 A 
HETATM    7  C5  UNK     1      18.261   0.061  33.830  1.00  0.00     0.102 A 
HETATM    8  C6  UNK     1      18.381   2.083  35.763  1.00  0.00     0.014 A 
HETATM    9  C7  UNK     1      18.320  -0.269  35.182  1.00  0.00     0.040 A 
HETATM   10  C8  UNK     1      18.197   3.022  31.627  1.00  0.00     0.302 A 
HETATM   11  C9  UNK     1      18.380   0.739  36.147  1.00  0.00     0.004 A 
ENDROOT
BRANCH   6  12
HETATM   12  C10 UNK     1      18.265   5.512  32.294  1.00  0.00     0.161 C 
HETATM   13  O4  UNK     1      17.210   6.144  32.234  1.00  0.00    -0.293 OA
HETATM   14  C11 UNK     1      19.592   6.168  32.016  1.00  0.00     0.097 C 
ENDBRANCH   6  12
BRANCH   7  15
HETATM   15  O2  UNK     1      18.203  -0.923  32.895  1.00  0.00    -0.353 OA
HETATM   16  C12 UNK     1      19.425  -1.584  32.568  1.00  0.00     0.210 C 
ENDBRANCH   7  15
TORSDOF 2
ENDMDL
MODEL 9
REMARK VINA RESULT:      -6.6     22.707     25.332
REMARK  2 active torsions:
REMARK  status: ('A' for Active; 'I' for Inactive)
REMARK    1  A    between atoms: C5_9  and  O2_2 
REMARK    2  A    between atoms: C10_14  and  C4_8 
ROOT
HETATM    1  O1  UNK     1      11.628   7.641   9.777  1.00  0.00    -0.271 OA
HETATM    2  O3  UNK     1       9.427   7.970   9.261  1.00  0.00    -0.259 OA
HETATM    3  C1  UNK     1      12.933   6.036   8.499  1.00  0.00     0.002 A 
HETATM    4  C2  UNK     1      12.844   6.978   9.520  1.00  0.00     0.123 A 
HETATM    5  C3  UNK     1      11.751   5.748   7.702  1.00  0.00     0.035 A 
HETATM    6  C4  UNK     1      10.599   6.382   7.951  1.00  0.00     0.086 A 
HETATM    7  C5  UNK     1      13.939   7.300  10.319  1.00  0.00     0.102 A 
HETATM    8  C6  UNK     1      14.156   5.401   8.274  1.00  0.00     0.014 A 
HETATM    9  C7  UNK     1      15.154   6.660  10.088  1.00  0.00     0.040 A 
HETATM   10  C8  UNK     1      10.481   7.387   9.030  1.00  0.00     0.302 A 
HETATM   11  C9  UNK     1      15.264   5.712   9.068  1.00  0.00     0.004 A 
ENDROOT
BRANCH   6  12
HETATM   12  C10 UNK     1       9.463   6.023   7.093  1.00  0.00     0.161 C 
HETATM   13  O4  UNK     1       8.522   5.366   7.542  1.00  0.00    -0.293 OA
HETATM   14  C11 UNK     1       9.484   6.489   5.661  1.00  0.00     0.097 C 
ENDBRANCH   6  12
BRANCH   7  15
HETATM   15  O2  UNK     1      13.837   8.221  11.314  1.00  0.00    -0.353 OA
HETATM   16  C12 UNK     1      15.052   8.794  11.798  1.00  0.00     0.210 C 
ENDBRANCH   7  15
TORSDOF 2
ENDMDL
MODEL 10
REMARK VINA RESULT:      -6.5      2.246      5.613
REMARK  2 active torsions:
REMARK  status: ('A' for Active; 'I' for Inactive)
REMARK    1  A    between atoms: C5_9  and  O2_2 
REMARK    2  A    between atoms: C10_14  and  C4_8 
ROOT
HETATM    1  O1  UNK     1      18.677   0.843  32.588  1.00  0.00    -0.271 OA
HETATM    2  O3  UNK     1      19.206  -1.131  31.569  1.00  0.00    -0.259 OA
HETATM    3  C1  UNK     1      18.652   2.897  31.286  1.00  0.00     0.002 A 
HETATM    4  C2  UNK     1      18.482   2.236  32.499  1.00  0.00     0.123 A 
HETATM    5  C3  UNK     1      19.033   2.128  30.112  1.00  0.00     0.035 A 
HETATM    6  C4  UNK     1      19.216   0.805  30.203  1.00  0.00     0.086 A 
HETATM    7  C5  UNK     1      18.118   2.914  33.660  1.00  0.00     0.102 A 
HETATM    8  C6  UNK     1      18.450   4.278  31.238  1.00  0.00     0.014 A 
HETATM    9  C7  UNK     1      17.919   4.292  33.603  1.00  0.00     0.040 A 
HETATM   10  C8  UNK     1      19.041   0.081  31.482  1.00  0.00     0.302 A 
HETATM   11  C9  UNK     1      18.084   4.973  32.395  1.00  0.00     0.004 A 
ENDROOT
BRANCH   6  12
HETATM   12  C10 UNK     1      19.599   0.117  28.965  1.00  0.00     0.161 C 
HETATM   13  O4  UNK     1      18.872   0.166  27.971  1.00  0.00    -0.293 OA
HETATM   14  C11 UNK     1      20.904  -0.636  28.948  1.00  0.00     0.097 C 
ENDBRANCH   6  12
BRANCH   7  15
HETATM   15  O2  UNK     1      17.956   2.255  34.838  1.00  0.00    -0.353 OA
HETATM   16  C12 UNK     1      19.071   2.233  35.730  1.00  0.00     0.210 C 
ENDBRANCH   7  15
TORSDOF 2
ENDMDL
