MODEL 1
REMARK VINA RESULT:      -9.6      0.000      0.000
REMARK  4 active torsions:
REMARK  status: ('A' for Active; 'I' for Inactive)
REMARK    1  A    between atoms: C5_10  and  O1_2 
REMARK    2  A    between atoms: C9_14  and  O1_2 
REMARK    3  A    between atoms: C12_17  and  C9_14 
REMARK    4  A    between atoms: C11_16  and  C12_17 
ROOT
HETATM    1 Cl1  UNK     1      20.677  -2.146  30.334  1.00  0.00    -0.081 Cl
HETATM    2  O2  UNK     1      20.529  -3.145  35.306  1.00  0.00    -0.275 OA
HETATM    3  O4  UNK     1      20.538  -3.676  37.530  1.00  0.00    -0.260 OA
HETATM    4  C1  UNK     1      19.065  -1.358  34.510  1.00  0.00     0.007 A 
HETATM    5  C2  UNK     1      20.020  -2.346  34.262  1.00  0.00     0.092 A 
HETATM    6  C3  UNK     1      18.594  -1.165  35.888  1.00  0.00    -0.043 A 
HETATM    7  C4  UNK     1      18.610  -0.606  33.419  1.00  0.00     0.053 A 
HETATM    8  C5  UNK     1      19.103  -0.844  32.131  1.00  0.00     0.092 A 
HETATM    9  C6  UNK     1      20.521  -2.595  32.984  1.00  0.00     0.065 A 
HETATM   10  C7  UNK     1      20.057  -1.837  31.914  1.00  0.00     0.070 A 
HETATM   11  C8  UNK     1      19.096  -1.940  36.860  1.00  0.00     0.090 A 
HETATM   12  C10 UNK     1      17.567  -0.113  36.187  1.00  0.00     0.049 C 
HETATM   13  C13 UNK     1      20.104  -2.985  36.615  1.00  0.00     0.288 A 
ENDROOT
BRANCH   8  14
HETATM   14  O1  UNK     1      18.629  -0.085  31.101  1.00  0.00    -0.342 OA
BRANCH  14  15
HETATM   15  C9  UNK     1      19.355   1.101  30.785  1.00  0.00     0.259 C 
BRANCH  15  16
HETATM   16  C12 UNK     1      18.395   2.214  30.415  1.00  0.00     0.183 C 
HETATM   17  O3  UNK     1      17.501   2.048  29.588  1.00  0.00    -0.290 OA
BRANCH  16  18
HETATM   18  C11 UNK     1      18.550   3.543  31.075  1.00  0.00     0.012 A 
HETATM   19  C15 UNK     1      18.121   3.690  32.374  1.00  0.00     0.016 A 
HETATM   20  C17 UNK     1      18.266   4.932  32.992  1.00  0.00     0.007 A 
HETATM   21  C14 UNK     1      18.838   5.995  32.293  1.00  0.00    -0.062 A 
HETATM   22  C18 UNK     1      19.264   5.816  30.977  1.00  0.00     0.007 A 
HETATM   23  C19 UNK     1      18.994   7.323  32.953  1.00  0.00     0.048 C 
HETATM   24  C16 UNK     1      19.119   4.573  30.359  1.00  0.00     0.016 A 
ENDBRANCH  16  18
ENDBRANCH  15  16
ENDBRANCH  14  15
ENDBRANCH   8  14
TORSDOF 4
ENDMDL
MODEL 2
REMARK VINA RESULT:      -8.7      5.018      7.854
REMARK  4 active torsions:
REMARK  status: ('A' for Active; 'I' for Inactive)
REMARK    1  A    between atoms: C5_10  and  O1_2 
REMARK    2  A    between atoms: C9_14  and  O1_2 
REMARK    3  A    between atoms: C12_17  and  C9_14 
REMARK    4  A    between atoms: C11_16  and  C12_17 
ROOT
HETATM    1 Cl1  UNK     1      23.643  -5.777  39.219  1.00  0.00    -0.081 Cl
HETATM    2  O2  UNK     1      20.678  -9.841  38.560  1.00  0.00    -0.275 OA
HETATM    3  O4  UNK     1      19.409 -11.728  38.332  1.00  0.00    -0.260 OA
HETATM    4  C1  UNK     1      20.050  -7.823  37.333  1.00  0.00     0.007 A 
HETATM    5  C2  UNK     1      20.901  -8.492  38.214  1.00  0.00     0.092 A 
HETATM    6  C3  UNK     1      18.909  -8.555  36.765  1.00  0.00    -0.043 A 
HETATM    7  C4  UNK     1      20.339  -6.484  37.041  1.00  0.00     0.053 A 
HETATM    8  C5  UNK     1      21.444  -5.848  37.619  1.00  0.00     0.092 A 
HETATM    9  C6  UNK     1      22.006  -7.872  38.799  1.00  0.00     0.065 A 
HETATM   10  C7  UNK     1      22.276  -6.541  38.497  1.00  0.00     0.070 A 
HETATM   11  C8  UNK     1      18.722  -9.836  37.111  1.00  0.00     0.090 A 
HETATM   12  C10 UNK     1      17.977  -7.864  35.813  1.00  0.00     0.049 C 
HETATM   13  C13 UNK     1      19.611 -10.555  38.040  1.00  0.00     0.288 A 
ENDROOT
BRANCH   8  14
HETATM   14  O1  UNK     1      21.683  -4.543  37.304  1.00  0.00    -0.342 OA
BRANCH  14  15
HETATM   15  C9  UNK     1      20.610  -3.624  37.496  1.00  0.00     0.259 C 
BRANCH  15  16
HETATM   16  C12 UNK     1      20.536  -2.660  36.329  1.00  0.00     0.183 C 
HETATM   17  O3  UNK     1      21.484  -2.500  35.562  1.00  0.00    -0.290 OA
BRANCH  16  18
HETATM   18  C11 UNK     1      19.278  -1.886  36.116  1.00  0.00     0.012 A 
HETATM   19  C15 UNK     1      18.452  -1.661  37.193  1.00  0.00     0.016 A 
HETATM   20  C17 UNK     1      17.276  -0.938  36.995  1.00  0.00     0.007 A 
HETATM   21  C14 UNK     1      16.958  -0.459  35.724  1.00  0.00    -0.062 A 
HETATM   22  C18 UNK     1      17.816  -0.703  34.652  1.00  0.00     0.007 A 
HETATM   23  C19 UNK     1      15.701   0.315  35.512  1.00  0.00     0.048 C 
HETATM   24  C16 UNK     1      18.992  -1.427  34.850  1.00  0.00     0.016 A 
ENDBRANCH  16  18
ENDBRANCH  15  16
ENDBRANCH  14  15
ENDBRANCH   8  14
TORSDOF 4
ENDMDL
MODEL 3
REMARK VINA RESULT:      -8.6      2.903      8.843
REMARK  4 active torsions:
REMARK  status: ('A' for Active; 'I' for Inactive)
REMARK    1  A    between atoms: C5_10  and  O1_2 
REMARK    2  A    between atoms: C9_14  and  O1_2 
REMARK    3  A    between atoms: C12_17  and  C9_14 
REMARK    4  A    between atoms: C11_16  and  C12_17 
ROOT
HETATM    1 Cl1  UNK     1      17.094   0.541  37.083  1.00  0.00    -0.081 Cl
HETATM    2  O2  UNK     1      18.062   2.305  32.426  1.00  0.00    -0.275 OA
HETATM    3  O4  UNK     1      18.449   3.195  30.356  1.00  0.00    -0.260 OA
HETATM    4  C1  UNK     1      18.791   0.021  32.899  1.00  0.00     0.007 A 
HETATM    5  C2  UNK     1      18.179   1.208  33.305  1.00  0.00     0.092 A 
HETATM    6  C3  UNK     1      19.315  -0.068  31.530  1.00  0.00    -0.043 A 
HETATM    7  C4  UNK     1      18.869  -1.021  33.832  1.00  0.00     0.053 A 
HETATM    8  C5  UNK     1      18.347  -0.867  35.122  1.00  0.00     0.092 A 
HETATM    9  C6  UNK     1      17.655   1.377  34.587  1.00  0.00     0.065 A 
HETATM   10  C7  UNK     1      17.742   0.331  35.499  1.00  0.00     0.070 A 
HETATM   11  C8  UNK     1      19.190   0.990  30.717  1.00  0.00     0.090 A 
HETATM   12  C10 UNK     1      19.977  -1.331  31.063  1.00  0.00     0.049 C 
HETATM   13  C13 UNK     1      18.547   2.249  31.129  1.00  0.00     0.288 A 
ENDROOT
BRANCH   8  14
HETATM   14  O1  UNK     1      18.447  -1.911  35.994  1.00  0.00    -0.342 OA
BRANCH  14  15
HETATM   15  C9  UNK     1      19.760  -2.291  36.400  1.00  0.00     0.259 C 
BRANCH  15  16
HETATM   16  C12 UNK     1      20.091  -3.670  35.863  1.00  0.00     0.183 C 
HETATM   17  O3  UNK     1      20.410  -3.846  34.689  1.00  0.00    -0.290 OA
BRANCH  16  18
HETATM   18  C11 UNK     1      20.020  -4.836  36.790  1.00  0.00     0.012 A 
HETATM   19  C15 UNK     1      20.977  -4.959  37.771  1.00  0.00     0.016 A 
HETATM   20  C17 UNK     1      20.912  -6.049  38.638  1.00  0.00     0.007 A 
HETATM   21  C14 UNK     1      19.890  -6.988  38.501  1.00  0.00    -0.062 A 
HETATM   22  C18 UNK     1      18.934  -6.837  37.497  1.00  0.00     0.007 A 
HETATM   23  C19 UNK     1      19.819  -8.154  39.429  1.00  0.00     0.048 C 
HETATM   24  C16 UNK     1      18.999  -5.746  36.629  1.00  0.00     0.016 A 
ENDBRANCH  16  18
ENDBRANCH  15  16
ENDBRANCH  14  15
ENDBRANCH   8  14
TORSDOF 4
ENDMDL
MODEL 4
REMARK VINA RESULT:      -8.6      3.798      9.913
REMARK  4 active torsions:
REMARK  status: ('A' for Active; 'I' for Inactive)
REMARK    1  A    between atoms: C5_10  and  O1_2 
REMARK    2  A    between atoms: C9_14  and  O1_2 
REMARK    3  A    between atoms: C12_17  and  C9_14 
REMARK    4  A    between atoms: C11_16  and  C12_17 
ROOT
HETATM    1 Cl1  UNK     1      18.116  -0.961  37.810  1.00  0.00    -0.081 Cl
HETATM    2  O2  UNK     1      18.594   0.250  32.907  1.00  0.00    -0.275 OA
HETATM    3  O4  UNK     1      18.744   0.883  30.715  1.00  0.00    -0.260 OA
HETATM    4  C1  UNK     1      19.767  -1.761  33.652  1.00  0.00     0.007 A 
HETATM    5  C2  UNK     1      18.947  -0.664  33.922  1.00  0.00     0.092 A 
HETATM    6  C3  UNK     1      20.260  -1.950  32.281  1.00  0.00    -0.043 A 
HETATM    7  C4  UNK     1      20.071  -2.621  34.715  1.00  0.00     0.053 A 
HETATM    8  C5  UNK     1      19.565  -2.381  35.997  1.00  0.00     0.092 A 
HETATM    9  C6  UNK     1      18.435  -0.410  35.195  1.00  0.00     0.065 A 
HETATM   10  C7  UNK     1      18.749  -1.276  36.237  1.00  0.00     0.070 A 
HETATM   11  C8  UNK     1      19.909  -1.066  31.337  1.00  0.00     0.090 A 
HETATM   12  C10 UNK     1      21.143  -3.121  31.959  1.00  0.00     0.049 C 
HETATM   13  C13 UNK     1      19.045   0.097  31.606  1.00  0.00     0.288 A 
ENDROOT
BRANCH   8  14
HETATM   14  O1  UNK     1      19.890  -3.247  36.999  1.00  0.00    -0.342 OA
BRANCH  14  15
HETATM   15  C9  UNK     1      19.547  -4.618  36.805  1.00  0.00     0.259 C 
BRANCH  15  16
HETATM   16  C12 UNK     1      20.638  -5.510  37.364  1.00  0.00     0.183 C 
HETATM   17  O3  UNK     1      21.790  -5.108  37.509  1.00  0.00    -0.290 OA
BRANCH  16  18
HETATM   18  C11 UNK     1      20.295  -6.912  37.740  1.00  0.00     0.012 A 
HETATM   19  C15 UNK     1      20.295  -7.258  39.072  1.00  0.00     0.016 A 
HETATM   20  C17 UNK     1      19.974  -8.568  39.424  1.00  0.00     0.007 A 
HETATM   21  C14 UNK     1      19.660  -9.499  38.435  1.00  0.00    -0.062 A 
HETATM   22  C18 UNK     1      19.668  -9.119  37.092  1.00  0.00     0.007 A 
HETATM   23  C19 UNK     1      19.316 -10.901  38.811  1.00  0.00     0.048 C 
HETATM   24  C16 UNK     1      19.989  -7.808  36.740  1.00  0.00     0.016 A 
ENDBRANCH  16  18
ENDBRANCH  15  16
ENDBRANCH  14  15
ENDBRANCH   8  14
TORSDOF 4
ENDMDL
MODEL 5
REMARK VINA RESULT:      -8.5      2.506      4.003
REMARK  4 active torsions:
REMARK  status: ('A' for Active; 'I' for Inactive)
REMARK    1  A    between atoms: C5_10  and  O1_2 
REMARK    2  A    between atoms: C9_14  and  O1_2 
REMARK    3  A    between atoms: C12_17  and  C9_14 
REMARK    4  A    between atoms: C11_16  and  C12_17 
ROOT
HETATM    1 Cl1  UNK     1      17.555   0.384  35.971  1.00  0.00    -0.081 Cl
HETATM    2  O2  UNK     1      20.276  -2.858  33.173  1.00  0.00    -0.275 OA
HETATM    3  O4  UNK     1      21.509  -4.385  32.002  1.00  0.00    -0.260 OA
HETATM    4  C1  UNK     1      19.536  -0.812  32.059  1.00  0.00     0.007 A 
HETATM    5  C2  UNK     1      19.594  -1.623  33.194  1.00  0.00     0.092 A 
HETATM    6  C3  UNK     1      20.202  -1.270  30.833  1.00  0.00    -0.043 A 
HETATM    7  C4  UNK     1      18.839   0.398  32.161  1.00  0.00     0.053 A 
HETATM    8  C5  UNK     1      18.227   0.773  33.363  1.00  0.00     0.092 A 
HETATM    9  C6  UNK     1      18.989  -1.264  34.399  1.00  0.00     0.065 A 
HETATM   10  C7  UNK     1      18.302  -0.058  34.481  1.00  0.00     0.070 A 
HETATM   11  C8  UNK     1      20.842  -2.448  30.842  1.00  0.00     0.090 A 
HETATM   12  C10 UNK     1      20.158  -0.421  29.596  1.00  0.00     0.049 C 
HETATM   13  C13 UNK     1      20.912  -3.315  32.031  1.00  0.00     0.288 A 
ENDROOT
BRANCH   8  14
HETATM   14  O1  UNK     1      17.560   1.962  33.413  1.00  0.00    -0.342 OA
BRANCH  14  15
HETATM   15  C9  UNK     1      18.287   3.091  33.892  1.00  0.00     0.259 C 
BRANCH  15  16
HETATM   16  C12 UNK     1      18.106   4.263  32.949  1.00  0.00     0.183 C 
HETATM   17  O3  UNK     1      17.537   4.140  31.866  1.00  0.00    -0.290 OA
BRANCH  16  18
HETATM   18  C11 UNK     1      18.640   5.597  33.352  1.00  0.00     0.012 A 
HETATM   19  C15 UNK     1      19.907   5.951  32.947  1.00  0.00     0.016 A 
HETATM   20  C17 UNK     1      20.406   7.197  33.324  1.00  0.00     0.007 A 
HETATM   21  C14 UNK     1      19.625   8.058  34.095  1.00  0.00    -0.062 A 
HETATM   22  C18 UNK     1      18.344   7.671  34.490  1.00  0.00     0.007 A 
HETATM   23  C19 UNK     1      20.158   9.391  34.497  1.00  0.00     0.048 C 
HETATM   24  C16 UNK     1      17.845   6.424  34.113  1.00  0.00     0.016 A 
ENDBRANCH  16  18
ENDBRANCH  15  16
ENDBRANCH  14  15
ENDBRANCH   8  14
TORSDOF 4
ENDMDL
MODEL 6
REMARK VINA RESULT:      -8.5      1.586      2.131
REMARK  4 active torsions:
REMARK  status: ('A' for Active; 'I' for Inactive)
REMARK    1  A    between atoms: C5_10  and  O1_2 
REMARK    2  A    between atoms: C9_14  and  O1_2 
REMARK    3  A    between atoms: C12_17  and  C9_14 
REMARK    4  A    between atoms: C11_16  and  C12_17 
ROOT
HETATM    1 Cl1  UNK     1      19.233  -0.112  31.088  1.00  0.00    -0.081 Cl
HETATM    2  O2  UNK     1      20.320  -3.236  34.935  1.00  0.00    -0.275 OA
HETATM    3  O4  UNK     1      20.870  -4.706  36.598  1.00  0.00    -0.260 OA
HETATM    4  C1  UNK     1      18.869  -1.339  35.450  1.00  0.00     0.007 A 
HETATM    5  C2  UNK     1      19.628  -2.074  34.537  1.00  0.00     0.092 A 
HETATM    6  C3  UNK     1      18.801  -1.801  36.842  1.00  0.00    -0.043 A 
HETATM    7  C4  UNK     1      18.213  -0.195  34.976  1.00  0.00     0.053 A 
HETATM    8  C5  UNK     1      18.320   0.187  33.634  1.00  0.00     0.092 A 
HETATM    9  C6  UNK     1      19.746  -1.705  33.197  1.00  0.00     0.065 A 
HETATM   10  C7  UNK     1      19.086  -0.566  32.746  1.00  0.00     0.070 A 
HETATM   11  C8  UNK     1      19.469  -2.909  37.192  1.00  0.00     0.090 A 
HETATM   12  C10 UNK     1      17.992  -1.033  37.847  1.00  0.00     0.049 C 
HETATM   13  C13 UNK     1      20.274  -3.695  36.241  1.00  0.00     0.288 A 
ENDROOT
BRANCH   8  14
HETATM   14  O1  UNK     1      17.662   1.309  33.221  1.00  0.00    -0.342 OA
BRANCH  14  15
HETATM   15  C9  UNK     1      18.192   2.562  33.646  1.00  0.00     0.259 C 
BRANCH  15  16
HETATM   16  C12 UNK     1      18.032   3.594  32.547  1.00  0.00     0.183 C 
HETATM   17  O3  UNK     1      17.796   3.268  31.385  1.00  0.00    -0.290 OA
BRANCH  16  18
HETATM   18  C11 UNK     1      18.169   5.038  32.893  1.00  0.00     0.012 A 
HETATM   19  C15 UNK     1      17.313   5.942  32.308  1.00  0.00     0.016 A 
HETATM   20  C17 UNK     1      17.441   7.292  32.632  1.00  0.00     0.007 A 
HETATM   21  C14 UNK     1      18.422   7.703  33.533  1.00  0.00    -0.062 A 
HETATM   22  C18 UNK     1      19.276   6.763  34.111  1.00  0.00     0.007 A 
HETATM   23  C19 UNK     1      18.559   9.147  33.880  1.00  0.00     0.048 C 
HETATM   24  C16 UNK     1      19.148   5.412  33.787  1.00  0.00     0.016 A 
ENDBRANCH  16  18
ENDBRANCH  15  16
ENDBRANCH  14  15
ENDBRANCH   8  14
TORSDOF 4
ENDMDL
MODEL 7
REMARK VINA RESULT:      -8.3     23.664     26.083
REMARK  4 active torsions:
REMARK  status: ('A' for Active; 'I' for Inactive)
REMARK    1  A    between atoms: C5_10  and  O1_2 
REMARK    2  A    between atoms: C9_14  and  O1_2 
REMARK    3  A    between atoms: C12_17  and  C9_14 
REMARK    4  A    between atoms: C11_16  and  C12_17 
ROOT
HETATM    1 Cl1  UNK     1      15.644   4.019   9.855  1.00  0.00    -0.081 Cl
HETATM    2  O2  UNK     1      11.336   5.227   7.465  1.00  0.00    -0.275 OA
HETATM    3  O4  UNK     1       9.399   5.673   6.335  1.00  0.00    -0.260 OA
HETATM    4  C1  UNK     1      12.220   6.889   9.023  1.00  0.00     0.007 A 
HETATM    5  C2  UNK     1      12.311   5.647   8.393  1.00  0.00     0.092 A 
HETATM    6  C3  UNK     1      11.082   7.760   8.700  1.00  0.00    -0.043 A 
HETATM    7  C4  UNK     1      13.229   7.231   9.933  1.00  0.00     0.053 A 
HETATM    8  C5  UNK     1      14.286   6.352  10.193  1.00  0.00     0.092 A 
HETATM    9  C6  UNK     1      13.359   4.759   8.642  1.00  0.00     0.065 A 
HETATM   10  C7  UNK     1      14.351   5.117   9.549  1.00  0.00     0.070 A 
HETATM   11  C8  UNK     1      10.170   7.335   7.814  1.00  0.00     0.090 A 
HETATM   12  C10 UNK     1      10.956   9.102   9.359  1.00  0.00     0.049 C 
HETATM   13  C13 UNK     1      10.252   6.027   7.141  1.00  0.00     0.288 A 
ENDROOT
BRANCH   8  14
HETATM   14  O1  UNK     1      15.245   6.731  11.087  1.00  0.00    -0.342 OA
BRANCH  14  15
HETATM   15  C9  UNK     1      15.552   8.121  11.154  1.00  0.00     0.259 C 
BRANCH  15  16
HETATM   16  C12 UNK     1      16.722   8.440  10.246  1.00  0.00     0.183 C 
HETATM   17  O3  UNK     1      17.708   7.708  10.182  1.00  0.00    -0.290 OA
BRANCH  16  18
HETATM   18  C11 UNK     1      16.669   9.677   9.414  1.00  0.00     0.012 A 
HETATM   19  C15 UNK     1      15.514   9.956   8.719  1.00  0.00     0.016 A 
HETATM   20  C17 UNK     1      15.464  11.113   7.942  1.00  0.00     0.007 A 
HETATM   21  C14 UNK     1      16.569  11.961   7.881  1.00  0.00    -0.062 A 
HETATM   22  C18 UNK     1      17.725  11.652   8.598  1.00  0.00     0.007 A 
HETATM   23  C19 UNK     1      16.515  13.199   7.051  1.00  0.00     0.048 C 
HETATM   24  C16 UNK     1      17.776  10.495   9.375  1.00  0.00     0.016 A 
ENDBRANCH  16  18
ENDBRANCH  15  16
ENDBRANCH  14  15
ENDBRANCH   8  14
TORSDOF 4
ENDMDL
MODEL 8
REMARK VINA RESULT:      -8.3      2.051      6.478
REMARK  4 active torsions:
REMARK  status: ('A' for Active; 'I' for Inactive)
REMARK    1  A    between atoms: C5_10  and  O1_2 
REMARK    2  A    between atoms: C9_14  and  O1_2 
REMARK    3  A    between atoms: C12_17  and  C9_14 
REMARK    4  A    between atoms: C11_16  and  C12_17 
ROOT
HETATM    1 Cl1  UNK     1      21.393  -3.506  30.079  1.00  0.00    -0.081 Cl
HETATM    2  O2  UNK     1      18.822   0.556  28.459  1.00  0.00    -0.275 OA
HETATM    3  O4  UNK     1      17.668   2.345  27.625  1.00  0.00    -0.260 OA
HETATM    4  C1  UNK     1      19.327   0.469  30.848  1.00  0.00     0.007 A 
HETATM    5  C2  UNK     1      19.396  -0.092  29.572  1.00  0.00     0.092 A 
HETATM    6  C3  UNK     1      18.641   1.757  31.014  1.00  0.00    -0.043 A 
HETATM    7  C4  UNK     1      19.921  -0.239  31.901  1.00  0.00     0.053 A 
HETATM    8  C5  UNK     1      20.560  -1.463  31.671  1.00  0.00     0.092 A 
HETATM    9  C6  UNK     1      20.028  -1.312  29.326  1.00  0.00     0.065 A 
HETATM   10  C7  UNK     1      20.613  -1.999  30.385  1.00  0.00     0.070 A 
HETATM   11  C8  UNK     1      18.105   2.350  29.938  1.00  0.00     0.090 A 
HETATM   12  C10 UNK     1      18.551   2.387  32.373  1.00  0.00     0.049 C 
HETATM   13  C13 UNK     1      18.169   1.771  28.585  1.00  0.00     0.288 A 
ENDROOT
BRANCH   8  14
HETATM   14  O1  UNK     1      21.124  -2.113  32.729  1.00  0.00    -0.342 OA
BRANCH  14  15
HETATM   15  C9  UNK     1      20.243  -2.833  33.589  1.00  0.00     0.259 C 
BRANCH  15  16
HETATM   16  C12 UNK     1      20.242  -2.209  34.971  1.00  0.00     0.183 C 
HETATM   17  O3  UNK     1      21.204  -2.317  35.728  1.00  0.00    -0.290 OA
BRANCH  16  18
HETATM   18  C11 UNK     1      19.036  -1.451  35.415  1.00  0.00     0.012 A 
HETATM   19  C15 UNK     1      18.709  -1.456  36.751  1.00  0.00     0.016 A 
HETATM   20  C17 UNK     1      17.582  -0.747  37.167  1.00  0.00     0.007 A 
HETATM   21  C14 UNK     1      16.813  -0.052  36.235  1.00  0.00    -0.062 A 
HETATM   22  C18 UNK     1      17.170  -0.066  34.886  1.00  0.00     0.007 A 
HETATM   23  C19 UNK     1      15.608   0.707  36.679  1.00  0.00     0.048 C 
HETATM   24  C16 UNK     1      18.297  -0.775  34.470  1.00  0.00     0.016 A 
ENDBRANCH  16  18
ENDBRANCH  15  16
ENDBRANCH  14  15
ENDBRANCH   8  14
TORSDOF 4
ENDMDL
MODEL 9
REMARK VINA RESULT:      -8.2      2.892      4.963
REMARK  4 active torsions:
REMARK  status: ('A' for Active; 'I' for Inactive)
REMARK    1  A    between atoms: C5_10  and  O1_2 
REMARK    2  A    between atoms: C9_14  and  O1_2 
REMARK    3  A    between atoms: C12_17  and  C9_14 
REMARK    4  A    between atoms: C11_16  and  C12_17 
ROOT
HETATM    1 Cl1  UNK     1      18.652   4.442  29.492  1.00  0.00    -0.081 Cl
HETATM    2  O2  UNK     1      20.017  -0.416  30.022  1.00  0.00    -0.275 OA
HETATM    3  O4  UNK     1      20.674  -2.601  30.157  1.00  0.00    -0.260 OA
HETATM    4  C1  UNK     1      18.876   0.609  31.924  1.00  0.00     0.007 A 
HETATM    5  C2  UNK     1      19.395   0.694  30.631  1.00  0.00     0.092 A 
HETATM    6  C3  UNK     1      18.988  -0.666  32.645  1.00  0.00    -0.043 A 
HETATM    7  C4  UNK     1      18.274   1.755  32.459  1.00  0.00     0.053 A 
HETATM    8  C5  UNK     1      18.202   2.939  31.714  1.00  0.00     0.092 A 
HETATM    9  C6  UNK     1      19.331   1.866  29.877  1.00  0.00     0.065 A 
HETATM   10  C7  UNK     1      18.730   2.994  30.426  1.00  0.00     0.070 A 
HETATM   11  C8  UNK     1      19.584  -1.703  32.041  1.00  0.00     0.090 A 
HETATM   12  C10 UNK     1      18.438  -0.790  34.036  1.00  0.00     0.049 C 
HETATM   13  C13 UNK     1      20.137  -1.630  30.678  1.00  0.00     0.288 A 
ENDROOT
BRANCH   8  14
HETATM   14  O1  UNK     1      17.606   4.029  32.279  1.00  0.00    -0.342 OA
BRANCH  14  15
HETATM   15  C9  UNK     1      18.377   4.770  33.221  1.00  0.00     0.259 C 
BRANCH  15  16
HETATM   16  C12 UNK     1      18.514   6.209  32.763  1.00  0.00     0.183 C 
HETATM   17  O3  UNK     1      19.480   6.587  32.103  1.00  0.00    -0.290 OA
BRANCH  16  18
HETATM   18  C11 UNK     1      17.446   7.183  33.131  1.00  0.00     0.012 A 
HETATM   19  C15 UNK     1      16.648   7.696  32.133  1.00  0.00     0.016 A 
HETATM   20  C17 UNK     1      15.650   8.607  32.476  1.00  0.00     0.007 A 
HETATM   21  C14 UNK     1      15.475   8.981  33.808  1.00  0.00    -0.062 A 
HETATM   22  C18 UNK     1      16.299   8.444  34.797  1.00  0.00     0.007 A 
HETATM   23  C19 UNK     1      14.407   9.955  34.176  1.00  0.00     0.048 C 
HETATM   24  C16 UNK     1      17.298   7.533  34.454  1.00  0.00     0.016 A 
ENDBRANCH  16  18
ENDBRANCH  15  16
ENDBRANCH  14  15
ENDBRANCH   8  14
TORSDOF 4
ENDMDL
MODEL 10
REMARK VINA RESULT:      -8.1      3.021      6.896
REMARK  4 active torsions:
REMARK  status: ('A' for Active; 'I' for Inactive)
REMARK    1  A    between atoms: C5_10  and  O1_2 
REMARK    2  A    between atoms: C9_14  and  O1_2 
REMARK    3  A    between atoms: C12_17  and  C9_14 
REMARK    4  A    between atoms: C11_16  and  C12_17 
ROOT
HETATM    1 Cl1  UNK     1      17.647   4.752  32.056  1.00  0.00    -0.081 Cl
HETATM    2  O2  UNK     1      19.585   0.980  29.270  1.00  0.00    -0.275 OA
HETATM    3  O4  UNK     1      20.459  -0.651  27.927  1.00  0.00    -0.260 OA
HETATM    4  C1  UNK     1      19.127   0.477  31.617  1.00  0.00     0.007 A 
HETATM    5  C2  UNK     1      19.124   1.370  30.545  1.00  0.00     0.092 A 
HETATM    6  C3  UNK     1      19.621  -0.888  31.394  1.00  0.00    -0.043 A 
HETATM    7  C4  UNK     1      18.654   0.942  32.851  1.00  0.00     0.053 A 
HETATM    8  C5  UNK     1      18.196   2.257  32.992  1.00  0.00     0.092 A 
HETATM    9  C6  UNK     1      18.672   2.685  30.670  1.00  0.00     0.065 A 
HETATM   10  C7  UNK     1      18.206   3.128  31.903  1.00  0.00     0.070 A 
HETATM   11  C8  UNK     1      20.054  -1.231  30.173  1.00  0.00     0.090 A 
HETATM   12  C10 UNK     1      19.636  -1.873  32.527  1.00  0.00     0.049 C 
HETATM   13  C13 UNK     1      20.057  -0.300  29.031  1.00  0.00     0.288 A 
ENDROOT
BRANCH   8  14
HETATM   14  O1  UNK     1      17.745   2.663  34.214  1.00  0.00    -0.342 OA
BRANCH  14  15
HETATM   15  C9  UNK     1      18.575   2.377  35.337  1.00  0.00     0.259 C 
BRANCH  15  16
HETATM   16  C12 UNK     1      17.848   1.461  36.301  1.00  0.00     0.183 C 
HETATM   17  O3  UNK     1      16.913   1.861  36.991  1.00  0.00    -0.290 OA
BRANCH  16  18
HETATM   18  C11 UNK     1      18.289   0.040  36.411  1.00  0.00     0.012 A 
HETATM   19  C15 UNK     1      17.473  -0.856  37.064  1.00  0.00     0.016 A 
HETATM   20  C17 UNK     1      17.884  -2.184  37.166  1.00  0.00     0.007 A 
HETATM   21  C14 UNK     1      19.101  -2.582  36.612  1.00  0.00    -0.062 A 
HETATM   22  C18 UNK     1      19.906  -1.651  35.955  1.00  0.00     0.007 A 
HETATM   23  C19 UNK     1      19.541  -4.003  36.720  1.00  0.00     0.048 C 
HETATM   24  C16 UNK     1      19.494  -0.322  35.853  1.00  0.00     0.016 A 
ENDBRANCH  16  18
ENDBRANCH  15  16
ENDBRANCH  14  15
ENDBRANCH   8  14
TORSDOF 4
ENDMDL
