MODEL 1
REMARK VINA RESULT:      -8.2      0.000      0.000
REMARK  4 active torsions:
REMARK  status: ('A' for Active; 'I' for Inactive)
REMARK    1  A    between atoms: C14_20  and  O3_3 
REMARK    2  A    between atoms: C22_28  and  O3_3 
REMARK    3  A    between atoms: C12_18  and  C6_12 
REMARK    4  A    between atoms: C10_16  and  C14_20 
ROOT
HETATM    1  O1  UNK     1      29.944  -5.667  32.108  1.00  0.00    -0.293 OA
HETATM    2  N1  UNK     1      33.282  -9.013  31.809  1.00  0.00    -0.362 N 
HETATM    3  C1  UNK     1      30.361  -8.215  29.561  1.00  0.00    -0.036 C 
HETATM    4  C2  UNK     1      31.332  -9.142  30.321  1.00  0.00     0.067 C 
HETATM    5  C3  UNK     1      29.503  -7.444  30.573  1.00  0.00     0.092 C 
HETATM    6  C4  UNK     1      32.066  -8.463  31.450  1.00  0.00     0.021 C 
HETATM    7  C5  UNK     1      31.613  -7.353  32.070  1.00  0.00     0.024 C 
HETATM    8  C6  UNK     1      32.397  -6.709  33.212  1.00  0.00     0.104 C 
HETATM    9  C7  UNK     1      30.335  -6.725  31.616  1.00  0.00     0.159 C 
HETATM   10  C8  UNK     1      31.140  -7.236  28.657  1.00  0.00     0.015 C 
HETATM   11  C9  UNK     1      29.446  -9.067  28.664  1.00  0.00     0.015 C 
HETATM   12  C10 UNK     1      33.800  -7.304  33.361  1.00  0.00     0.052 C 
HETATM   13  C11 UNK     1      34.167  -8.425  32.698  1.00  0.00     0.018 C 
HETATM   14  C13 UNK     1      35.498  -9.116  32.824  1.00  0.00     0.069 C 
HETATM   15  H12 UNK     1      33.589  -9.847  31.320  1.00  0.00     0.165 HD
ENDROOT
BRANCH   8  16
HETATM   16  C12 UNK     1      31.640  -6.834  34.512  1.00  0.00     0.029 A 
HETATM   17  C15 UNK     1      31.425  -5.612  35.328  1.00  0.00     0.194 A 
HETATM   18  O5  UNK     1      31.843  -4.515  34.979  1.00  0.00    -0.287 OA
HETATM   19  C17 UNK     1      30.680  -5.790  36.587  1.00  0.00     0.049 A 
HETATM   20  C18 UNK     1      30.229  -7.063  36.935  1.00  0.00     0.089 A 
HETATM   21  C19 UNK     1      30.427  -4.701  37.426  1.00  0.00     0.025 A 
HETATM   22  O2  UNK     1      30.448  -8.167  36.149  1.00  0.00    -0.321 OA
HETATM   23  C20 UNK     1      29.521  -7.255  38.121  1.00  0.00     0.039 A 
HETATM   24  C16 UNK     1      31.144  -7.986  34.979  1.00  0.00     0.154 A 
HETATM   25  C23 UNK     1      29.267  -6.169  38.960  1.00  0.00     0.009 A 
HETATM   26  C21 UNK     1      29.719  -4.895  38.612  1.00  0.00    -0.061 A 
HETATM   27  C24 UNK     1      29.444  -3.737  39.513  1.00  0.00     0.048 C 
ENDBRANCH   8  16
BRANCH  12  28
HETATM   28  C14 UNK     1      34.745  -6.565  34.216  1.00  0.00     0.292 C 
HETATM   29  O4  UNK     1      35.281  -5.526  33.876  1.00  0.00    -0.259 OA
BRANCH  28  30
HETATM   30  O3  UNK     1      34.885  -7.240  35.383  1.00  0.00    -0.318 OA
BRANCH  30  31
HETATM   31  C22 UNK     1      34.802  -6.434  36.562  1.00  0.00     0.174 C 
HETATM   32  C25 UNK     1      33.957  -7.152  37.593  1.00  0.00     0.034 C 
ENDBRANCH  30  31
ENDBRANCH  28  30
ENDBRANCH  12  28
TORSDOF 4
ENDMDL
MODEL 2
REMARK VINA RESULT:      -8.1      2.484      6.905
REMARK  4 active torsions:
REMARK  status: ('A' for Active; 'I' for Inactive)
REMARK    1  A    between atoms: C14_20  and  O3_3 
REMARK    2  A    between atoms: C22_28  and  O3_3 
REMARK    3  A    between atoms: C12_18  and  C6_12 
REMARK    4  A    between atoms: C10_16  and  C14_20 
ROOT
HETATM    1  O1  UNK     1      28.488  -9.669  35.700  1.00  0.00    -0.293 OA
HETATM    2  N1  UNK     1      28.864  -5.338  37.579  1.00  0.00    -0.362 N 
HETATM    3  C1  UNK     1      26.601  -8.229  38.441  1.00  0.00    -0.036 C 
HETATM    4  C2  UNK     1      26.950  -6.745  38.206  1.00  0.00     0.067 C 
HETATM    5  C3  UNK     1      26.683  -8.985  37.108  1.00  0.00     0.092 C 
HETATM    6  C4  UNK     1      28.200  -6.536  37.388  1.00  0.00     0.021 C 
HETATM    7  C5  UNK     1      28.696  -7.459  36.538  1.00  0.00     0.024 C 
HETATM    8  C6  UNK     1      29.965  -7.191  35.730  1.00  0.00     0.104 C 
HETATM    9  C7  UNK     1      28.009  -8.780  36.403  1.00  0.00     0.159 C 
HETATM   10  C8  UNK     1      27.557  -8.856  39.477  1.00  0.00     0.015 C 
HETATM   11  C9  UNK     1      25.168  -8.330  38.993  1.00  0.00     0.015 C 
HETATM   12  C10 UNK     1      30.689  -5.923  36.190  1.00  0.00     0.052 C 
HETATM   13  C11 UNK     1      30.111  -5.050  37.048  1.00  0.00     0.018 C 
HETATM   14  C13 UNK     1      30.716  -3.752  37.510  1.00  0.00     0.069 C 
HETATM   15  H12 UNK     1      28.461  -4.669  38.225  1.00  0.00     0.165 HD
ENDROOT
BRANCH   8  16
HETATM   16  C12 UNK     1      29.647  -7.102  34.258  1.00  0.00     0.029 A 
HETATM   17  C15 UNK     1      30.431  -7.934  33.311  1.00  0.00     0.194 A 
HETATM   18  O5  UNK     1      31.323  -8.684  33.687  1.00  0.00    -0.287 OA
HETATM   19  C17 UNK     1      30.080  -7.808  31.884  1.00  0.00     0.049 A 
HETATM   20  C18 UNK     1      29.056  -6.937  31.512  1.00  0.00     0.089 A 
HETATM   21  C19 UNK     1      30.760  -8.549  30.914  1.00  0.00     0.025 A 
HETATM   22  O2  UNK     1      28.354  -6.186  32.422  1.00  0.00    -0.321 OA
HETATM   23  C20 UNK     1      28.706  -6.802  30.168  1.00  0.00     0.039 A 
HETATM   24  C16 UNK     1      28.693  -6.313  33.746  1.00  0.00     0.154 A 
HETATM   25  C23 UNK     1      29.384  -7.541  29.198  1.00  0.00     0.009 A 
HETATM   26  C21 UNK     1      30.409  -8.412  29.571  1.00  0.00    -0.061 A 
HETATM   27  C24 UNK     1      31.130  -9.201  28.529  1.00  0.00     0.048 C 
ENDBRANCH   8  16
BRANCH  12  28
HETATM   28  C14 UNK     1      32.064  -5.731  35.699  1.00  0.00     0.292 C 
HETATM   29  O4  UNK     1      32.348  -4.976  34.787  1.00  0.00    -0.259 OA
BRANCH  28  30
HETATM   30  O3  UNK     1      32.893  -6.519  36.426  1.00  0.00    -0.318 OA
BRANCH  30  31
HETATM   31  C22 UNK     1      33.850  -5.817  37.226  1.00  0.00     0.174 C 
HETATM   32  C25 UNK     1      35.182  -5.807  36.506  1.00  0.00     0.034 C 
ENDBRANCH  30  31
ENDBRANCH  28  30
ENDBRANCH  12  28
TORSDOF 4
ENDMDL
MODEL 3
REMARK VINA RESULT:      -7.8      1.114      1.919
REMARK  4 active torsions:
REMARK  status: ('A' for Active; 'I' for Inactive)
REMARK    1  A    between atoms: C14_20  and  O3_3 
REMARK    2  A    between atoms: C22_28  and  O3_3 
REMARK    3  A    between atoms: C12_18  and  C6_12 
REMARK    4  A    between atoms: C10_16  and  C14_20 
ROOT
HETATM    1  O1  UNK     1      30.193  -4.875  31.881  1.00  0.00    -0.293 OA
HETATM    2  N1  UNK     1      31.693  -9.307  32.608  1.00  0.00    -0.362 N 
HETATM    3  C1  UNK     1      28.989  -7.940  30.363  1.00  0.00    -0.036 C 
HETATM    4  C2  UNK     1      29.613  -8.946  31.352  1.00  0.00     0.067 C 
HETATM    5  C3  UNK     1      28.753  -6.605  31.083  1.00  0.00     0.092 C 
HETATM    6  C4  UNK     1      30.773  -8.389  32.138  1.00  0.00     0.021 C 
HETATM    7  C5  UNK     1      30.960  -7.069  32.354  1.00  0.00     0.024 C 
HETATM    8  C6  UNK     1      32.152  -6.561  33.163  1.00  0.00     0.104 C 
HETATM    9  C7  UNK     1      29.999  -6.084  31.770  1.00  0.00     0.159 C 
HETATM   10  C8  UNK     1      29.907  -7.738  29.140  1.00  0.00     0.015 C 
HETATM   11  C9  UNK     1      27.642  -8.491  29.863  1.00  0.00     0.015 C 
HETATM   12  C10 UNK     1      33.177  -7.663  33.443  1.00  0.00     0.052 C 
HETATM   13  C11 UNK     1      32.901  -8.965  33.195  1.00  0.00     0.018 C 
HETATM   14  C13 UNK     1      33.816 -10.122  33.491  1.00  0.00     0.069 C 
HETATM   15  H12 UNK     1      31.518 -10.289  32.427  1.00  0.00     0.165 HD
ENDROOT
BRANCH   8  16
HETATM   16  C12 UNK     1      31.688  -5.941  34.458  1.00  0.00     0.029 A 
HETATM   17  C15 UNK     1      30.761  -6.714  35.322  1.00  0.00     0.194 A 
HETATM   18  O5  UNK     1      30.364  -7.830  35.016  1.00  0.00    -0.287 OA
HETATM   19  C17 UNK     1      30.339  -6.061  36.575  1.00  0.00     0.049 A 
HETATM   20  C18 UNK     1      30.822  -4.787  36.873  1.00  0.00     0.089 A 
HETATM   21  C19 UNK     1      29.467  -6.706  37.457  1.00  0.00     0.025 A 
HETATM   22  O2  UNK     1      31.680  -4.107  36.045  1.00  0.00    -0.321 OA
HETATM   23  C20 UNK     1      30.436  -4.151  38.053  1.00  0.00     0.039 A 
HETATM   24  C16 UNK     1      32.063  -4.727  34.881  1.00  0.00     0.154 A 
HETATM   25  C23 UNK     1      29.566  -4.793  38.934  1.00  0.00     0.009 A 
HETATM   26  C21 UNK     1      29.083  -6.068  38.636  1.00  0.00    -0.061 A 
HETATM   27  C24 UNK     1      28.153  -6.751  39.583  1.00  0.00     0.048 C 
ENDBRANCH   8  16
BRANCH  12  28
HETATM   28  C14 UNK     1      34.493  -7.232  33.942  1.00  0.00     0.292 C 
HETATM   29  O4  UNK     1      35.352  -6.747  33.228  1.00  0.00    -0.259 OA
BRANCH  28  30
HETATM   30  O3  UNK     1      34.547  -7.473  35.274  1.00  0.00    -0.318 OA
BRANCH  30  31
HETATM   31  C22 UNK     1      35.097  -6.412  36.061  1.00  0.00     0.174 C 
HETATM   32  C25 UNK     1      34.341  -6.326  37.370  1.00  0.00     0.034 C 
ENDBRANCH  30  31
ENDBRANCH  28  30
ENDBRANCH  12  28
TORSDOF 4
ENDMDL
MODEL 4
REMARK VINA RESULT:      -7.8      2.317      6.274
REMARK  4 active torsions:
REMARK  status: ('A' for Active; 'I' for Inactive)
REMARK    1  A    between atoms: C14_20  and  O3_3 
REMARK    2  A    between atoms: C22_28  and  O3_3 
REMARK    3  A    between atoms: C12_18  and  C6_12 
REMARK    4  A    between atoms: C10_16  and  C14_20 
ROOT
HETATM    1  O1  UNK     1      32.074  -5.318  33.821  1.00  0.00    -0.293 OA
HETATM    2  N1  UNK     1      32.542  -8.925  36.855  1.00  0.00    -0.362 N 
HETATM    3  C1  UNK     1      35.105  -6.619  35.328  1.00  0.00    -0.036 C 
HETATM    4  C2  UNK     1      34.556  -7.974  35.817  1.00  0.00     0.067 C 
HETATM    5  C3  UNK     1      34.293  -6.154  34.111  1.00  0.00     0.092 C 
HETATM    6  C4  UNK     1      33.054  -8.009  35.955  1.00  0.00     0.021 C 
HETATM    7  C5  UNK     1      32.226  -7.179  35.285  1.00  0.00     0.024 C 
HETATM    8  C6  UNK     1      30.711  -7.261  35.460  1.00  0.00     0.104 C 
HETATM    9  C7  UNK     1      32.801  -6.140  34.377  1.00  0.00     0.159 C 
HETATM   10  C8  UNK     1      35.041  -5.567  36.454  1.00  0.00     0.015 C 
HETATM   11  C9  UNK     1      36.579  -6.789  34.918  1.00  0.00     0.015 C 
HETATM   12  C10 UNK     1      30.309  -8.174  36.623  1.00  0.00     0.052 C 
HETATM   13  C11 UNK     1      31.210  -8.976  37.236  1.00  0.00     0.018 C 
HETATM   14  C13 UNK     1      30.901  -9.948  38.342  1.00  0.00     0.069 C 
HETATM   15  H12 UNK     1      33.194  -9.531  37.338  1.00  0.00     0.165 HD
ENDROOT
BRANCH   8  16
HETATM   16  C12 UNK     1      30.054  -7.727  34.184  1.00  0.00     0.029 A 
HETATM   17  C15 UNK     1      28.995  -6.879  33.581  1.00  0.00     0.194 A 
HETATM   18  O5  UNK     1      28.641  -5.822  34.087  1.00  0.00    -0.287 OA
HETATM   19  C17 UNK     1      28.387  -7.381  32.335  1.00  0.00     0.049 A 
HETATM   20  C18 UNK     1      28.828  -8.593  31.804  1.00  0.00     0.089 A 
HETATM   21  C19 UNK     1      27.381  -6.656  31.691  1.00  0.00     0.025 A 
HETATM   22  O2  UNK     1      29.813  -9.346  32.395  1.00  0.00    -0.321 OA
HETATM   23  C20 UNK     1      28.268  -9.087  30.626  1.00  0.00     0.039 A 
HETATM   24  C16 UNK     1      30.370  -8.866  33.555  1.00  0.00     0.154 A 
HETATM   25  C23 UNK     1      27.263  -8.365  29.981  1.00  0.00     0.009 A 
HETATM   26  C21 UNK     1      26.821  -7.152  30.513  1.00  0.00    -0.061 A 
HETATM   27  C24 UNK     1      25.747  -6.384  29.818  1.00  0.00     0.048 C 
ENDBRANCH   8  16
BRANCH  12  28
HETATM   28  C14 UNK     1      28.910  -8.093  37.075  1.00  0.00     0.292 C 
HETATM   29  O4  UNK     1      28.150  -9.044  37.068  1.00  0.00    -0.259 OA
BRANCH  28  30
HETATM   30  O3  UNK     1      28.662  -6.822  37.474  1.00  0.00    -0.318 OA
BRANCH  30  31
HETATM   31  C22 UNK     1      29.047  -6.523  38.820  1.00  0.00     0.174 C 
HETATM   32  C25 UNK     1      29.772  -5.194  38.841  1.00  0.00     0.034 C 
ENDBRANCH  30  31
ENDBRANCH  28  30
ENDBRANCH  12  28
TORSDOF 4
ENDMDL
MODEL 5
REMARK VINA RESULT:      -7.8      1.892      2.790
REMARK  4 active torsions:
REMARK  status: ('A' for Active; 'I' for Inactive)
REMARK    1  A    between atoms: C14_20  and  O3_3 
REMARK    2  A    between atoms: C22_28  and  O3_3 
REMARK    3  A    between atoms: C12_18  and  C6_12 
REMARK    4  A    between atoms: C10_16  and  C14_20 
ROOT
HETATM    1  O1  UNK     1      28.831  -5.616  32.906  1.00  0.00    -0.293 OA
HETATM    2  N1  UNK     1      31.227  -9.695  32.686  1.00  0.00    -0.362 N 
HETATM    3  C1  UNK     1      28.511  -8.290  30.479  1.00  0.00    -0.036 C 
HETATM    4  C2  UNK     1      29.250  -9.397  31.258  1.00  0.00     0.067 C 
HETATM    5  C3  UNK     1      27.907  -7.289  31.474  1.00  0.00     0.092 C 
HETATM    6  C4  UNK     1      30.171  -8.875  32.332  1.00  0.00     0.021 C 
HETATM    7  C5  UNK     1      30.030  -7.663  32.909  1.00  0.00     0.024 C 
HETATM    8  C6  UNK     1      30.991  -7.187  33.997  1.00  0.00     0.104 C 
HETATM    9  C7  UNK     1      28.930  -6.757  32.457  1.00  0.00     0.159 C 
HETATM   10  C8  UNK     1      29.472  -7.574  29.508  1.00  0.00     0.015 C 
HETATM   11  C9  UNK     1      27.380  -8.925  29.650  1.00  0.00     0.015 C 
HETATM   12  C10 UNK     1      32.208  -8.105  34.138  1.00  0.00     0.052 C 
HETATM   13  C11 UNK     1      32.262  -9.308  33.522  1.00  0.00     0.018 C 
HETATM   14  C13 UNK     1      33.384 -10.302  33.648  1.00  0.00     0.069 C 
HETATM   15  H12 UNK     1      31.299 -10.598  32.232  1.00  0.00     0.165 HD
ENDROOT
BRANCH   8  16
HETATM   16  C12 UNK     1      30.275  -7.065  35.320  1.00  0.00     0.029 A 
HETATM   17  C15 UNK     1      29.699  -8.290  35.930  1.00  0.00     0.194 A 
HETATM   18  O5  UNK     1      29.787  -9.387  35.394  1.00  0.00    -0.287 OA
HETATM   19  C17 UNK     1      29.011  -8.114  37.222  1.00  0.00     0.049 A 
HETATM   20  C18 UNK     1      28.940  -6.841  37.786  1.00  0.00     0.089 A 
HETATM   21  C19 UNK     1      28.435  -9.206  37.877  1.00  0.00     0.025 A 
HETATM   22  O2  UNK     1      29.489  -5.734  37.187  1.00  0.00    -0.321 OA
HETATM   23  C20 UNK     1      28.295  -6.651  39.008  1.00  0.00     0.039 A 
HETATM   24  C16 UNK     1      30.126  -5.913  35.984  1.00  0.00     0.154 A 
HETATM   25  C23 UNK     1      27.719  -7.740  39.664  1.00  0.00     0.009 A 
HETATM   26  C21 UNK     1      27.789  -9.014  39.099  1.00  0.00    -0.061 A 
HETATM   27  C24 UNK     1      27.172 -10.175  39.805  1.00  0.00     0.048 C 
ENDBRANCH   8  16
BRANCH  12  28
HETATM   28  C14 UNK     1      33.338  -7.589  34.930  1.00  0.00     0.292 C 
HETATM   29  O4  UNK     1      34.099  -6.729  34.526  1.00  0.00    -0.259 OA
BRANCH  28  30
HETATM   30  O3  UNK     1      33.351  -8.229  36.124  1.00  0.00    -0.318 OA
BRANCH  30  31
HETATM   31  C22 UNK     1      33.520  -7.382  37.265  1.00  0.00     0.174 C 
HETATM   32  C25 UNK     1      32.485  -7.746  38.307  1.00  0.00     0.034 C 
ENDBRANCH  30  31
ENDBRANCH  28  30
ENDBRANCH  12  28
TORSDOF 4
ENDMDL
MODEL 6
REMARK VINA RESULT:      -7.6      2.552      4.095
REMARK  4 active torsions:
REMARK  status: ('A' for Active; 'I' for Inactive)
REMARK    1  A    between atoms: C14_20  and  O3_3 
REMARK    2  A    between atoms: C22_28  and  O3_3 
REMARK    3  A    between atoms: C12_18  and  C6_12 
REMARK    4  A    between atoms: C10_16  and  C14_20 
ROOT
HETATM    1  O1  UNK     1      29.874  -9.086  33.549  1.00  0.00    -0.293 OA
HETATM    2  N1  UNK     1      34.107  -8.020  35.387  1.00  0.00    -0.362 N 
HETATM    3  C1  UNK     1      33.143 -10.271  32.519  1.00  0.00    -0.036 C 
HETATM    4  C2  UNK     1      33.940  -9.868  33.776  1.00  0.00     0.067 C 
HETATM    5  C3  UNK     1      31.678 -10.515  32.906  1.00  0.00     0.092 C 
HETATM    6  C4  UNK     1      33.274  -8.796  34.603  1.00  0.00     0.021 C 
HETATM    7  C5  UNK     1      31.947  -8.551  34.572  1.00  0.00     0.024 C 
HETATM    8  C6  UNK     1      31.324  -7.455  35.435  1.00  0.00     0.104 C 
HETATM    9  C7  UNK     1      31.072  -9.346  33.658  1.00  0.00     0.159 C 
HETATM   10  C8  UNK     1      33.240  -9.175  31.438  1.00  0.00     0.015 C 
HETATM   11  C9  UNK     1      33.736 -11.567  31.939  1.00  0.00     0.015 C 
HETATM   12  C10 UNK     1      32.381  -6.561  36.090  1.00  0.00     0.052 C 
HETATM   13  C11 UNK     1      33.694  -6.888  36.072  1.00  0.00     0.018 C 
HETATM   14  C13 UNK     1      34.796  -6.108  36.736  1.00  0.00     0.069 C 
HETATM   15  H12 UNK     1      35.097  -8.235  35.385  1.00  0.00     0.165 HD
ENDROOT
BRANCH   8  16
HETATM   16  C12 UNK     1      30.427  -8.055  36.489  1.00  0.00     0.029 A 
HETATM   17  C15 UNK     1      29.017  -7.594  36.567  1.00  0.00     0.194 A 
HETATM   18  O5  UNK     1      28.567  -6.747  35.808  1.00  0.00    -0.287 OA
HETATM   19  C17 UNK     1      28.185  -8.213  37.616  1.00  0.00     0.049 A 
HETATM   20  C18 UNK     1      28.752  -9.173  38.454  1.00  0.00     0.089 A 
HETATM   21  C19 UNK     1      26.846  -7.847  37.771  1.00  0.00     0.025 A 
HETATM   22  O2  UNK     1      30.061  -9.571  38.346  1.00  0.00    -0.321 OA
HETATM   23  C20 UNK     1      27.983  -9.772  39.452  1.00  0.00     0.039 A 
HETATM   24  C16 UNK     1      30.824  -8.986  37.366  1.00  0.00     0.154 A 
HETATM   25  C23 UNK     1      26.645  -9.407  39.609  1.00  0.00     0.009 A 
HETATM   26  C21 UNK     1      26.079  -8.447  38.770  1.00  0.00    -0.061 A 
HETATM   27  C24 UNK     1      24.647  -8.062  38.941  1.00  0.00     0.048 C 
ENDBRANCH   8  16
BRANCH  12  28
HETATM   28  C14 UNK     1      31.905  -5.302  36.689  1.00  0.00     0.292 C 
HETATM   29  O4  UNK     1      31.827  -4.256  36.070  1.00  0.00    -0.259 OA
BRANCH  28  30
HETATM   30  O3  UNK     1      31.593  -5.537  37.986  1.00  0.00    -0.318 OA
BRANCH  30  31
HETATM   31  C22 UNK     1      30.821  -4.511  38.619  1.00  0.00     0.174 C 
HETATM   32  C25 UNK     1      29.464  -5.071  38.988  1.00  0.00     0.034 C 
ENDBRANCH  30  31
ENDBRANCH  28  30
ENDBRANCH  12  28
TORSDOF 4
ENDMDL
MODEL 7
REMARK VINA RESULT:      -7.6      2.498      6.936
REMARK  4 active torsions:
REMARK  status: ('A' for Active; 'I' for Inactive)
REMARK    1  A    between atoms: C14_20  and  O3_3 
REMARK    2  A    between atoms: C22_28  and  O3_3 
REMARK    3  A    between atoms: C12_18  and  C6_12 
REMARK    4  A    between atoms: C10_16  and  C14_20 
ROOT
HETATM    1  O1  UNK     1      32.104  -6.322  37.040  1.00  0.00    -0.293 OA
HETATM    2  N1  UNK     1      27.988  -6.625  34.718  1.00  0.00    -0.362 N 
HETATM    3  C1  UNK     1      28.746  -6.405  38.405  1.00  0.00    -0.036 C 
HETATM    4  C2  UNK     1      28.003  -6.922  37.156  1.00  0.00     0.067 C 
HETATM    5  C3  UNK     1      30.201  -6.893  38.366  1.00  0.00     0.092 C 
HETATM    6  C4  UNK     1      28.753  -6.702  35.867  1.00  0.00     0.021 C 
HETATM    7  C5  UNK     1      30.092  -6.543  35.803  1.00  0.00     0.024 C 
HETATM    8  C6  UNK     1      30.801  -6.328  34.467  1.00  0.00     0.104 C 
HETATM    9  C7  UNK     1      30.895  -6.549  37.064  1.00  0.00     0.159 C 
HETATM   10  C8  UNK     1      28.694  -4.864  38.470  1.00  0.00     0.015 C 
HETATM   11  C9  UNK     1      28.059  -6.959  39.667  1.00  0.00     0.015 C 
HETATM   12  C10 UNK     1      29.817  -6.069  33.322  1.00  0.00     0.052 C 
HETATM   13  C11 UNK     1      28.486  -6.257  33.478  1.00  0.00     0.018 C 
HETATM   14  C13 UNK     1      27.450  -6.088  32.400  1.00  0.00     0.069 C 
HETATM   15  H12 UNK     1      26.986  -6.751  34.805  1.00  0.00     0.165 HD
ENDROOT
BRANCH   8  16
HETATM   16  C12 UNK     1      31.681  -7.508  34.138  1.00  0.00     0.029 A 
HETATM   17  C15 UNK     1      33.136  -7.278  33.950  1.00  0.00     0.194 A 
HETATM   18  O5  UNK     1      33.638  -6.166  34.053  1.00  0.00    -0.287 OA
HETATM   19  C17 UNK     1      33.950  -8.466  33.630  1.00  0.00     0.049 A 
HETATM   20  C18 UNK     1      33.325  -9.708  33.523  1.00  0.00     0.089 A 
HETATM   21  C19 UNK     1      35.329  -8.353  33.435  1.00  0.00     0.025 A 
HETATM   22  O2  UNK     1      31.974  -9.876  33.706  1.00  0.00    -0.321 OA
HETATM   23  C20 UNK     1      34.075 -10.845  33.221  1.00  0.00     0.039 A 
HETATM   24  C16 UNK     1      31.230  -8.762  34.003  1.00  0.00     0.154 A 
HETATM   25  C23 UNK     1      35.452 -10.735  33.026  1.00  0.00     0.009 A 
HETATM   26  C21 UNK     1      36.077  -9.492  33.133  1.00  0.00    -0.061 A 
HETATM   27  C24 UNK     1      37.550  -9.380  32.923  1.00  0.00     0.048 C 
ENDBRANCH   8  16
BRANCH  12  28
HETATM   28  C14 UNK     1      30.385  -5.552  32.066  1.00  0.00     0.292 C 
HETATM   29  O4  UNK     1      30.833  -6.270  31.190  1.00  0.00    -0.259 OA
BRANCH  28  30
HETATM   30  O3  UNK     1      30.309  -4.200  32.086  1.00  0.00    -0.318 OA
BRANCH  30  31
HETATM   31  C22 UNK     1      29.975  -3.592  30.834  1.00  0.00     0.174 C 
HETATM   32  C25 UNK     1      30.099  -2.089  30.967  1.00  0.00     0.034 C 
ENDBRANCH  30  31
ENDBRANCH  28  30
ENDBRANCH  12  28
TORSDOF 4
ENDMDL
MODEL 8
REMARK VINA RESULT:      -7.6      2.177      4.621
REMARK  4 active torsions:
REMARK  status: ('A' for Active; 'I' for Inactive)
REMARK    1  A    between atoms: C14_20  and  O3_3 
REMARK    2  A    between atoms: C22_28  and  O3_3 
REMARK    3  A    between atoms: C12_18  and  C6_12 
REMARK    4  A    between atoms: C10_16  and  C14_20 
ROOT
HETATM    1  O1  UNK     1      29.843 -10.142  34.734  1.00  0.00    -0.293 OA
HETATM    2  N1  UNK     1      31.798  -8.661  30.683  1.00  0.00    -0.362 N 
HETATM    3  C1  UNK     1      31.619 -12.089  32.244  1.00  0.00    -0.036 C 
HETATM    4  C2  UNK     1      32.295 -10.930  31.485  1.00  0.00     0.067 C 
HETATM    5  C3  UNK     1      31.364 -11.663  33.696  1.00  0.00     0.092 C 
HETATM    6  C4  UNK     1      31.624  -9.595  31.688  1.00  0.00     0.021 C 
HETATM    7  C5  UNK     1      30.852  -9.305  32.757  1.00  0.00     0.024 C 
HETATM    8  C6  UNK     1      30.200  -7.933  32.914  1.00  0.00     0.104 C 
HETATM    9  C7  UNK     1      30.608 -10.353  33.795  1.00  0.00     0.159 C 
HETATM   10  C8  UNK     1      30.295 -12.489  31.559  1.00  0.00     0.015 C 
HETATM   11  C9  UNK     1      32.551 -13.314  32.231  1.00  0.00     0.015 C 
HETATM   12  C10 UNK     1      30.317  -7.085  31.644  1.00  0.00     0.052 C 
HETATM   13  C11 UNK     1      31.119  -7.455  30.619  1.00  0.00     0.018 C 
HETATM   14  C13 UNK     1      31.347  -6.662  29.360  1.00  0.00     0.069 C 
HETATM   15  H12 UNK     1      32.385  -8.915  29.896  1.00  0.00     0.165 HD
ENDROOT
BRANCH   8  16
HETATM   16  C12 UNK     1      30.794  -7.194  34.088  1.00  0.00     0.029 A 
HETATM   17  C15 UNK     1      29.875  -6.623  35.105  1.00  0.00     0.194 A 
HETATM   18  O5  UNK     1      28.659  -6.732  35.019  1.00  0.00    -0.287 OA
HETATM   19  C17 UNK     1      30.509  -5.911  36.230  1.00  0.00     0.049 A 
HETATM   20  C18 UNK     1      31.899  -5.815  36.277  1.00  0.00     0.089 A 
HETATM   21  C19 UNK     1      29.730  -5.338  37.240  1.00  0.00     0.025 A 
HETATM   22  O2  UNK     1      32.712  -6.360  35.314  1.00  0.00    -0.321 OA
HETATM   23  C20 UNK     1      32.519  -5.147  37.333  1.00  0.00     0.039 A 
HETATM   24  C16 UNK     1      32.108  -7.019  34.272  1.00  0.00     0.154 A 
HETATM   25  C23 UNK     1      31.744  -4.574  38.341  1.00  0.00     0.009 A 
HETATM   26  C21 UNK     1      30.353  -4.669  38.294  1.00  0.00    -0.061 A 
HETATM   27  C24 UNK     1      29.528  -4.055  39.376  1.00  0.00     0.048 C 
ENDBRANCH   8  16
BRANCH  12  28
HETATM   28  C14 UNK     1      29.473  -5.881  31.571  1.00  0.00     0.292 C 
HETATM   29  O4  UNK     1      29.923  -4.749  31.578  1.00  0.00    -0.259 OA
BRANCH  28  30
HETATM   30  O3  UNK     1      28.177  -6.269  31.499  1.00  0.00    -0.318 OA
BRANCH  30  31
HETATM   31  C22 UNK     1      27.627  -6.305  30.179  1.00  0.00     0.174 C 
HETATM   32  C25 UNK     1      26.168  -6.700  30.263  1.00  0.00     0.034 C 
ENDBRANCH  30  31
ENDBRANCH  28  30
ENDBRANCH  12  28
TORSDOF 4
ENDMDL
MODEL 9
REMARK VINA RESULT:      -7.4      1.838      4.969
REMARK  4 active torsions:
REMARK  status: ('A' for Active; 'I' for Inactive)
REMARK    1  A    between atoms: C14_20  and  O3_3 
REMARK    2  A    between atoms: C22_28  and  O3_3 
REMARK    3  A    between atoms: C12_18  and  C6_12 
REMARK    4  A    between atoms: C10_16  and  C14_20 
ROOT
HETATM    1  O1  UNK     1      32.970  -9.807  34.548  1.00  0.00    -0.293 OA
HETATM    2  N1  UNK     1      32.879  -7.358  30.496  1.00  0.00    -0.362 N 
HETATM    3  C1  UNK     1      35.538  -9.570  31.999  1.00  0.00    -0.036 C 
HETATM    4  C2  UNK     1      35.005  -8.331  31.251  1.00  0.00     0.067 C 
HETATM    5  C3  UNK     1      35.077  -9.514  33.462  1.00  0.00     0.092 C 
HETATM    6  C4  UNK     1      33.540  -8.060  31.487  1.00  0.00     0.021 C 
HETATM    7  C5  UNK     1      32.868  -8.499  32.572  1.00  0.00     0.024 C 
HETATM    8  C6  UNK     1      31.384  -8.191  32.762  1.00  0.00     0.104 C 
HETATM    9  C7  UNK     1      33.579  -9.326  33.594  1.00  0.00     0.159 C 
HETATM   10  C8  UNK     1      35.042 -10.867  31.327  1.00  0.00     0.015 C 
HETATM   11  C9  UNK     1      37.076  -9.567  31.952  1.00  0.00     0.015 C 
HETATM   12  C10 UNK     1      30.751  -7.586  31.505  1.00  0.00     0.052 C 
HETATM   13  C11 UNK     1      31.507  -7.171  30.462  1.00  0.00     0.018 C 
HETATM   14  C13 UNK     1      30.984  -6.513  29.214  1.00  0.00     0.069 C 
HETATM   15  H12 UNK     1      33.418  -7.045  29.697  1.00  0.00     0.165 HD
ENDROOT
BRANCH   8  16
HETATM   16  C12 UNK     1      31.180  -7.270  33.940  1.00  0.00     0.029 A 
HETATM   17  C15 UNK     1      30.277  -7.707  35.034  1.00  0.00     0.194 A 
HETATM   18  O5  UNK     1      29.697  -8.785  35.007  1.00  0.00    -0.287 OA
HETATM   19  C17 UNK     1      30.113  -6.770  36.160  1.00  0.00     0.049 A 
HETATM   20  C18 UNK     1      30.798  -5.555  36.137  1.00  0.00     0.089 A 
HETATM   21  C19 UNK     1      29.284  -7.089  37.239  1.00  0.00     0.025 A 
HETATM   22  O2  UNK     1      31.626  -5.190  35.104  1.00  0.00    -0.321 OA
HETATM   23  C20 UNK     1      30.659  -4.653  37.192  1.00  0.00     0.039 A 
HETATM   24  C16 UNK     1      31.767  -6.073  34.062  1.00  0.00     0.154 A 
HETATM   25  C23 UNK     1      29.831  -4.969  38.270  1.00  0.00     0.009 A 
HETATM   26  C21 UNK     1      29.146  -6.185  38.293  1.00  0.00    -0.061 A 
HETATM   27  C24 UNK     1      28.263  -6.519  39.449  1.00  0.00     0.048 C 
ENDBRANCH   8  16
BRANCH  12  28
HETATM   28  C14 UNK     1      29.280  -7.532  31.465  1.00  0.00     0.292 C 
HETATM   29  O4  UNK     1      28.641  -6.531  31.734  1.00  0.00    -0.259 OA
BRANCH  28  30
HETATM   30  O3  UNK     1      28.816  -8.749  31.093  1.00  0.00    -0.318 OA
BRANCH  30  31
HETATM   31  C22 UNK     1      27.890  -8.737  30.001  1.00  0.00     0.174 C 
HETATM   32  C25 UNK     1      28.447  -9.581  28.874  1.00  0.00     0.034 C 
ENDBRANCH  30  31
ENDBRANCH  28  30
ENDBRANCH  12  28
TORSDOF 4
ENDMDL
MODEL 10
REMARK VINA RESULT:      -7.4      1.936      6.528
REMARK  4 active torsions:
REMARK  status: ('A' for Active; 'I' for Inactive)
REMARK    1  A    between atoms: C14_20  and  O3_3 
REMARK    2  A    between atoms: C22_28  and  O3_3 
REMARK    3  A    between atoms: C12_18  and  C6_12 
REMARK    4  A    between atoms: C10_16  and  C14_20 
ROOT
HETATM    1  O1  UNK     1      29.849  -8.125  35.777  1.00  0.00    -0.293 OA
HETATM    2  N1  UNK     1      32.629  -4.298  35.545  1.00  0.00    -0.362 N 
HETATM    3  C1  UNK     1      29.856  -5.209  37.932  1.00  0.00    -0.036 C 
HETATM    4  C2  UNK     1      30.674  -4.261  37.033  1.00  0.00     0.067 C 
HETATM    5  C3  UNK     1      29.131  -6.238  37.054  1.00  0.00     0.092 C 
HETATM    6  C4  UNK     1      31.511  -4.972  35.999  1.00  0.00     0.021 C 
HETATM    7  C5  UNK     1      31.238  -6.215  35.549  1.00  0.00     0.024 C 
HETATM    8  C6  UNK     1      32.117  -6.886  34.495  1.00  0.00     0.104 C 
HETATM    9  C7  UNK     1      30.070  -6.961  36.109  1.00  0.00     0.159 C 
HETATM   10  C8  UNK     1      30.771  -5.918  38.952  1.00  0.00     0.015 C 
HETATM   11  C9  UNK     1      28.815  -4.389  38.716  1.00  0.00     0.015 C 
HETATM   12  C10 UNK     1      33.412  -6.110  34.240  1.00  0.00     0.052 C 
HETATM   13  C11 UNK     1      33.599  -4.863  34.733  1.00  0.00     0.018 C 
HETATM   14  C13 UNK     1      34.807  -4.001  34.487  1.00  0.00     0.069 C 
HETATM   15  H12 UNK     1      32.801  -3.366  35.906  1.00  0.00     0.165 HD
ENDROOT
BRANCH   8  16
HETATM   16  C12 UNK     1      31.356  -7.065  33.205  1.00  0.00     0.029 A 
HETATM   17  C15 UNK     1      31.247  -8.429  32.628  1.00  0.00     0.194 A 
HETATM   18  O5  UNK     1      31.754  -9.405  33.166  1.00  0.00    -0.287 OA
HETATM   19  C17 UNK     1      30.493  -8.546  31.366  1.00  0.00     0.049 A 
HETATM   20  C18 UNK     1      29.938  -7.400  30.798  1.00  0.00     0.089 A 
HETATM   21  C19 UNK     1      30.334  -9.788  30.744  1.00  0.00     0.025 A 
HETATM   22  O2  UNK     1      30.062  -6.157  31.366  1.00  0.00    -0.321 OA
HETATM   23  C20 UNK     1      29.221  -7.488  29.605  1.00  0.00     0.039 A 
HETATM   24  C16 UNK     1      30.767  -6.062  32.540  1.00  0.00     0.154 A 
HETATM   25  C23 UNK     1      29.061  -8.726  28.982  1.00  0.00     0.009 A 
HETATM   26  C21 UNK     1      29.616  -9.873  29.551  1.00  0.00    -0.061 A 
HETATM   27  C24 UNK     1      29.442 -11.195  28.881  1.00  0.00     0.048 C 
ENDBRANCH   8  16
BRANCH  12  28
HETATM   28  C14 UNK     1      34.464  -6.808  33.482  1.00  0.00     0.292 C 
HETATM   29  O4  UNK     1      34.583  -6.724  32.273  1.00  0.00    -0.259 OA
BRANCH  28  30
HETATM   30  O3  UNK     1      35.221  -7.517  34.353  1.00  0.00    -0.318 OA
BRANCH  30  31
HETATM   31  C22 UNK     1      36.635  -7.378  34.180  1.00  0.00     0.174 C 
HETATM   32  C25 UNK     1      37.186  -8.654  33.578  1.00  0.00     0.034 C 
ENDBRANCH  30  31
ENDBRANCH  28  30
ENDBRANCH  12  28
TORSDOF 4
ENDMDL
