MODEL 1
REMARK VINA RESULT:      -9.0      0.000      0.000
REMARK  5 active torsions:
REMARK  status: ('A' for Active; 'I' for Inactive)
REMARK    1  A    between atoms: C16_23  and  O2_3 
REMARK    2  A    between atoms: C4_11  and  O2_3 
REMARK    3  A    between atoms: C6_13  and  N1_7 
REMARK       I    between atoms: C8_15  and  N1_7 
REMARK    4  A    between atoms: C2_9  and  C8_15 
REMARK    5  A    between atoms: C16_23  and  C7_14 
ROOT
HETATM    1  O3  UNK     1      17.535   3.245  32.807  1.00  0.00    -0.267 OA
HETATM    2  N1  UNK     1      18.738   4.722  31.422  1.00  0.00    -0.323 N 
HETATM    3  C8  UNK     1      18.258   3.490  31.842  1.00  0.00     0.262 C 
HETATM    4  H3  UNK     1      19.348   4.752  30.609  1.00  0.00     0.169 HD
ENDROOT
BRANCH   2   5
HETATM    5  C6  UNK     1      18.502   5.987  32.012  1.00  0.00     0.035 A 
HETATM    6  C11 UNK     1      19.444   6.516  32.877  1.00  0.00     0.030 A 
HETATM    7  C13 UNK     1      19.211   7.762  33.460  1.00  0.00     0.020 A 
HETATM    8  C7  UNK     1      18.039   8.460  33.169  1.00  0.00     0.039 A 
HETATM    9  C14 UNK     1      17.100   7.912  32.296  1.00  0.00     0.020 A 
HETATM   10  C12 UNK     1      17.333   6.667  31.712  1.00  0.00     0.030 A 
BRANCH   8  11
HETATM   11  C16 UNK     1      17.797   9.760  33.776  1.00  0.00     0.293 C 
HETATM   12  O5  UNK     1      18.470  10.774  33.551  1.00  0.00    -0.259 OA
BRANCH  11  13
HETATM   13  O2  UNK     1      16.727   9.725  34.629  1.00  0.00    -0.313 OA
BRANCH  13  14
HETATM   14  C4  UNK     1      15.585  10.508  34.265  1.00  0.00     0.124 C 
HETATM   15  C17 UNK     1      14.341   9.635  34.320  1.00  0.00     0.040 C 
HETATM   16  C18 UNK     1      15.479  11.704  35.199  1.00  0.00     0.040 C 
ENDBRANCH  13  14
ENDBRANCH  11  13
ENDBRANCH   8  11
ENDBRANCH   2   5
BRANCH   3  17
HETATM   17  C2  UNK     1      18.713   2.394  30.977  1.00  0.00     0.108 A 
HETATM   18  C10 UNK     1      18.684   2.496  29.500  1.00  0.00     0.304 A 
HETATM   19  O1  UNK     1      19.142   1.392  28.788  1.00  0.00    -0.274 OA
HETATM   20  O4  UNK     1      18.279   3.501  28.927  1.00  0.00    -0.259 OA
HETATM   21  C3  UNK     1      19.610   0.231  29.435  1.00  0.00     0.089 A 
HETATM   22  C1  UNK     1      19.627   0.156  30.825  1.00  0.00     0.000 A 
HETATM   23  C15 UNK     1      20.048  -0.824  28.638  1.00  0.00     0.039 A 
HETATM   24  C5  UNK     1      19.156   1.295  31.597  1.00  0.00     0.037 A 
HETATM   25  C9  UNK     1      20.097  -1.012  31.431  1.00  0.00     0.033 A 
HETATM   26  C19 UNK     1      20.541  -2.079  30.643  1.00  0.00     0.011 A 
HETATM   27 Br1  UNK     1      21.176  -3.657  31.468  1.00  0.00    -0.051 Br
HETATM   28  C20 UNK     1      20.515  -1.985  29.250  1.00  0.00     0.022 A 
ENDBRANCH   3  17
TORSDOF 5
ENDMDL
MODEL 2
REMARK VINA RESULT:      -8.5     14.184     16.674
REMARK  5 active torsions:
REMARK  status: ('A' for Active; 'I' for Inactive)
REMARK    1  A    between atoms: C16_23  and  O2_3 
REMARK    2  A    between atoms: C4_11  and  O2_3 
REMARK    3  A    between atoms: C6_13  and  N1_7 
REMARK       I    between atoms: C8_15  and  N1_7 
REMARK    4  A    between atoms: C2_9  and  C8_15 
REMARK    5  A    between atoms: C16_23  and  C7_14 
ROOT
HETATM    1  O3  UNK     1      26.120  -9.123  39.445  1.00  0.00    -0.267 OA
HETATM    2  N1  UNK     1      24.766  -7.557  38.321  1.00  0.00    -0.323 N 
HETATM    3  C8  UNK     1      25.938  -8.043  38.885  1.00  0.00     0.262 C 
HETATM    4  H3  UNK     1      24.777  -6.627  37.912  1.00  0.00     0.169 HD
ENDROOT
BRANCH   2   5
HETATM    5  C6  UNK     1      23.506  -8.200  38.261  1.00  0.00     0.035 A 
HETATM    6  C11 UNK     1      23.140  -8.863  37.103  1.00  0.00     0.030 A 
HETATM    7  C13 UNK     1      21.897  -9.495  37.043  1.00  0.00     0.020 A 
HETATM    8  C7  UNK     1      21.040  -9.455  38.142  1.00  0.00     0.039 A 
HETATM    9  C14 UNK     1      21.425  -8.782  39.301  1.00  0.00     0.020 A 
HETATM   10  C12 UNK     1      22.667  -8.150  39.362  1.00  0.00     0.030 A 
BRANCH   8  11
HETATM   11  C16 UNK     1      19.746 -10.115  38.080  1.00  0.00     0.293 C 
HETATM   12  O5  UNK     1      19.584 -11.343  38.096  1.00  0.00    -0.259 OA
BRANCH  11  13
HETATM   13  O2  UNK     1      18.722  -9.210  38.002  1.00  0.00    -0.313 OA
BRANCH  13  14
HETATM   14  C4  UNK     1      18.892  -8.120  37.090  1.00  0.00     0.124 C 
HETATM   15  C17 UNK     1      17.923  -8.282  35.929  1.00  0.00     0.040 C 
HETATM   16  C18 UNK     1      18.675  -6.809  37.829  1.00  0.00     0.040 C 
ENDBRANCH  13  14
ENDBRANCH  11  13
ENDBRANCH   8  11
ENDBRANCH   2   5
BRANCH   3  17
HETATM   17  C2  UNK     1      27.050  -7.093  38.756  1.00  0.00     0.108 A 
HETATM   18  C10 UNK     1      26.843  -5.629  38.827  1.00  0.00     0.304 A 
HETATM   19  O1  UNK     1      27.975  -4.830  38.693  1.00  0.00    -0.274 OA
HETATM   20  O4  UNK     1      25.732  -5.138  38.997  1.00  0.00    -0.259 OA
HETATM   21  C3  UNK     1      29.256  -5.384  38.497  1.00  0.00     0.089 A 
HETATM   22  C1  UNK     1      29.427  -6.763  38.433  1.00  0.00     0.000 A 
HETATM   23  C15 UNK     1      30.329  -4.504  38.373  1.00  0.00     0.039 A 
HETATM   24  C5  UNK     1      28.263  -7.624  38.571  1.00  0.00     0.037 A 
HETATM   25  C9  UNK     1      30.713  -7.274  38.237  1.00  0.00     0.033 A 
HETATM   26  C19 UNK     1      31.800  -6.404  38.111  1.00  0.00     0.011 A 
HETATM   27 Br1  UNK     1      33.538  -7.100  37.847  1.00  0.00    -0.051 Br
HETATM   28  C20 UNK     1      31.608  -5.022  38.179  1.00  0.00     0.022 A 
ENDBRANCH   3  17
TORSDOF 5
ENDMDL
MODEL 3
REMARK VINA RESULT:      -8.3     15.142     21.016
REMARK  5 active torsions:
REMARK  status: ('A' for Active; 'I' for Inactive)
REMARK    1  A    between atoms: C16_23  and  O2_3 
REMARK    2  A    between atoms: C4_11  and  O2_3 
REMARK    3  A    between atoms: C6_13  and  N1_7 
REMARK       I    between atoms: C8_15  and  N1_7 
REMARK    4  A    between atoms: C2_9  and  C8_15 
REMARK    5  A    between atoms: C16_23  and  C7_14 
ROOT
HETATM    1  O3  UNK     1      17.896  -3.526  15.502  1.00  0.00    -0.267 OA
HETATM    2  N1  UNK     1      20.118  -3.359  14.739  1.00  0.00    -0.323 N 
HETATM    3  C8  UNK     1      18.938  -2.901  15.308  1.00  0.00     0.262 C 
HETATM    4  H3  UNK     1      20.888  -2.703  14.629  1.00  0.00     0.169 HD
ENDROOT
BRANCH   2   5
HETATM    5  C6  UNK     1      20.394  -4.660  14.253  1.00  0.00     0.035 A 
HETATM    6  C11 UNK     1      20.143  -4.952  12.923  1.00  0.00     0.030 A 
HETATM    7  C13 UNK     1      20.413  -6.234  12.444  1.00  0.00     0.020 A 
HETATM    8  C7  UNK     1      20.930  -7.204  13.302  1.00  0.00     0.039 A 
HETATM    9  C14 UNK     1      21.177  -6.893  14.639  1.00  0.00     0.020 A 
HETATM   10  C12 UNK     1      20.907  -5.611  15.118  1.00  0.00     0.030 A 
BRANCH   8  11
HETATM   11  C16 UNK     1      21.214  -8.541  12.802  1.00  0.00     0.293 C 
HETATM   12  O5  UNK     1      20.422  -9.222  12.137  1.00  0.00    -0.259 OA
BRANCH  11  13
HETATM   13  O2  UNK     1      22.470  -8.954  13.155  1.00  0.00    -0.313 OA
BRANCH  13  14
HETATM   14  C4  UNK     1      23.284  -9.508  12.116  1.00  0.00     0.124 C 
HETATM   15  C17 UNK     1      23.629  -8.416  11.115  1.00  0.00     0.040 C 
HETATM   16  C18 UNK     1      24.529 -10.127  12.731  1.00  0.00     0.040 C 
ENDBRANCH  13  14
ENDBRANCH  11  13
ENDBRANCH   8  11
ENDBRANCH   2   5
BRANCH   3  17
HETATM   17  C2  UNK     1      19.022  -1.488  15.697  1.00  0.00     0.108 A 
HETATM   18  C10 UNK     1      19.131  -0.403  14.695  1.00  0.00     0.304 A 
HETATM   19  O1  UNK     1      19.203   0.897  15.188  1.00  0.00    -0.274 OA
HETATM   20  O4  UNK     1      19.155  -0.631  13.492  1.00  0.00    -0.259 OA
HETATM   21  C3  UNK     1      19.176   1.172  16.569  1.00  0.00     0.089 A 
HETATM   22  C1  UNK     1      19.075   0.137  17.493  1.00  0.00     0.000 A 
HETATM   23  C15 UNK     1      19.254   2.505  16.967  1.00  0.00     0.039 A 
HETATM   24  C5  UNK     1      18.996  -1.233  17.010  1.00  0.00     0.037 A 
HETATM   25  C9  UNK     1      19.052   0.448  18.855  1.00  0.00     0.033 A 
HETATM   26  C19 UNK     1      19.129   1.782  19.269  1.00  0.00     0.011 A 
HETATM   27 Br1  UNK     1      19.097   2.199  21.112  1.00  0.00    -0.051 Br
HETATM   28  C20 UNK     1      19.230   2.807  18.326  1.00  0.00     0.022 A 
ENDBRANCH   3  17
TORSDOF 5
ENDMDL
MODEL 4
REMARK VINA RESULT:      -8.3      3.967     10.221
REMARK  5 active torsions:
REMARK  status: ('A' for Active; 'I' for Inactive)
REMARK    1  A    between atoms: C16_23  and  O2_3 
REMARK    2  A    between atoms: C4_11  and  O2_3 
REMARK    3  A    between atoms: C6_13  and  N1_7 
REMARK       I    between atoms: C8_15  and  N1_7 
REMARK    4  A    between atoms: C2_9  and  C8_15 
REMARK    5  A    between atoms: C16_23  and  C7_14 
ROOT
HETATM    1  O3  UNK     1      19.353   6.557  34.245  1.00  0.00    -0.267 OA
HETATM    2  N1  UNK     1      17.687   6.119  32.639  1.00  0.00    -0.323 N 
HETATM    3  C8  UNK     1      18.325   6.846  33.634  1.00  0.00     0.262 C 
HETATM    4  H3  UNK     1      16.826   6.491  32.246  1.00  0.00     0.169 HD
ENDROOT
BRANCH   2   5
HETATM    5  C6  UNK     1      18.078   4.871  32.097  1.00  0.00     0.035 A 
HETATM    6  C11 UNK     1      17.976   3.733  32.877  1.00  0.00     0.030 A 
HETATM    7  C13 UNK     1      18.363   2.503  32.343  1.00  0.00     0.020 A 
HETATM    8  C7  UNK     1      18.845   2.431  31.037  1.00  0.00     0.039 A 
HETATM    9  C14 UNK     1      18.941   3.588  30.265  1.00  0.00     0.020 A 
HETATM   10  C12 UNK     1      18.555   4.817  30.797  1.00  0.00     0.030 A 
BRANCH   8  11
HETATM   11  C16 UNK     1      19.246   1.148  30.480  1.00  0.00     0.293 C 
HETATM   12  O5  UNK     1      19.073   0.812  29.301  1.00  0.00    -0.259 OA
BRANCH  11  13
HETATM   13  O2  UNK     1      19.844   0.355  31.422  1.00  0.00    -0.313 OA
BRANCH  13  14
HETATM   14  C4  UNK     1      19.335  -0.976  31.562  1.00  0.00     0.124 C 
HETATM   15  C17 UNK     1      20.433  -1.970  31.214  1.00  0.00     0.040 C 
HETATM   16  C18 UNK     1      18.824  -1.170  32.981  1.00  0.00     0.040 C 
ENDBRANCH  13  14
ENDBRANCH  11  13
ENDBRANCH   8  11
ENDBRANCH   2   5
BRANCH   3  17
HETATM   17  C2  UNK     1      17.627   8.102  33.938  1.00  0.00     0.108 A 
HETATM   18  C10 UNK     1      16.216   8.126  34.385  1.00  0.00     0.304 A 
HETATM   19  O1  UNK     1      15.663   9.377  34.644  1.00  0.00    -0.274 OA
HETATM   20  O4  UNK     1      15.562   7.098  34.524  1.00  0.00    -0.259 OA
HETATM   21  C3  UNK     1      16.406  10.564  34.487  1.00  0.00     0.089 A 
HETATM   22  C1  UNK     1      17.731  10.518  34.064  1.00  0.00     0.000 A 
HETATM   23  C15 UNK     1      15.767  11.770  34.769  1.00  0.00     0.039 A 
HETATM   24  C5  UNK     1      18.337   9.225  33.787  1.00  0.00     0.037 A 
HETATM   25  C9  UNK     1      18.434  11.717  33.920  1.00  0.00     0.033 A 
HETATM   26  C19 UNK     1      17.806  12.934  34.200  1.00  0.00     0.011 A 
HETATM   27 Br1  UNK     1      18.762  14.553  34.003  1.00  0.00    -0.051 Br
HETATM   28  C20 UNK     1      16.475  12.960  34.623  1.00  0.00     0.022 A 
ENDBRANCH   3  17
TORSDOF 5
ENDMDL
MODEL 5
REMARK VINA RESULT:      -8.3      7.714     10.270
REMARK  5 active torsions:
REMARK  status: ('A' for Active; 'I' for Inactive)
REMARK    1  A    between atoms: C16_23  and  O2_3 
REMARK    2  A    between atoms: C4_11  and  O2_3 
REMARK    3  A    between atoms: C6_13  and  N1_7 
REMARK       I    between atoms: C8_15  and  N1_7 
REMARK    4  A    between atoms: C2_9  and  C8_15 
REMARK    5  A    between atoms: C16_23  and  C7_14 
ROOT
HETATM    1  O3  UNK     1      21.039  -4.314  37.848  1.00  0.00    -0.267 OA
HETATM    2  N1  UNK     1      19.077  -4.158  36.555  1.00  0.00    -0.323 N 
HETATM    3  C8  UNK     1      20.108  -4.811  37.215  1.00  0.00     0.262 C 
HETATM    4  H3  UNK     1      18.391  -4.719  36.056  1.00  0.00     0.169 HD
ENDROOT
BRANCH   2   5
HETATM    5  C6  UNK     1      18.860  -2.762  36.460  1.00  0.00     0.035 A 
HETATM    6  C11 UNK     1      17.902  -2.171  37.266  1.00  0.00     0.030 A 
HETATM    7  C13 UNK     1      17.686  -0.795  37.172  1.00  0.00     0.020 A 
HETATM    8  C7  UNK     1      18.432  -0.032  36.274  1.00  0.00     0.039 A 
HETATM    9  C14 UNK     1      19.393  -0.645  35.470  1.00  0.00     0.020 A 
HETATM   10  C12 UNK     1      19.610  -2.019  35.563  1.00  0.00     0.030 A 
BRANCH   8  11
HETATM   11  C16 UNK     1      18.208   1.402  36.177  1.00  0.00     0.293 C 
HETATM   12  O5  UNK     1      17.493   2.053  36.950  1.00  0.00    -0.259 OA
BRANCH  11  13
HETATM   13  O2  UNK     1      18.890   1.947  35.123  1.00  0.00    -0.313 OA
BRANCH  13  14
HETATM   14  C4  UNK     1      18.105   2.470  34.047  1.00  0.00     0.124 C 
HETATM   15  C17 UNK     1      18.392   3.956  33.894  1.00  0.00     0.040 C 
HETATM   16  C18 UNK     1      18.421   1.699  32.775  1.00  0.00     0.040 C 
ENDBRANCH  13  14
ENDBRANCH  11  13
ENDBRANCH   8  11
ENDBRANCH   2   5
BRANCH   3  17
HETATM   17  C2  UNK     1      20.005  -6.271  37.097  1.00  0.00     0.108 A 
HETATM   18  C10 UNK     1      18.718  -6.983  37.269  1.00  0.00     0.304 A 
HETATM   19  O1  UNK     1      18.748  -8.368  37.132  1.00  0.00    -0.274 OA
HETATM   20  O4  UNK     1      17.676  -6.388  37.517  1.00  0.00    -0.259 OA
HETATM   21  C3  UNK     1      19.940  -9.062  36.847  1.00  0.00     0.089 A 
HETATM   22  C1  UNK     1      21.138  -8.372  36.690  1.00  0.00     0.000 A 
HETATM   23  C15 UNK     1      19.870 -10.448  36.729  1.00  0.00     0.039 A 
HETATM   24  C5  UNK     1      21.140  -6.924  36.826  1.00  0.00     0.037 A 
HETATM   25  C9  UNK     1      22.300  -9.095  36.408  1.00  0.00     0.033 A 
HETATM   26  C19 UNK     1      22.246 -10.487  36.287  1.00  0.00     0.011 A 
HETATM   27 Br1  UNK     1      23.820 -11.461  35.905  1.00  0.00    -0.051 Br
HETATM   28  C20 UNK     1      21.033 -11.162  36.447  1.00  0.00     0.022 A 
ENDBRANCH   3  17
TORSDOF 5
ENDMDL
MODEL 6
REMARK VINA RESULT:      -8.3      5.383     10.531
REMARK  5 active torsions:
REMARK  status: ('A' for Active; 'I' for Inactive)
REMARK    1  A    between atoms: C16_23  and  O2_3 
REMARK    2  A    between atoms: C4_11  and  O2_3 
REMARK    3  A    between atoms: C6_13  and  N1_7 
REMARK       I    between atoms: C8_15  and  N1_7 
REMARK    4  A    between atoms: C2_9  and  C8_15 
REMARK    5  A    between atoms: C16_23  and  C7_14 
ROOT
HETATM    1  O3  UNK     1      16.790   0.504  34.347  1.00  0.00    -0.267 OA
HETATM    2  N1  UNK     1      19.111   0.132  34.214  1.00  0.00    -0.323 N 
HETATM    3  C8  UNK     1      17.924   0.813  33.986  1.00  0.00     0.262 C 
HETATM    4  H3  UNK     1      19.970   0.514  33.825  1.00  0.00     0.169 HD
ENDROOT
BRANCH   2   5
HETATM    5  C6  UNK     1      19.288  -1.082  34.921  1.00  0.00     0.035 A 
HETATM    6  C11 UNK     1      19.959  -2.128  34.311  1.00  0.00     0.030 A 
HETATM    7  C13 UNK     1      20.131  -3.325  35.007  1.00  0.00     0.020 A 
HETATM    8  C7  UNK     1      19.631  -3.458  36.302  1.00  0.00     0.039 A 
HETATM    9  C14 UNK     1      18.958  -2.393  36.901  1.00  0.00     0.020 A 
HETATM   10  C12 UNK     1      18.785  -1.196  36.206  1.00  0.00     0.030 A 
BRANCH   8  11
HETATM   11  C16 UNK     1      19.813  -4.705  37.028  1.00  0.00     0.293 C 
HETATM   12  O5  UNK     1      20.594  -4.856  37.977  1.00  0.00    -0.259 OA
BRANCH  11  13
HETATM   13  O2  UNK     1      19.009  -5.696  36.534  1.00  0.00    -0.313 OA
BRANCH  13  14
HETATM   14  C4  UNK     1      19.638  -6.945  36.228  1.00  0.00     0.124 C 
HETATM   15  C17 UNK     1      18.684  -8.082  36.565  1.00  0.00     0.040 C 
HETATM   16  C18 UNK     1      20.040  -6.959  34.762  1.00  0.00     0.040 C 
ENDBRANCH  13  14
ENDBRANCH  11  13
ENDBRANCH   8  11
ENDBRANCH   2   5
BRANCH   3  17
HETATM   17  C2  UNK     1      18.131   2.043  33.212  1.00  0.00     0.108 A 
HETATM   18  C10 UNK     1      18.402   2.018  31.756  1.00  0.00     0.304 A 
HETATM   19  O1  UNK     1      18.580   3.250  31.132  1.00  0.00    -0.274 OA
HETATM   20  O4  UNK     1      18.467   0.969  31.127  1.00  0.00    -0.259 OA
HETATM   21  C3  UNK     1      18.508   4.462  31.846  1.00  0.00     0.089 A 
HETATM   22  C1  UNK     1      18.253   4.462  33.214  1.00  0.00     0.000 A 
HETATM   23  C15 UNK     1      18.700   5.645  31.135  1.00  0.00     0.039 A 
HETATM   24  C5  UNK     1      18.061   3.191  33.895  1.00  0.00     0.037 A 
HETATM   25  C9  UNK     1      18.189   5.685  33.888  1.00  0.00     0.033 A 
HETATM   26  C19 UNK     1      18.380   6.880  33.188  1.00  0.00     0.011 A 
HETATM   27 Br1  UNK     1      18.293   8.532  34.103  1.00  0.00    -0.051 Br
HETATM   28  C20 UNK     1      18.635   6.859  31.814  1.00  0.00     0.022 A 
ENDBRANCH   3  17
TORSDOF 5
ENDMDL
MODEL 7
REMARK VINA RESULT:      -8.2      6.784     11.830
REMARK  5 active torsions:
REMARK  status: ('A' for Active; 'I' for Inactive)
REMARK    1  A    between atoms: C16_23  and  O2_3 
REMARK    2  A    between atoms: C4_11  and  O2_3 
REMARK    3  A    between atoms: C6_13  and  N1_7 
REMARK       I    between atoms: C8_15  and  N1_7 
REMARK    4  A    between atoms: C2_9  and  C8_15 
REMARK    5  A    between atoms: C16_23  and  C7_14 
ROOT
HETATM    1  O3  UNK     1      17.648  -1.402  36.065  1.00  0.00    -0.267 OA
HETATM    2  N1  UNK     1      19.617  -2.216  35.060  1.00  0.00    -0.323 N 
HETATM    3  C8  UNK     1      18.535  -1.361  35.213  1.00  0.00     0.262 C 
HETATM    4  H3  UNK     1      20.254  -2.055  34.283  1.00  0.00     0.169 HD
ENDROOT
BRANCH   2   5
HETATM    5  C6  UNK     1      19.950  -3.338  35.857  1.00  0.00     0.035 A 
HETATM    6  C11 UNK     1      20.472  -3.136  37.123  1.00  0.00     0.030 A 
HETATM    7  C13 UNK     1      20.802  -4.241  37.908  1.00  0.00     0.020 A 
HETATM    8  C7  UNK     1      20.605  -5.531  37.415  1.00  0.00     0.039 A 
HETATM    9  C14 UNK     1      20.078  -5.715  36.137  1.00  0.00     0.020 A 
HETATM   10  C12 UNK     1      19.747  -4.611  35.352  1.00  0.00     0.030 A 
BRANCH   8  11
HETATM   11  C16 UNK     1      20.947  -6.683  38.235  1.00  0.00     0.293 C 
HETATM   12  O5  UNK     1      21.063  -6.656  39.467  1.00  0.00    -0.259 OA
BRANCH  11  13
HETATM   13  O2  UNK     1      21.125  -7.806  37.474  1.00  0.00    -0.313 OA
BRANCH  13  14
HETATM   14  C4  UNK     1      20.544  -9.018  37.966  1.00  0.00     0.124 C 
HETATM   15  C17 UNK     1      19.032  -8.950  37.803  1.00  0.00     0.040 C 
HETATM   16  C18 UNK     1      21.141 -10.201  37.219  1.00  0.00     0.040 C 
ENDBRANCH  13  14
ENDBRANCH  11  13
ENDBRANCH   8  11
ENDBRANCH   2   5
BRANCH   3  17
HETATM   17  C2  UNK     1      18.515  -0.304  34.194  1.00  0.00     0.108 A 
HETATM   18  C10 UNK     1      18.682  -0.600  32.753  1.00  0.00     0.304 A 
HETATM   19  O1  UNK     1      18.645   0.486  31.883  1.00  0.00    -0.274 OA
HETATM   20  O4  UNK     1      18.845  -1.742  32.340  1.00  0.00    -0.259 OA
HETATM   21  C3  UNK     1      18.459   1.804  32.346  1.00  0.00     0.089 A 
HETATM   22  C1  UNK     1      18.305   2.059  33.705  1.00  0.00     0.000 A 
HETATM   23  C15 UNK     1      18.436   2.826  31.400  1.00  0.00     0.039 A 
HETATM   24  C5  UNK     1      18.338   0.945  34.640  1.00  0.00     0.037 A 
HETATM   25  C9  UNK     1      18.123   3.379  34.126  1.00  0.00     0.033 A 
HETATM   26  C19 UNK     1      18.098   4.416  33.189  1.00  0.00     0.011 A 
HETATM   27 Br1  UNK     1      17.852   6.200  33.763  1.00  0.00    -0.051 Br
HETATM   28  C20 UNK     1      18.254   4.139  31.828  1.00  0.00     0.022 A 
ENDBRANCH   3  17
TORSDOF 5
ENDMDL
MODEL 8
REMARK VINA RESULT:      -8.1      7.189     12.362
REMARK  5 active torsions:
REMARK  status: ('A' for Active; 'I' for Inactive)
REMARK    1  A    between atoms: C16_23  and  O2_3 
REMARK    2  A    between atoms: C4_11  and  O2_3 
REMARK    3  A    between atoms: C6_13  and  N1_7 
REMARK       I    between atoms: C8_15  and  N1_7 
REMARK    4  A    between atoms: C2_9  and  C8_15 
REMARK    5  A    between atoms: C16_23  and  C7_14 
ROOT
HETATM    1  O3  UNK     1      17.781  -1.905  37.376  1.00  0.00    -0.267 OA
HETATM    2  N1  UNK     1      19.400  -2.898  35.983  1.00  0.00    -0.323 N 
HETATM    3  C8  UNK     1      18.491  -1.924  36.372  1.00  0.00     0.262 C 
HETATM    4  H3  UNK     1      19.897  -2.772  35.105  1.00  0.00     0.169 HD
ENDROOT
BRANCH   2   5
HETATM    5  C6  UNK     1      19.720  -4.099  36.661  1.00  0.00     0.035 A 
HETATM    6  C11 UNK     1      18.885  -5.195  36.526  1.00  0.00     0.030 A 
HETATM    7  C13 UNK     1      19.200  -6.378  37.195  1.00  0.00     0.020 A 
HETATM    8  C7  UNK     1      20.345  -6.448  37.988  1.00  0.00     0.039 A 
HETATM    9  C14 UNK     1      21.174  -5.334  38.113  1.00  0.00     0.020 A 
HETATM   10  C12 UNK     1      20.861  -4.151  37.445  1.00  0.00     0.030 A 
BRANCH   8  11
HETATM   11  C16 UNK     1      20.673  -7.682  38.684  1.00  0.00     0.293 C 
HETATM   12  O5  UNK     1      21.499  -7.770  39.603  1.00  0.00    -0.259 OA
BRANCH  11  13
HETATM   13  O2  UNK     1      19.954  -8.740  38.199  1.00  0.00    -0.313 OA
BRANCH  13  14
HETATM   14  C4  UNK     1      20.694  -9.910  37.832  1.00  0.00     0.124 C 
HETATM   15  C17 UNK     1      19.760 -11.111  37.826  1.00  0.00     0.040 C 
HETATM   16  C18 UNK     1      21.341  -9.689  36.473  1.00  0.00     0.040 C 
ENDBRANCH  13  14
ENDBRANCH  11  13
ENDBRANCH   8  11
ENDBRANCH   2   5
BRANCH   3  17
HETATM   17  C2  UNK     1      18.426  -0.813  35.414  1.00  0.00     0.108 A 
HETATM   18  C10 UNK     1      17.964   0.537  35.809  1.00  0.00     0.304 A 
HETATM   19  O1  UNK     1      17.948   1.509  34.812  1.00  0.00    -0.274 OA
HETATM   20  O4  UNK     1      17.614   0.794  36.955  1.00  0.00    -0.259 OA
HETATM   21  C3  UNK     1      18.349   1.225  33.491  1.00  0.00     0.089 A 
HETATM   22  C1  UNK     1      18.778  -0.051  33.142  1.00  0.00     0.000 A 
HETATM   23  C15 UNK     1      18.297   2.262  32.562  1.00  0.00     0.039 A 
HETATM   24  C5  UNK     1      18.808  -1.088  34.162  1.00  0.00     0.037 A 
HETATM   25  C9  UNK     1      19.167  -0.294  31.822  1.00  0.00     0.033 A 
HETATM   26  C19 UNK     1      19.121   0.737  30.879  1.00  0.00     0.011 A 
HETATM   27 Br1  UNK     1      19.648   0.404  29.094  1.00  0.00    -0.051 Br
HETATM   28  C20 UNK     1      18.687   2.012  31.248  1.00  0.00     0.022 A 
ENDBRANCH   3  17
TORSDOF 5
ENDMDL
MODEL 9
REMARK VINA RESULT:      -8.1      6.288      8.660
REMARK  5 active torsions:
REMARK  status: ('A' for Active; 'I' for Inactive)
REMARK    1  A    between atoms: C16_23  and  O2_3 
REMARK    2  A    between atoms: C4_11  and  O2_3 
REMARK    3  A    between atoms: C6_13  and  N1_7 
REMARK       I    between atoms: C8_15  and  N1_7 
REMARK    4  A    between atoms: C2_9  and  C8_15 
REMARK    5  A    between atoms: C16_23  and  C7_14 
ROOT
HETATM    1  O3  UNK     1      20.550  -3.361  34.080  1.00  0.00    -0.267 OA
HETATM    2  N1  UNK     1      19.180  -2.117  35.537  1.00  0.00    -0.323 N 
HETATM    3  C8  UNK     1      19.960  -3.196  35.147  1.00  0.00     0.262 C 
HETATM    4  H3  UNK     1      18.741  -2.144  36.453  1.00  0.00     0.169 HD
ENDROOT
BRANCH   2   5
HETATM    5  C6  UNK     1      18.886  -0.950  34.790  1.00  0.00     0.035 A 
HETATM    6  C11 UNK     1      18.614   0.231  35.460  1.00  0.00     0.030 A 
HETATM    7  C13 UNK     1      18.323   1.380  34.725  1.00  0.00     0.020 A 
HETATM    8  C7  UNK     1      18.307   1.331  33.331  1.00  0.00     0.039 A 
HETATM    9  C14 UNK     1      18.583   0.133  32.673  1.00  0.00     0.020 A 
HETATM   10  C12 UNK     1      18.875  -1.016  33.407  1.00  0.00     0.030 A 
BRANCH   8  11
HETATM   11  C16 UNK     1      18.004   2.530  32.565  1.00  0.00     0.293 C 
HETATM   12  O5  UNK     1      17.829   2.552  31.340  1.00  0.00    -0.259 OA
BRANCH  11  13
HETATM   13  O2  UNK     1      17.935   3.636  33.368  1.00  0.00    -0.313 OA
BRANCH  13  14
HETATM   14  C4  UNK     1      18.397   4.870  32.809  1.00  0.00     0.124 C 
HETATM   15  C17 UNK     1      17.202   5.768  32.522  1.00  0.00     0.040 C 
HETATM   16  C18 UNK     1      19.377   5.522  33.772  1.00  0.00     0.040 C 
ENDBRANCH  13  14
ENDBRANCH  11  13
ENDBRANCH   8  11
ENDBRANCH   2   5
BRANCH   3  17
HETATM   17  C2  UNK     1      20.042  -4.226  36.190  1.00  0.00     0.108 A 
HETATM   18  C10 UNK     1      20.266  -3.885  37.613  1.00  0.00     0.304 A 
HETATM   19  O1  UNK     1      20.324  -4.949  38.509  1.00  0.00    -0.274 OA
HETATM   20  O4  UNK     1      20.393  -2.726  37.990  1.00  0.00    -0.259 OA
HETATM   21  C3  UNK     1      20.179  -6.285  38.086  1.00  0.00     0.089 A 
HETATM   22  C1  UNK     1      19.971  -6.583  36.743  1.00  0.00     0.000 A 
HETATM   23  C15 UNK     1      20.252  -7.283  39.056  1.00  0.00     0.039 A 
HETATM   24  C5  UNK     1      19.904  -5.493  35.783  1.00  0.00     0.037 A 
HETATM   25  C9  UNK     1      19.832  -7.921  36.363  1.00  0.00     0.033 A 
HETATM   26  C19 UNK     1      19.903  -8.932  37.325  1.00  0.00     0.011 A 
HETATM   27 Br1  UNK     1      19.716 -10.740  36.806  1.00  0.00    -0.051 Br
HETATM   28  C20 UNK     1      20.113  -8.614  38.669  1.00  0.00     0.022 A 
ENDBRANCH   3  17
TORSDOF 5
ENDMDL
MODEL 10
REMARK VINA RESULT:      -8.0      6.987     12.111
REMARK  5 active torsions:
REMARK  status: ('A' for Active; 'I' for Inactive)
REMARK    1  A    between atoms: C16_23  and  O2_3 
REMARK    2  A    between atoms: C4_11  and  O2_3 
REMARK    3  A    between atoms: C6_13  and  N1_7 
REMARK       I    between atoms: C8_15  and  N1_7 
REMARK    4  A    between atoms: C2_9  and  C8_15 
REMARK    5  A    between atoms: C16_23  and  C7_14 
ROOT
HETATM    1  O3  UNK     1      17.448  -2.075  36.702  1.00  0.00    -0.267 OA
HETATM    2  N1  UNK     1      19.670  -2.145  35.927  1.00  0.00    -0.323 N 
HETATM    3  C8  UNK     1      18.425  -1.574  36.148  1.00  0.00     0.262 C 
HETATM    4  H3  UNK     1      20.371  -1.599  35.431  1.00  0.00     0.169 HD
ENDROOT
BRANCH   2   5
HETATM    5  C6  UNK     1      20.102  -3.443  36.292  1.00  0.00     0.035 A 
HETATM    6  C11 UNK     1      20.866  -3.604  37.435  1.00  0.00     0.030 A 
HETATM    7  C13 UNK     1      21.293  -4.883  37.795  1.00  0.00     0.020 A 
HETATM    8  C7  UNK     1      20.949  -5.981  37.006  1.00  0.00     0.039 A 
HETATM    9  C14 UNK     1      20.179  -5.799  35.858  1.00  0.00     0.020 A 
HETATM   10  C12 UNK     1      19.751  -4.522  35.498  1.00  0.00     0.030 A 
BRANCH   8  11
HETATM   11  C16 UNK     1      21.393  -7.314  37.382  1.00  0.00     0.293 C 
HETATM   12  O5  UNK     1      22.557  -7.604  37.691  1.00  0.00    -0.259 OA
BRANCH  11  13
HETATM   13  O2  UNK     1      20.362  -8.213  37.355  1.00  0.00    -0.313 OA
BRANCH  13  14
HETATM   14  C4  UNK     1      20.229  -9.078  38.488  1.00  0.00     0.124 C 
HETATM   15  C17 UNK     1      19.894  -8.246  39.716  1.00  0.00     0.040 C 
HETATM   16  C18 UNK     1      19.160 -10.121  38.200  1.00  0.00     0.040 C 
ENDBRANCH  13  14
ENDBRANCH  11  13
ENDBRANCH   8  11
ENDBRANCH   2   5
BRANCH   3  17
HETATM   17  C2  UNK     1      18.344  -0.203  35.629  1.00  0.00     0.108 A 
HETATM   18  C10 UNK     1      18.171   0.965  36.521  1.00  0.00     0.304 A 
HETATM   19  O1  UNK     1      18.108   2.215  35.910  1.00  0.00    -0.274 OA
HETATM   20  O4  UNK     1      18.088   0.846  37.738  1.00  0.00    -0.259 OA
HETATM   21  C3  UNK     1      18.203   2.364  34.513  1.00  0.00     0.089 A 
HETATM   22  C1  UNK     1      18.364   1.252  33.693  1.00  0.00     0.000 A 
HETATM   23  C15 UNK     1      18.129   3.655  33.993  1.00  0.00     0.039 A 
HETATM   24  C5  UNK     1      18.434  -0.067  34.301  1.00  0.00     0.037 A 
HETATM   25  C9  UNK     1      18.453   1.441  32.311  1.00  0.00     0.033 A 
HETATM   26  C19 UNK     1      18.381   2.730  31.775  1.00  0.00     0.011 A 
HETATM   27 Br1  UNK     1      18.502   2.980  29.905  1.00  0.00    -0.051 Br
HETATM   28  C20 UNK     1      18.219   3.834  32.615  1.00  0.00     0.022 A 
ENDBRANCH   3  17
TORSDOF 5
ENDMDL
