MODEL 1
REMARK VINA RESULT:      -7.7      0.000      0.000
REMARK  4 active torsions:
REMARK  status: ('A' for Active; 'I' for Inactive)
REMARK    1  A    between atoms: C15_24  and  O3_3 
REMARK    2  A    between atoms: C13_22  and  N3_9 
REMARK    3  A    between atoms: C2_11  and  C5_14 
REMARK    4  A    between atoms: C10_19  and  C8_17 
ROOT
HETATM    1  O4  UNK     1      12.670   9.036  12.180  1.00  0.00    -0.265 OA
HETATM    2  N1  UNK     1      13.931   7.696  10.776  1.00  0.00    -0.306 N 
HETATM    3  N2  UNK     1      14.841   8.541   8.753  1.00  0.00    -0.205 NA
HETATM    4  C8  UNK     1      14.658   7.576   9.602  1.00  0.00     0.133 A 
HETATM    5  C13 UNK     1      13.548   9.956  10.172  1.00  0.00     0.223 A 
HETATM    6  C14 UNK     1      13.323   8.880  11.154  1.00  0.00     0.284 A 
HETATM    7  C15 UNK     1      14.266   9.755   9.058  1.00  0.00     0.203 A 
HETATM    8  H7  UNK     1      13.832   6.893  11.392  1.00  0.00     0.170 HD
ENDROOT
BRANCH   4   9
HETATM    9  C10 UNK     1      15.217   6.242   9.392  1.00  0.00     0.051 C 
HETATM   10  C5  UNK     1      14.416   5.289   8.914  1.00  0.00     0.021 C 
BRANCH  10  11
HETATM   11  C2  UNK     1      13.028   5.521   8.596  1.00  0.00     0.041 A 
HETATM   12  C4  UNK     1      12.658   5.835   7.346  1.00  0.00     0.032 A 
HETATM   13  C1  UNK     1      11.265   6.071   7.006  1.00  0.00    -0.001 A 
HETATM   14  C3  UNK     1      10.305   5.967   8.007  1.00  0.00     0.089 A 
HETATM   15  C6  UNK     1      10.856   6.400   5.711  1.00  0.00     0.014 A 
HETATM   16  O1  UNK     1      10.682   5.639   9.322  1.00  0.00    -0.274 OA
HETATM   17  C9  UNK     1       8.952   6.182   7.752  1.00  0.00     0.038 A 
HETATM   18  C7  UNK     1      12.010   5.408   9.678  1.00  0.00     0.298 A 
HETATM   19  O2  UNK     1      12.309   5.124  10.833  1.00  0.00    -0.259 OA
HETATM   20  C12 UNK     1       8.552   6.508   6.458  1.00  0.00     0.003 A 
HETATM   21  C11 UNK     1       9.502   6.617   5.439  1.00  0.00     0.001 A 
ENDBRANCH  10  11
ENDBRANCH   4   9
BRANCH   7  22
HETATM   22  O3  UNK     1      14.499  10.741   8.111  1.00  0.00    -0.343 OA
HETATM   23  H9  UNK     1      15.460  10.893   8.122  1.00  0.00     0.219 HD
ENDBRANCH   7  22
BRANCH   5  24
HETATM   24  N3  UNK     1      12.974  11.227  10.444  1.00  0.00    -0.105 N 
HETATM   25  O5  UNK     1      13.745  12.136  10.788  1.00  0.00    -0.531 OA
HETATM   26  O6  UNK     1      11.746  11.336  10.318  1.00  0.00    -0.531 OA
ENDBRANCH   5  24
TORSDOF 4
ENDMDL
MODEL 2
REMARK VINA RESULT:      -7.7      2.970      5.992
REMARK  4 active torsions:
REMARK  status: ('A' for Active; 'I' for Inactive)
REMARK    1  A    between atoms: C15_24  and  O3_3 
REMARK    2  A    between atoms: C13_22  and  N3_9 
REMARK    3  A    between atoms: C2_11  and  C5_14 
REMARK    4  A    between atoms: C10_19  and  C8_17 
ROOT
HETATM    1  O4  UNK     1       7.414   6.946   7.595  1.00  0.00    -0.265 OA
HETATM    2  N1  UNK     1       9.648   6.430   7.278  1.00  0.00    -0.306 N 
HETATM    3  N2  UNK     1      10.832   5.075   8.827  1.00  0.00    -0.205 NA
HETATM    4  C8  UNK     1      10.782   5.779   7.736  1.00  0.00     0.133 A 
HETATM    5  C13 UNK     1       8.530   5.583   9.189  1.00  0.00     0.223 A 
HETATM    6  C14 UNK     1       8.442   6.387   7.958  1.00  0.00     0.284 A 
HETATM    7  C15 UNK     1       9.670   4.983   9.562  1.00  0.00     0.203 A 
HETATM    8  H7  UNK     1       9.687   6.962   6.413  1.00  0.00     0.170 HD
ENDROOT
BRANCH   4   9
HETATM    9  C10 UNK     1      11.947   5.951   6.871  1.00  0.00     0.051 C 
HETATM   10  C5  UNK     1      12.921   6.766   7.275  1.00  0.00     0.021 C 
BRANCH  10  11
HETATM   11  C2  UNK     1      12.871   7.481   8.528  1.00  0.00     0.041 A 
HETATM   12  C4  UNK     1      12.071   8.547   8.675  1.00  0.00     0.032 A 
HETATM   13  C1  UNK     1      12.006   9.277   9.929  1.00  0.00    -0.001 A 
HETATM   14  C3  UNK     1      12.796   8.854  10.992  1.00  0.00     0.089 A 
HETATM   15  C6  UNK     1      11.181  10.391  10.104  1.00  0.00     0.014 A 
HETATM   16  O1  UNK     1      13.639   7.737  10.849  1.00  0.00    -0.274 OA
HETATM   17  C9  UNK     1      12.785   9.508  12.222  1.00  0.00     0.038 A 
HETATM   18  C7  UNK     1      13.723   7.017   9.659  1.00  0.00     0.298 A 
HETATM   19  O2  UNK     1      14.468   6.047   9.564  1.00  0.00    -0.259 OA
HETATM   20  C12 UNK     1      11.958  10.617  12.390  1.00  0.00     0.003 A 
HETATM   21  C11 UNK     1      11.158  11.058  11.333  1.00  0.00     0.001 A 
ENDBRANCH  10  11
ENDBRANCH   4   9
BRANCH   7  22
HETATM   22  O3  UNK     1       9.792   4.220  10.713  1.00  0.00    -0.343 OA
HETATM   23  H9  UNK     1      10.424   3.513  10.492  1.00  0.00     0.219 HD
ENDBRANCH   7  22
BRANCH   5  24
HETATM   24  N3  UNK     1       7.356   5.459   9.981  1.00  0.00    -0.105 N 
HETATM   25  O5  UNK     1       7.311   6.111  11.034  1.00  0.00    -0.531 OA
HETATM   26  O6  UNK     1       6.465   4.707   9.563  1.00  0.00    -0.531 OA
ENDBRANCH   5  24
TORSDOF 4
ENDMDL
MODEL 3
REMARK VINA RESULT:      -7.7      3.043      5.145
REMARK  4 active torsions:
REMARK  status: ('A' for Active; 'I' for Inactive)
REMARK    1  A    between atoms: C15_24  and  O3_3 
REMARK    2  A    between atoms: C13_22  and  N3_9 
REMARK    3  A    between atoms: C2_11  and  C5_14 
REMARK    4  A    between atoms: C10_19  and  C8_17 
ROOT
HETATM    1  O4  UNK     1      12.876   9.011   8.459  1.00  0.00    -0.265 OA
HETATM    2  N1  UNK     1      11.385   7.528   7.492  1.00  0.00    -0.306 N 
HETATM    3  N2  UNK     1      10.928   5.418   8.480  1.00  0.00    -0.205 NA
HETATM    4  C8  UNK     1      10.749   6.298   7.542  1.00  0.00     0.133 A 
HETATM    5  C13 UNK     1      12.471   6.918   9.509  1.00  0.00     0.223 A 
HETATM    6  C14 UNK     1      12.288   7.935   8.459  1.00  0.00     0.284 A 
HETATM    7  C15 UNK     1      11.814   5.749   9.482  1.00  0.00     0.203 A 
HETATM    8  H7  UNK     1      11.191   8.165   6.724  1.00  0.00     0.170 HD
ENDROOT
BRANCH   4   9
HETATM    9  C10 UNK     1       9.835   6.065   6.425  1.00  0.00     0.051 C 
HETATM   10  C5  UNK     1       8.524   6.066   6.670  1.00  0.00     0.021 C 
BRANCH  10  11
HETATM   11  C2  UNK     1       7.975   6.287   7.986  1.00  0.00     0.041 A 
HETATM   12  C4  UNK     1       7.952   7.518   8.517  1.00  0.00     0.032 A 
HETATM   13  C1  UNK     1       7.401   7.761   9.840  1.00  0.00    -0.001 A 
HETATM   14  C3  UNK     1       6.892   6.686  10.560  1.00  0.00     0.089 A 
HETATM   15  C6  UNK     1       7.368   9.034  10.414  1.00  0.00     0.014 A 
HETATM   16  O1  UNK     1       6.912   5.391  10.013  1.00  0.00    -0.274 OA
HETATM   17  C9  UNK     1       6.351   6.847  11.834  1.00  0.00     0.038 A 
HETATM   18  C7  UNK     1       7.433   5.127   8.748  1.00  0.00     0.298 A 
HETATM   19  O2  UNK     1       7.438   3.986   8.296  1.00  0.00    -0.259 OA
HETATM   20  C12 UNK     1       6.319   8.120  12.399  1.00  0.00     0.003 A 
HETATM   21  C11 UNK     1       6.827   9.212  11.691  1.00  0.00     0.001 A 
ENDBRANCH  10  11
ENDBRANCH   4   9
BRANCH   7  22
HETATM   22  O3  UNK     1      11.960   4.767  10.450  1.00  0.00    -0.343 OA
HETATM   23  H9  UNK     1      11.155   4.815  10.995  1.00  0.00     0.219 HD
ENDBRANCH   7  22
BRANCH   5  24
HETATM   24  N3  UNK     1      13.375   7.214  10.565  1.00  0.00    -0.105 N 
HETATM   25  O5  UNK     1      13.057   8.122  11.346  1.00  0.00    -0.531 OA
HETATM   26  O6  UNK     1      14.416   6.545  10.626  1.00  0.00    -0.531 OA
ENDBRANCH   5  24
TORSDOF 4
ENDMDL
MODEL 4
REMARK VINA RESULT:      -7.6     32.971     35.132
REMARK  4 active torsions:
REMARK  status: ('A' for Active; 'I' for Inactive)
REMARK    1  A    between atoms: C15_24  and  O3_3 
REMARK    2  A    between atoms: C13_22  and  N3_9 
REMARK    3  A    between atoms: C2_11  and  C5_14 
REMARK    4  A    between atoms: C10_19  and  C8_17 
ROOT
HETATM    1  O4  UNK     1      31.177  -6.420  38.631  1.00  0.00    -0.265 OA
HETATM    2  N1  UNK     1      29.291  -7.654  38.110  1.00  0.00    -0.306 N 
HETATM    3  N2  UNK     1      27.137  -6.656  38.063  1.00  0.00    -0.205 NA
HETATM    4  C8  UNK     1      27.917  -7.686  37.928  1.00  0.00     0.133 A 
HETATM    5  C13 UNK     1      29.057  -5.348  38.605  1.00  0.00     0.223 A 
HETATM    6  C14 UNK     1      29.966  -6.498  38.459  1.00  0.00     0.284 A 
HETATM    7  C15 UNK     1      27.735  -5.464  38.410  1.00  0.00     0.203 A 
HETATM    8  H7  UNK     1      29.835  -8.504  37.985  1.00  0.00     0.170 HD
ENDROOT
BRANCH   4   9
HETATM    9  C10 UNK     1      27.404  -9.004  37.562  1.00  0.00     0.051 C 
HETATM   10  C5  UNK     1      27.672  -9.471  36.342  1.00  0.00     0.021 C 
BRANCH  10  11
HETATM   11  C2  UNK     1      28.445  -8.730  35.374  1.00  0.00     0.041 A 
HETATM   12  C4  UNK     1      27.865  -7.796  34.608  1.00  0.00     0.032 A 
HETATM   13  C1  UNK     1      28.628  -7.038  33.630  1.00  0.00    -0.001 A 
HETATM   14  C3  UNK     1      29.986  -7.298  33.495  1.00  0.00     0.089 A 
HETATM   15  C6  UNK     1      28.043  -6.061  32.819  1.00  0.00     0.014 A 
HETATM   16  O1  UNK     1      30.606  -8.276  34.293  1.00  0.00    -0.274 OA
HETATM   17  C9  UNK     1      30.777  -6.610  32.576  1.00  0.00     0.038 A 
HETATM   18  C7  UNK     1      29.901  -9.018  35.239  1.00  0.00     0.298 A 
HETATM   19  O2  UNK     1      30.468  -9.865  35.921  1.00  0.00    -0.259 OA
HETATM   20  C12 UNK     1      30.188  -5.636  31.773  1.00  0.00     0.003 A 
HETATM   21  C11 UNK     1      28.824  -5.362  31.894  1.00  0.00     0.001 A 
ENDBRANCH  10  11
ENDBRANCH   4   9
BRANCH   7  22
HETATM   22  O3  UNK     1      26.847  -4.407  38.539  1.00  0.00    -0.343 OA
HETATM   23  H9  UNK     1      26.926  -3.897  37.713  1.00  0.00     0.219 HD
ENDBRANCH   7  22
BRANCH   5  24
HETATM   24  N3  UNK     1      29.627  -4.096  38.962  1.00  0.00    -0.105 N 
HETATM   25  O5  UNK     1      29.482  -3.722  40.135  1.00  0.00    -0.531 OA
HETATM   26  O6  UNK     1      30.225  -3.471  38.076  1.00  0.00    -0.531 OA
ENDBRANCH   5  24
TORSDOF 4
ENDMDL
MODEL 5
REMARK VINA RESULT:      -7.5     30.359     32.993
REMARK  4 active torsions:
REMARK  status: ('A' for Active; 'I' for Inactive)
REMARK    1  A    between atoms: C15_24  and  O3_3 
REMARK    2  A    between atoms: C13_22  and  N3_9 
REMARK    3  A    between atoms: C2_11  and  C5_14 
REMARK    4  A    between atoms: C10_19  and  C8_17 
ROOT
HETATM    1  O4  UNK     1      31.185  -6.738  28.573  1.00  0.00    -0.265 OA
HETATM    2  N1  UNK     1      29.158  -6.708  29.689  1.00  0.00    -0.306 N 
HETATM    3  N2  UNK     1      27.908  -8.697  30.031  1.00  0.00    -0.205 NA
HETATM    4  C8  UNK     1      28.065  -7.415  30.166  1.00  0.00     0.133 A 
HETATM    5  C13 UNK     1      29.993  -8.772  28.876  1.00  0.00     0.223 A 
HETATM    6  C14 UNK     1      30.199  -7.319  29.013  1.00  0.00     0.284 A 
HETATM    7  C15 UNK     1      28.904  -9.380  29.368  1.00  0.00     0.203 A 
HETATM    8  H7  UNK     1      29.210  -5.703  29.835  1.00  0.00     0.170 HD
ENDROOT
BRANCH   4   9
HETATM    9  C10 UNK     1      27.080  -6.581  30.851  1.00  0.00     0.051 C 
HETATM   10  C5  UNK     1      27.290  -6.275  32.131  1.00  0.00     0.021 C 
BRANCH  10  11
HETATM   11  C2  UNK     1      28.447  -6.732  32.864  1.00  0.00     0.041 A 
HETATM   12  C4  UNK     1      28.404  -7.877  33.561  1.00  0.00     0.032 A 
HETATM   13  C1  UNK     1      29.559  -8.354  34.303  1.00  0.00    -0.001 A 
HETATM   14  C3  UNK     1      30.726  -7.599  34.283  1.00  0.00     0.089 A 
HETATM   15  C6  UNK     1      29.537  -9.543  35.037  1.00  0.00     0.014 A 
HETATM   16  O1  UNK     1      30.782  -6.396  33.555  1.00  0.00    -0.274 OA
HETATM   17  C9  UNK     1      31.870  -7.996  34.973  1.00  0.00     0.038 A 
HETATM   18  C7  UNK     1      29.691  -5.914  32.834  1.00  0.00     0.298 A 
HETATM   19  O2  UNK     1      29.769  -4.861  32.210  1.00  0.00    -0.259 OA
HETATM   20  C12 UNK     1      31.841  -9.184  35.701  1.00  0.00     0.003 A 
HETATM   21  C11 UNK     1      30.677  -9.955  35.734  1.00  0.00     0.001 A 
ENDBRANCH  10  11
ENDBRANCH   4   9
BRANCH   7  22
HETATM   22  O3  UNK     1      28.674 -10.743  29.258  1.00  0.00    -0.343 OA
HETATM   23  H9  UNK     1      29.085 -11.142  30.045  1.00  0.00     0.219 HD
ENDBRANCH   7  22
BRANCH   5  24
HETATM   24  N3  UNK     1      30.994  -9.519  28.199  1.00  0.00    -0.105 N 
HETATM   25  O5  UNK     1      30.712  -9.955  27.073  1.00  0.00    -0.531 OA
HETATM   26  O6  UNK     1      32.074  -9.682  28.783  1.00  0.00    -0.531 OA
ENDBRANCH   5  24
TORSDOF 4
ENDMDL
MODEL 6
REMARK VINA RESULT:      -7.4      2.694      5.631
REMARK  4 active torsions:
REMARK  status: ('A' for Active; 'I' for Inactive)
REMARK    1  A    between atoms: C15_24  and  O3_3 
REMARK    2  A    between atoms: C13_22  and  N3_9 
REMARK    3  A    between atoms: C2_11  and  C5_14 
REMARK    4  A    between atoms: C10_19  and  C8_17 
ROOT
HETATM    1  O4  UNK     1      11.964   5.501  10.580  1.00  0.00    -0.265 OA
HETATM    2  N1  UNK     1      14.222   5.708  10.115  1.00  0.00    -0.306 N 
HETATM    3  N2  UNK     1      14.987   6.268   7.939  1.00  0.00    -0.205 NA
HETATM    4  C8  UNK     1      15.213   5.975   9.184  1.00  0.00     0.133 A 
HETATM    5  C13 UNK     1      12.651   6.066   8.376  1.00  0.00     0.223 A 
HETATM    6  C14 UNK     1      12.876   5.731   9.793  1.00  0.00     0.284 A 
HETATM    7  C15 UNK     1      13.669   6.311   7.539  1.00  0.00     0.203 A 
HETATM    8  H7  UNK     1      14.478   5.486  11.073  1.00  0.00     0.170 HD
ENDROOT
BRANCH   4   9
HETATM    9  C10 UNK     1      16.566   5.898   9.729  1.00  0.00     0.051 C 
HETATM   10  C5  UNK     1      17.120   7.013  10.207  1.00  0.00     0.021 C 
BRANCH  10  11
HETATM   11  C2  UNK     1      16.438   8.285  10.209  1.00  0.00     0.041 A 
HETATM   12  C4  UNK     1      16.605   9.150   9.198  1.00  0.00     0.032 A 
HETATM   13  C1  UNK     1      15.925  10.435   9.181  1.00  0.00    -0.001 A 
HETATM   14  C3  UNK     1      15.088  10.762  10.241  1.00  0.00     0.089 A 
HETATM   15  C6  UNK     1      16.085  11.352   8.139  1.00  0.00     0.014 A 
HETATM   16  O1  UNK     1      14.906   9.863  11.307  1.00  0.00    -0.274 OA
HETATM   17  C9  UNK     1      14.407  11.977  10.290  1.00  0.00     0.038 A 
HETATM   18  C7  UNK     1      15.543   8.625  11.351  1.00  0.00     0.298 A 
HETATM   19  O2  UNK     1      15.366   7.861  12.294  1.00  0.00    -0.259 OA
HETATM   20  C12 UNK     1      14.570  12.885   9.247  1.00  0.00     0.003 A 
HETATM   21  C11 UNK     1      15.408  12.574   8.173  1.00  0.00     0.001 A 
ENDBRANCH  10  11
ENDBRANCH   4   9
BRANCH   7  22
HETATM   22  O3  UNK     1      13.499   6.629   6.200  1.00  0.00    -0.343 OA
HETATM   23  H9  UNK     1      14.207   7.263   5.989  1.00  0.00     0.219 HD
ENDBRANCH   7  22
BRANCH   5  24
HETATM   24  N3  UNK     1      11.308   6.123   7.917  1.00  0.00    -0.105 N 
HETATM   25  O5  UNK     1      10.678   5.056   7.872  1.00  0.00    -0.531 OA
HETATM   26  O6  UNK     1      10.864   7.234   7.593  1.00  0.00    -0.531 OA
ENDBRANCH   5  24
TORSDOF 4
ENDMDL
MODEL 7
REMARK VINA RESULT:      -7.4      2.577      3.992
REMARK  4 active torsions:
REMARK  status: ('A' for Active; 'I' for Inactive)
REMARK    1  A    between atoms: C15_24  and  O3_3 
REMARK    2  A    between atoms: C13_22  and  N3_9 
REMARK    3  A    between atoms: C2_11  and  C5_14 
REMARK    4  A    between atoms: C10_19  and  C8_17 
ROOT
HETATM    1  O4  UNK     1      13.954   6.452  10.574  1.00  0.00    -0.265 OA
HETATM    2  N1  UNK     1      12.532   6.666   8.760  1.00  0.00    -0.306 N 
HETATM    3  N2  UNK     1      11.253   8.637   8.421  1.00  0.00    -0.205 NA
HETATM    4  C8  UNK     1      11.622   7.444   8.064  1.00  0.00     0.133 A 
HETATM    5  C13 UNK     1      12.707   8.457  10.303  1.00  0.00     0.223 A 
HETATM    6  C14 UNK     1      13.144   7.102   9.923  1.00  0.00     0.284 A 
HETATM    7  C15 UNK     1      11.818   9.144   9.571  1.00  0.00     0.203 A 
HETATM    8  H7  UNK     1      12.771   5.740   8.416  1.00  0.00     0.170 HD
ENDROOT
BRANCH   4   9
HETATM    9  C10 UNK     1      11.095   6.798   6.863  1.00  0.00     0.051 C 
HETATM   10  C5  UNK     1       9.905   6.201   6.936  1.00  0.00     0.021 C 
BRANCH  10  11
HETATM   11  C2  UNK     1       9.120   6.169   8.147  1.00  0.00     0.041 A 
HETATM   12  C4  UNK     1       8.075   6.993   8.304  1.00  0.00     0.032 A 
HETATM   13  C1  UNK     1       7.272   6.975   9.515  1.00  0.00    -0.001 A 
HETATM   14  C3  UNK     1       7.605   6.080  10.525  1.00  0.00     0.089 A 
HETATM   15  C6  UNK     1       6.179   7.825   9.701  1.00  0.00     0.014 A 
HETATM   16  O1  UNK     1       8.700   5.210  10.371  1.00  0.00    -0.274 OA
HETATM   17  C9  UNK     1       6.880   6.009  11.712  1.00  0.00     0.038 A 
HETATM   18  C7  UNK     1       9.488   5.205   9.222  1.00  0.00     0.298 A 
HETATM   19  O2  UNK     1      10.438   4.436   9.116  1.00  0.00    -0.259 OA
HETATM   20  C12 UNK     1       5.790   6.858  11.890  1.00  0.00     0.003 A 
HETATM   21  C11 UNK     1       5.440   7.766  10.886  1.00  0.00     0.001 A 
ENDBRANCH  10  11
ENDBRANCH   4   9
BRANCH   7  22
HETATM   22  O3  UNK     1      11.383  10.420   9.897  1.00  0.00    -0.343 OA
HETATM   23  H9  UNK     1      11.751  10.605  10.778  1.00  0.00     0.219 HD
ENDBRANCH   7  22
BRANCH   5  24
HETATM   24  N3  UNK     1      13.263   9.022  11.483  1.00  0.00    -0.105 N 
HETATM   25  O5  UNK     1      14.452   9.371  11.440  1.00  0.00    -0.531 OA
HETATM   26  O6  UNK     1      12.519   9.123  12.469  1.00  0.00    -0.531 OA
ENDBRANCH   5  24
TORSDOF 4
ENDMDL
MODEL 8
REMARK VINA RESULT:      -7.4      1.246      2.529
REMARK  4 active torsions:
REMARK  status: ('A' for Active; 'I' for Inactive)
REMARK    1  A    between atoms: C15_24  and  O3_3 
REMARK    2  A    between atoms: C13_22  and  N3_9 
REMARK    3  A    between atoms: C2_11  and  C5_14 
REMARK    4  A    between atoms: C10_19  and  C8_17 
ROOT
HETATM    1  O4  UNK     1      14.875  10.739   8.530  1.00  0.00    -0.265 OA
HETATM    2  N1  UNK     1      14.941   8.489   9.066  1.00  0.00    -0.306 N 
HETATM    3  N2  UNK     1      13.717   7.622  10.906  1.00  0.00    -0.205 NA
HETATM    4  C8  UNK     1      14.521   7.464   9.898  1.00  0.00     0.133 A 
HETATM    5  C13 UNK     1      13.621   9.948  10.387  1.00  0.00     0.223 A 
HETATM    6  C14 UNK     1      14.531   9.800   9.238  1.00  0.00     0.284 A 
HETATM    7  C15 UNK     1      13.264   8.901  11.145  1.00  0.00     0.203 A 
HETATM    8  H7  UNK     1      15.573   8.286   8.295  1.00  0.00     0.170 HD
ENDROOT
BRANCH   4   9
HETATM    9  C10 UNK     1      15.070   6.157   9.542  1.00  0.00     0.051 C 
HETATM   10  C5  UNK     1      14.307   5.322   8.836  1.00  0.00     0.021 C 
BRANCH  10  11
HETATM   11  C2  UNK     1      12.969   5.656   8.411  1.00  0.00     0.041 A 
HETATM   12  C4  UNK     1      11.906   5.242   9.116  1.00  0.00     0.032 A 
HETATM   13  C1  UNK     1      10.551   5.570   8.705  1.00  0.00    -0.001 A 
HETATM   14  C3  UNK     1      10.367   6.329   7.555  1.00  0.00     0.089 A 
HETATM   15  C6  UNK     1       9.429   5.148   9.422  1.00  0.00     0.014 A 
HETATM   16  O1  UNK     1      11.474   6.768   6.808  1.00  0.00    -0.274 OA
HETATM   17  C9  UNK     1       9.096   6.679   7.102  1.00  0.00     0.038 A 
HETATM   18  C7  UNK     1      12.784   6.470   7.177  1.00  0.00     0.298 A 
HETATM   19  O2  UNK     1      13.731   6.866   6.505  1.00  0.00    -0.259 OA
HETATM   20  C12 UNK     1       7.982   6.256   7.824  1.00  0.00     0.003 A 
HETATM   21  C11 UNK     1       8.148   5.492   8.982  1.00  0.00     0.001 A 
ENDBRANCH  10  11
ENDBRANCH   4   9
BRANCH   7  22
HETATM   22  O3  UNK     1      12.411   9.000  12.234  1.00  0.00    -0.343 OA
HETATM   23  H9  UNK     1      12.769   9.721  12.781  1.00  0.00     0.219 HD
ENDBRANCH   7  22
BRANCH   5  24
HETATM   24  N3  UNK     1      13.126  11.249  10.673  1.00  0.00    -0.105 N 
HETATM   25  O5  UNK     1      13.917  12.058  11.180  1.00  0.00    -0.531 OA
HETATM   26  O6  UNK     1      11.941  11.480  10.398  1.00  0.00    -0.531 OA
ENDBRANCH   5  24
TORSDOF 4
ENDMDL
MODEL 9
REMARK VINA RESULT:      -7.3     34.043     36.158
REMARK  4 active torsions:
REMARK  status: ('A' for Active; 'I' for Inactive)
REMARK    1  A    between atoms: C15_24  and  O3_3 
REMARK    2  A    between atoms: C13_22  and  N3_9 
REMARK    3  A    between atoms: C2_11  and  C5_14 
REMARK    4  A    between atoms: C10_19  and  C8_17 
ROOT
HETATM    1  O4  UNK     1      32.596  -5.034  38.503  1.00  0.00    -0.265 OA
HETATM    2  N1  UNK     1      31.814  -7.210  38.413  1.00  0.00    -0.306 N 
HETATM    3  N2  UNK     1      32.634  -8.751  36.803  1.00  0.00    -0.205 NA
HETATM    4  C8  UNK     1      31.861  -8.454  37.804  1.00  0.00     0.133 A 
HETATM    5  C13 UNK     1      33.467  -6.517  36.863  1.00  0.00     0.223 A 
HETATM    6  C14 UNK     1      32.602  -6.151  37.998  1.00  0.00     0.284 A 
HETATM    7  C15 UNK     1      33.451  -7.747  36.331  1.00  0.00     0.203 A 
HETATM    8  H7  UNK     1      31.182  -7.055  39.194  1.00  0.00     0.170 HD
ENDROOT
BRANCH   4   9
HETATM    9  C10 UNK     1      30.950  -9.432  38.396  1.00  0.00     0.051 C 
HETATM   10  C5  UNK     1      29.727  -9.551  37.878  1.00  0.00     0.021 C 
BRANCH  10  11
HETATM   11  C2  UNK     1      29.271  -8.758  36.761  1.00  0.00     0.041 A 
HETATM   12  C4  UNK     1      29.314  -9.248  35.514  1.00  0.00     0.032 A 
HETATM   13  C1  UNK     1      28.858  -8.465  34.377  1.00  0.00    -0.001 A 
HETATM   14  C3  UNK     1      28.370  -7.183  34.601  1.00  0.00     0.089 A 
HETATM   15  C6  UNK     1      28.894  -8.954  33.069  1.00  0.00     0.014 A 
HETATM   16  O1  UNK     1      28.322  -6.658  35.905  1.00  0.00    -0.274 OA
HETATM   17  C9  UNK     1      27.918  -6.377  33.558  1.00  0.00     0.038 A 
HETATM   18  C7  UNK     1      28.751  -7.384  37.014  1.00  0.00     0.298 A 
HETATM   19  O2  UNK     1      28.698  -6.901  38.140  1.00  0.00    -0.259 OA
HETATM   20  C12 UNK     1      27.955  -6.872  32.256  1.00  0.00     0.003 A 
HETATM   21  C11 UNK     1      28.443  -8.159  32.012  1.00  0.00     0.001 A 
ENDBRANCH  10  11
ENDBRANCH   4   9
BRANCH   7  22
HETATM   22  O3  UNK     1      34.249  -8.129  35.262  1.00  0.00    -0.343 OA
HETATM   23  H9  UNK     1      33.648  -8.556  34.627  1.00  0.00     0.219 HD
ENDBRANCH   7  22
BRANCH   5  24
HETATM   24  N3  UNK     1      34.328  -5.514  36.340  1.00  0.00    -0.105 N 
HETATM   25  O5  UNK     1      33.806  -4.605  35.679  1.00  0.00    -0.531 OA
HETATM   26  O6  UNK     1      35.539  -5.623  36.582  1.00  0.00    -0.531 OA
ENDBRANCH   5  24
TORSDOF 4
ENDMDL
MODEL 10
REMARK VINA RESULT:      -7.2     30.499     33.164
REMARK  4 active torsions:
REMARK  status: ('A' for Active; 'I' for Inactive)
REMARK    1  A    between atoms: C15_24  and  O3_3 
REMARK    2  A    between atoms: C13_22  and  N3_9 
REMARK    3  A    between atoms: C2_11  and  C5_14 
REMARK    4  A    between atoms: C10_19  and  C8_17 
ROOT
HETATM    1  O4  UNK     1      31.132  -8.285  27.863  1.00  0.00    -0.265 OA
HETATM    2  N1  UNK     1      29.244  -8.034  29.178  1.00  0.00    -0.306 N 
HETATM    3  N2  UNK     1      28.923  -9.337  31.137  1.00  0.00    -0.205 NA
HETATM    4  C8  UNK     1      28.531  -8.424  30.300  1.00  0.00     0.133 A 
HETATM    5  C13 UNK     1      30.883  -9.625  29.810  1.00  0.00     0.223 A 
HETATM    6  C14 UNK     1      30.465  -8.595  28.843  1.00  0.00     0.284 A 
HETATM    7  C15 UNK     1      30.131  -9.944  30.873  1.00  0.00     0.203 A 
HETATM    8  H7  UNK     1      28.871  -7.310  28.570  1.00  0.00     0.170 HD
ENDROOT
BRANCH   4   9
HETATM    9  C10 UNK     1      27.269  -7.707  30.471  1.00  0.00     0.051 C 
HETATM   10  C5  UNK     1      27.212  -6.734  31.381  1.00  0.00     0.021 C 
BRANCH  10  11
HETATM   11  C2  UNK     1      28.342  -6.362  32.198  1.00  0.00     0.041 A 
HETATM   12  C4  UNK     1      28.443  -6.798  33.462  1.00  0.00     0.032 A 
HETATM   13  C1  UNK     1      29.574  -6.436  34.300  1.00  0.00    -0.001 A 
HETATM   14  C3  UNK     1      30.565  -5.619  33.768  1.00  0.00     0.089 A 
HETATM   15  C6  UNK     1      29.699  -6.877  35.620  1.00  0.00     0.014 A 
HETATM   16  O1  UNK     1      30.469  -5.155  32.444  1.00  0.00    -0.274 OA
HETATM   17  C9  UNK     1      31.675  -5.231  34.515  1.00  0.00     0.038 A 
HETATM   18  C7  UNK     1      29.397  -5.486  31.617  1.00  0.00     0.298 A 
HETATM   19  O2  UNK     1      29.340  -5.066  30.466  1.00  0.00    -0.259 OA
HETATM   20  C12 UNK     1      31.794  -5.677  35.830  1.00  0.00     0.003 A 
HETATM   21  C11 UNK     1      30.808  -6.498  36.382  1.00  0.00     0.001 A 
ENDBRANCH  10  11
ENDBRANCH   4   9
BRANCH   7  22
HETATM   22  O3  UNK     1      30.491 -10.908  31.803  1.00  0.00    -0.343 OA
HETATM   23  H9  UNK     1      29.670 -11.389  32.011  1.00  0.00     0.219 HD
ENDBRANCH   7  22
BRANCH   5  24
HETATM   24  N3  UNK     1      32.124 -10.281  29.579  1.00  0.00    -0.105 N 
HETATM   25  O5  UNK     1      33.153  -9.595  29.668  1.00  0.00    -0.531 OA
HETATM   26  O6  UNK     1      32.086 -11.488  29.305  1.00  0.00    -0.531 OA
ENDBRANCH   5  24
TORSDOF 4
ENDMDL
