MODEL 1
REMARK VINA RESULT:      -9.7      0.000      0.000
REMARK  5 active torsions:
REMARK  status: ('A' for Active; 'I' for Inactive)
REMARK    1  A    between atoms: C13_18  and  O2_3 
REMARK    2  A    between atoms: C7_12  and  O2_3 
REMARK    3  A    between atoms: C2_7  and  C4_9 
REMARK    4  A    between atoms: C13_18  and  C16_21 
REMARK    5  A    between atoms: C16_21  and  C17_22 
ROOT
HETATM    1  O1  UNK     1      20.320   7.946  33.614  1.00  0.00    -0.275 OA
HETATM    2  O3  UNK     1      20.905   9.835  34.762  1.00  0.00    -0.260 OA
HETATM    3  C1  UNK     1      17.974   7.572  33.062  1.00  0.00     0.009 A 
HETATM    4  C2  UNK     1      17.627   8.839  33.725  1.00  0.00    -0.007 A 
HETATM    5  C3  UNK     1      19.307   7.165  33.028  1.00  0.00     0.093 A 
HETATM    6  C5  UNK     1      17.019   6.745  32.456  1.00  0.00     0.018 A 
HETATM    7  C6  UNK     1      19.703   5.975  32.416  1.00  0.00     0.075 A 
HETATM    8  C7  UNK     1      18.742   5.165  31.820  1.00  0.00     0.072 A 
HETATM    9  C8  UNK     1      18.617   9.560  34.275  1.00  0.00     0.095 A 
HETATM   10  C9  UNK     1      17.401   5.550  31.839  1.00  0.00     0.038 A 
HETATM   11  C10 UNK     1      20.032   9.146  34.247  1.00  0.00     0.289 A 
ENDROOT
BRANCH   8  12
HETATM   12  O2  UNK     1      19.108   4.000  31.220  1.00  0.00    -0.344 OA
BRANCH  12  13
HETATM   13  C13 UNK     1      18.063   3.096  30.863  1.00  0.00     0.259 C 
BRANCH  13  14
HETATM   14  C16 UNK     1      18.442   2.331  29.611  1.00  0.00     0.183 C 
HETATM   15  O4  UNK     1      18.234   2.786  28.489  1.00  0.00    -0.290 OA
BRANCH  14  16
HETATM   16  C17 UNK     1      19.081   0.992  29.755  1.00  0.00     0.012 A 
HETATM   17  C19 UNK     1      19.392   0.541  31.018  1.00  0.00     0.017 A 
HETATM   18  C21 UNK     1      19.989  -0.712  31.154  1.00  0.00     0.025 A 
HETATM   19  C23 UNK     1      20.258  -1.483  30.022  1.00  0.00     0.034 A 
HETATM   20  C22 UNK     1      19.931  -1.000  28.755  1.00  0.00     0.025 A 
HETATM   21 Cl1  UNK     1      20.996  -3.029  30.190  1.00  0.00    -0.084 Cl
HETATM   22  C20 UNK     1      19.335   0.254  28.619  1.00  0.00     0.017 A 
ENDBRANCH  14  16
ENDBRANCH  13  14
ENDBRANCH  12  13
ENDBRANCH   8  12
BRANCH   4  23
HETATM   23  C4  UNK     1      16.288   9.406  33.848  1.00  0.00    -0.025 A 
HETATM   24  C11 UNK     1      15.874   9.944  35.064  1.00  0.00     0.012 A 
HETATM   25  C14 UNK     1      14.594  10.486  35.181  1.00  0.00     0.001 A 
HETATM   26  C18 UNK     1      13.734  10.490  34.083  1.00  0.00     0.000 A 
HETATM   27  C15 UNK     1      14.153   9.950  32.867  1.00  0.00     0.001 A 
HETATM   28  C12 UNK     1      15.433   9.408  32.750  1.00  0.00     0.012 A 
ENDBRANCH   4  23
TORSDOF 5
ENDMDL
MODEL 2
REMARK VINA RESULT:      -9.5      3.941      9.649
REMARK  5 active torsions:
REMARK  status: ('A' for Active; 'I' for Inactive)
REMARK    1  A    between atoms: C13_18  and  O2_3 
REMARK    2  A    between atoms: C7_12  and  O2_3 
REMARK    3  A    between atoms: C2_7  and  C4_9 
REMARK    4  A    between atoms: C13_18  and  C16_21 
REMARK    5  A    between atoms: C16_21  and  C17_22 
ROOT
HETATM    1  O1  UNK     1      17.857   3.211  33.991  1.00  0.00    -0.275 OA
HETATM    2  O3  UNK     1      17.710   1.195  35.060  1.00  0.00    -0.260 OA
HETATM    3  C1  UNK     1      18.602   3.272  31.670  1.00  0.00     0.009 A 
HETATM    4  C2  UNK     1      18.742   1.807  31.687  1.00  0.00    -0.007 A 
HETATM    5  C3  UNK     1      18.166   3.927  32.820  1.00  0.00     0.093 A 
HETATM    6  C5  UNK     1      18.889   4.049  30.540  1.00  0.00     0.018 A 
HETATM    7  C6  UNK     1      18.012   5.313  32.870  1.00  0.00     0.075 A 
HETATM    8  C7  UNK     1      18.303   6.070  31.740  1.00  0.00     0.072 A 
HETATM    9  C8  UNK     1      18.440   1.154  32.821  1.00  0.00     0.095 A 
HETATM   10  C9  UNK     1      18.740   5.439  30.575  1.00  0.00     0.038 A 
HETATM   11  C10 UNK     1      17.976   1.830  34.046  1.00  0.00     0.289 A 
ENDROOT
BRANCH   8  12
HETATM   12  O2  UNK     1      18.161   7.423  31.769  1.00  0.00    -0.344 OA
BRANCH  12  13
HETATM   13  C13 UNK     1      17.397   7.973  32.842  1.00  0.00     0.259 C 
BRANCH  13  14
HETATM   14  C16 UNK     1      16.179   8.693  32.297  1.00  0.00     0.183 C 
HETATM   15  O4  UNK     1      15.852   8.603  31.115  1.00  0.00    -0.290 OA
BRANCH  14  16
HETATM   16  C17 UNK     1      15.366   9.530  33.224  1.00  0.00     0.012 A 
HETATM   17  C19 UNK     1      15.672   9.515  34.566  1.00  0.00     0.017 A 
HETATM   18  C21 UNK     1      14.913  10.299  35.435  1.00  0.00     0.025 A 
HETATM   19  C23 UNK     1      13.866  11.077  34.938  1.00  0.00     0.034 A 
HETATM   20  C22 UNK     1      13.581  11.072  33.573  1.00  0.00     0.025 A 
HETATM   21 Cl1  UNK     1      12.928  12.043  36.010  1.00  0.00    -0.084 Cl
HETATM   22  C20 UNK     1      14.340  10.288  32.704  1.00  0.00     0.017 A 
ENDBRANCH  14  16
ENDBRANCH  13  14
ENDBRANCH  12  13
ENDBRANCH   8  12
BRANCH   4  23
HETATM   23  C4  UNK     1      19.184   0.973  30.574  1.00  0.00    -0.025 A 
HETATM   24  C11 UNK     1      20.301   0.155  30.724  1.00  0.00     0.012 A 
HETATM   25  C14 UNK     1      20.723  -0.643  29.661  1.00  0.00     0.001 A 
HETATM   26  C18 UNK     1      20.027  -0.622  28.452  1.00  0.00     0.000 A 
HETATM   27  C15 UNK     1      18.907   0.198  28.307  1.00  0.00     0.001 A 
HETATM   28  C12 UNK     1      18.485   0.996  29.371  1.00  0.00     0.012 A 
ENDBRANCH   4  23
TORSDOF 5
ENDMDL
MODEL 3
REMARK VINA RESULT:      -9.5      5.107     10.089
REMARK  5 active torsions:
REMARK  status: ('A' for Active; 'I' for Inactive)
REMARK    1  A    between atoms: C13_18  and  O2_3 
REMARK    2  A    between atoms: C7_12  and  O2_3 
REMARK    3  A    between atoms: C2_7  and  C4_9 
REMARK    4  A    between atoms: C13_18  and  C16_21 
REMARK    5  A    between atoms: C16_21  and  C17_22 
ROOT
HETATM    1  O1  UNK     1      17.915   0.157  35.752  1.00  0.00    -0.275 OA
HETATM    2  O3  UNK     1      17.428   0.223  37.985  1.00  0.00    -0.260 OA
HETATM    3  C1  UNK     1      19.170  -1.738  34.867  1.00  0.00     0.009 A 
HETATM    4  C2  UNK     1      19.228  -2.317  36.218  1.00  0.00    -0.007 A 
HETATM    5  C3  UNK     1      18.518  -0.521  34.675  1.00  0.00     0.093 A 
HETATM    6  C5  UNK     1      19.745  -2.358  33.750  1.00  0.00     0.018 A 
HETATM    7  C6  UNK     1      18.427   0.082  33.420  1.00  0.00     0.075 A 
HETATM    8  C7  UNK     1      19.004  -0.547  32.322  1.00  0.00     0.072 A 
HETATM    9  C8  UNK     1      18.644  -1.645  37.223  1.00  0.00     0.095 A 
HETATM   10  C9  UNK     1      19.662  -1.766  32.486  1.00  0.00     0.038 A 
HETATM   11  C10 UNK     1      17.949  -0.358  37.039  1.00  0.00     0.289 A 
ENDROOT
BRANCH   8  12
HETATM   12  O2  UNK     1      18.929   0.027  31.090  1.00  0.00    -0.344 OA
BRANCH  12  13
HETATM   13  C13 UNK     1      19.524   1.315  30.935  1.00  0.00     0.259 C 
BRANCH  13  14
HETATM   14  C16 UNK     1      18.468   2.331  30.547  1.00  0.00     0.183 C 
HETATM   15  O4  UNK     1      17.579   2.063  29.742  1.00  0.00    -0.290 OA
BRANCH  14  16
HETATM   16  C17 UNK     1      18.520   3.689  31.161  1.00  0.00     0.012 A 
HETATM   17  C19 UNK     1      18.079   3.845  32.455  1.00  0.00     0.017 A 
HETATM   18  C21 UNK     1      18.129   5.115  33.031  1.00  0.00     0.025 A 
HETATM   19  C23 UNK     1      18.620   6.195  32.296  1.00  0.00     0.034 A 
HETATM   20  C22 UNK     1      19.061   6.005  30.987  1.00  0.00     0.025 A 
HETATM   21 Cl1  UNK     1      18.680   7.762  33.006  1.00  0.00    -0.084 Cl
HETATM   22  C20 UNK     1      19.011   4.736  30.411  1.00  0.00     0.017 A 
ENDBRANCH  14  16
ENDBRANCH  13  14
ENDBRANCH  12  13
ENDBRANCH   8  12
BRANCH   4  23
HETATM   23  C4  UNK     1      19.868  -3.576  36.587  1.00  0.00    -0.025 A 
HETATM   24  C11 UNK     1      20.911  -3.577  37.511  1.00  0.00     0.012 A 
HETATM   25  C14 UNK     1      21.523  -4.779  37.864  1.00  0.00     0.001 A 
HETATM   26  C18 UNK     1      21.090  -5.977  37.294  1.00  0.00     0.000 A 
HETATM   27  C15 UNK     1      20.044  -5.971  36.370  1.00  0.00     0.001 A 
HETATM   28  C12 UNK     1      19.433  -4.768  36.017  1.00  0.00     0.012 A 
ENDBRANCH   4  23
TORSDOF 5
ENDMDL
MODEL 4
REMARK VINA RESULT:      -9.5      8.205     13.555
REMARK  5 active torsions:
REMARK  status: ('A' for Active; 'I' for Inactive)
REMARK    1  A    between atoms: C13_18  and  O2_3 
REMARK    2  A    between atoms: C7_12  and  O2_3 
REMARK    3  A    between atoms: C2_7  and  C4_9 
REMARK    4  A    between atoms: C13_18  and  C16_21 
REMARK    5  A    between atoms: C16_21  and  C17_22 
ROOT
HETATM    1  O1  UNK     1      22.511  -4.715  38.247  1.00  0.00    -0.275 OA
HETATM    2  O3  UNK     1      24.310  -5.775  39.178  1.00  0.00    -0.260 OA
HETATM    3  C1  UNK     1      20.579  -6.036  37.561  1.00  0.00     0.009 A 
HETATM    4  C2  UNK     1      21.264  -7.255  38.018  1.00  0.00    -0.007 A 
HETATM    5  C3  UNK     1      21.222  -4.806  37.688  1.00  0.00     0.093 A 
HETATM    6  C5  UNK     1      19.296  -6.051  36.998  1.00  0.00     0.018 A 
HETATM    7  C6  UNK     1      20.629  -3.613  37.275  1.00  0.00     0.075 A 
HETATM    8  C7  UNK     1      19.355  -3.646  36.717  1.00  0.00     0.072 A 
HETATM    9  C8  UNK     1      22.493  -7.134  38.546  1.00  0.00     0.095 A 
HETATM   10  C9  UNK     1      18.689  -4.863  36.579  1.00  0.00     0.038 A 
HETATM   11  C10 UNK     1      23.187  -5.841  38.690  1.00  0.00     0.289 A 
ENDROOT
BRANCH   8  12
HETATM   12  O2  UNK     1      18.760  -2.493  36.306  1.00  0.00    -0.344 OA
BRANCH  12  13
HETATM   13  C13 UNK     1      19.504  -1.659  35.418  1.00  0.00     0.259 C 
BRANCH  13  14
HETATM   14  C16 UNK     1      18.609  -1.164  34.298  1.00  0.00     0.183 C 
HETATM   15  O4  UNK     1      17.432  -0.872  34.494  1.00  0.00    -0.290 OA
BRANCH  14  16
HETATM   16  C17 UNK     1      19.181  -1.035  32.927  1.00  0.00     0.012 A 
HETATM   17  C19 UNK     1      19.904  -2.088  32.412  1.00  0.00     0.017 A 
HETATM   18  C21 UNK     1      20.438  -1.969  31.129  1.00  0.00     0.025 A 
HETATM   19  C23 UNK     1      20.234  -0.800  30.394  1.00  0.00     0.034 A 
HETATM   20  C22 UNK     1      19.496   0.249  30.942  1.00  0.00     0.025 A 
HETATM   21 Cl1  UNK     1      20.894  -0.653  28.812  1.00  0.00    -0.084 Cl
HETATM   22  C20 UNK     1      18.962   0.130  32.226  1.00  0.00     0.017 A 
ENDBRANCH  14  16
ENDBRANCH  13  14
ENDBRANCH  12  13
ENDBRANCH   8  12
BRANCH   4  23
HETATM   23  C4  UNK     1      20.733  -8.613  37.956  1.00  0.00    -0.025 A 
HETATM   24  C11 UNK     1      21.076  -9.442  36.890  1.00  0.00     0.012 A 
HETATM   25  C14 UNK     1      20.569 -10.740  36.832  1.00  0.00     0.001 A 
HETATM   26  C18 UNK     1      19.723 -11.206  37.838  1.00  0.00     0.000 A 
HETATM   27  C15 UNK     1      19.384 -10.373  38.905  1.00  0.00     0.001 A 
HETATM   28  C12 UNK     1      19.890  -9.074  38.963  1.00  0.00     0.012 A 
ENDBRANCH   4  23
TORSDOF 5
ENDMDL
MODEL 5
REMARK VINA RESULT:      -9.5      5.109      7.447
REMARK  5 active torsions:
REMARK  status: ('A' for Active; 'I' for Inactive)
REMARK    1  A    between atoms: C13_18  and  O2_3 
REMARK    2  A    between atoms: C7_12  and  O2_3 
REMARK    3  A    between atoms: C2_7  and  C4_9 
REMARK    4  A    between atoms: C13_18  and  C16_21 
REMARK    5  A    between atoms: C16_21  and  C17_22 
ROOT
HETATM    1  O1  UNK     1      18.682   0.731  31.250  1.00  0.00    -0.275 OA
HETATM    2  O3  UNK     1      18.869   1.739  29.206  1.00  0.00    -0.260 OA
HETATM    3  C1  UNK     1      18.368   2.118  33.232  1.00  0.00     0.009 A 
HETATM    4  C2  UNK     1      18.402   3.319  32.383  1.00  0.00    -0.007 A 
HETATM    5  C3  UNK     1      18.510   0.863  32.641  1.00  0.00     0.093 A 
HETATM    6  C5  UNK     1      18.197   2.173  34.621  1.00  0.00     0.018 A 
HETATM    7  C6  UNK     1      18.487  -0.315  33.387  1.00  0.00     0.075 A 
HETATM    8  C7  UNK     1      18.318  -0.242  34.766  1.00  0.00     0.072 A 
HETATM    9  C8  UNK     1      18.568   3.159  31.061  1.00  0.00     0.095 A 
HETATM   10  C9  UNK     1      18.173   1.001  35.383  1.00  0.00     0.038 A 
HETATM   11  C10 UNK     1      18.718   1.840  30.418  1.00  0.00     0.289 A 
ENDROOT
BRANCH   8  12
HETATM   12  O2  UNK     1      18.295  -1.380  35.512  1.00  0.00    -0.344 OA
BRANCH  12  13
HETATM   13  C13 UNK     1      19.497  -1.731  36.198  1.00  0.00     0.259 C 
BRANCH  13  14
HETATM   14  C16 UNK     1      20.040  -3.039  35.657  1.00  0.00     0.183 C 
HETATM   15  O4  UNK     1      20.500  -3.126  34.521  1.00  0.00    -0.290 OA
BRANCH  14  16
HETATM   16  C17 UNK     1      20.007  -4.246  36.532  1.00  0.00     0.012 A 
HETATM   17  C19 UNK     1      18.999  -5.166  36.349  1.00  0.00     0.017 A 
HETATM   18  C21 UNK     1      18.968  -6.297  37.166  1.00  0.00     0.025 A 
HETATM   19  C23 UNK     1      19.946  -6.477  38.144  1.00  0.00     0.034 A 
HETATM   20  C22 UNK     1      20.955  -5.528  38.305  1.00  0.00     0.025 A 
HETATM   21 Cl1  UNK     1      19.907  -7.871  39.153  1.00  0.00    -0.084 Cl
HETATM   22  C20 UNK     1      20.986  -4.397  37.488  1.00  0.00     0.017 A 
ENDBRANCH  14  16
ENDBRANCH  13  14
ENDBRANCH  12  13
ENDBRANCH   8  12
BRANCH   4  23
HETATM   23  C4  UNK     1      18.268   4.699  32.842  1.00  0.00    -0.025 A 
HETATM   24  C11 UNK     1      19.221   5.236  33.705  1.00  0.00     0.012 A 
HETATM   25  C14 UNK     1      19.094   6.554  34.142  1.00  0.00     0.001 A 
HETATM   26  C18 UNK     1      18.017   7.331  33.715  1.00  0.00     0.000 A 
HETATM   27  C15 UNK     1      17.066   6.789  32.850  1.00  0.00     0.001 A 
HETATM   28  C12 UNK     1      17.193   5.471  32.412  1.00  0.00     0.012 A 
ENDBRANCH   4  23
TORSDOF 5
ENDMDL
MODEL 6
REMARK VINA RESULT:      -9.4      3.813      9.054
REMARK  5 active torsions:
REMARK  status: ('A' for Active; 'I' for Inactive)
REMARK    1  A    between atoms: C13_18  and  O2_3 
REMARK    2  A    between atoms: C7_12  and  O2_3 
REMARK    3  A    between atoms: C2_7  and  C4_9 
REMARK    4  A    between atoms: C13_18  and  C16_21 
REMARK    5  A    between atoms: C16_21  and  C17_22 
ROOT
HETATM    1  O1  UNK     1      19.858  -0.135  30.068  1.00  0.00    -0.275 OA
HETATM    2  O3  UNK     1      20.544  -2.313  29.952  1.00  0.00    -0.260 OA
HETATM    3  C1  UNK     1      18.842   0.680  32.130  1.00  0.00     0.009 A 
HETATM    4  C2  UNK     1      19.009  -0.654  32.727  1.00  0.00    -0.007 A 
HETATM    5  C3  UNK     1      19.269   0.898  30.821  1.00  0.00     0.093 A 
HETATM    6  C5  UNK     1      18.267   1.755  32.821  1.00  0.00     0.018 A 
HETATM    7  C6  UNK     1      19.140   2.139  30.196  1.00  0.00     0.075 A 
HETATM    8  C7  UNK     1      18.566   3.195  30.895  1.00  0.00     0.072 A 
HETATM    9  C8  UNK     1      19.574  -1.617  31.982  1.00  0.00     0.095 A 
HETATM   10  C9  UNK     1      18.130   3.004  32.207  1.00  0.00     0.038 A 
HETATM   11  C10 UNK     1      20.033  -1.405  30.598  1.00  0.00     0.289 A 
ENDROOT
BRANCH   8  12
HETATM   12  O2  UNK     1      18.429   4.412  30.302  1.00  0.00    -0.344 OA
BRANCH  12  13
HETATM   13  C13 UNK     1      19.558   5.285  30.341  1.00  0.00     0.259 C 
BRANCH  13  14
HETATM   14  C16 UNK     1      19.561   6.072  31.636  1.00  0.00     0.183 C 
HETATM   15  O4  UNK     1      20.595   6.265  32.271  1.00  0.00    -0.290 OA
BRANCH  14  16
HETATM   16  C17 UNK     1      18.271   6.620  32.146  1.00  0.00     0.012 A 
HETATM   17  C19 UNK     1      17.955   6.434  33.473  1.00  0.00     0.017 A 
HETATM   18  C21 UNK     1      16.749   6.948  33.952  1.00  0.00     0.025 A 
HETATM   19  C23 UNK     1      15.892   7.634  33.090  1.00  0.00     0.034 A 
HETATM   20  C22 UNK     1      16.241   7.807  31.751  1.00  0.00     0.025 A 
HETATM   21 Cl1  UNK     1      14.404   8.266  33.680  1.00  0.00    -0.084 Cl
HETATM   22  C20 UNK     1      17.447   7.293  31.272  1.00  0.00     0.017 A 
ENDBRANCH  14  16
ENDBRANCH  13  14
ENDBRANCH  12  13
ENDBRANCH   8  12
BRANCH   4  23
HETATM   23  C4  UNK     1      18.617  -1.046  34.078  1.00  0.00    -0.025 A 
HETATM   24  C11 UNK     1      17.329  -0.773  34.530  1.00  0.00     0.012 A 
HETATM   25  C14 UNK     1      16.954  -1.148  35.820  1.00  0.00     0.001 A 
HETATM   26  C18 UNK     1      17.867  -1.795  36.653  1.00  0.00     0.000 A 
HETATM   27  C15 UNK     1      19.156  -2.067  36.194  1.00  0.00     0.001 A 
HETATM   28  C12 UNK     1      19.531  -1.692  34.904  1.00  0.00     0.012 A 
ENDBRANCH   4  23
TORSDOF 5
ENDMDL
MODEL 7
REMARK VINA RESULT:      -9.4     17.066     19.149
REMARK  5 active torsions:
REMARK  status: ('A' for Active; 'I' for Inactive)
REMARK    1  A    between atoms: C13_18  and  O2_3 
REMARK    2  A    between atoms: C7_12  and  O2_3 
REMARK    3  A    between atoms: C2_7  and  C4_9 
REMARK    4  A    between atoms: C13_18  and  C16_21 
REMARK    5  A    between atoms: C16_21  and  C17_22 
ROOT
HETATM    1  O1  UNK     1      30.880  -4.624  38.979  1.00  0.00    -0.275 OA
HETATM    2  O3  UNK     1      28.997  -3.598  39.772  1.00  0.00    -0.260 OA
HETATM    3  C1  UNK     1      30.731  -6.923  38.178  1.00  0.00     0.009 A 
HETATM    4  C2  UNK     1      29.295  -6.930  38.498  1.00  0.00    -0.007 A 
HETATM    5  C3  UNK     1      31.478  -5.774  38.429  1.00  0.00     0.093 A 
HETATM    6  C5  UNK     1      31.392  -8.029  37.627  1.00  0.00     0.018 A 
HETATM    7  C6  UNK     1      32.844  -5.701  38.149  1.00  0.00     0.075 A 
HETATM    8  C7  UNK     1      33.484  -6.808  37.603  1.00  0.00     0.072 A 
HETATM    9  C8  UNK     1      28.755  -5.818  39.022  1.00  0.00     0.095 A 
HETATM   10  C9  UNK     1      32.760  -7.971  37.342  1.00  0.00     0.038 A 
HETATM   11  C10 UNK     1      29.530  -4.593  39.292  1.00  0.00     0.289 A 
ENDROOT
BRANCH   8  12
HETATM   12  O2  UNK     1      34.815  -6.758  37.326  1.00  0.00    -0.344 OA
BRANCH  12  13
HETATM   13  C13 UNK     1      35.262  -5.703  36.474  1.00  0.00     0.259 C 
BRANCH  13  14
HETATM   14  C16 UNK     1      35.067  -6.090  35.022  1.00  0.00     0.183 C 
HETATM   15  O4  UNK     1      36.001  -6.488  34.329  1.00  0.00    -0.290 OA
BRANCH  14  16
HETATM   16  C17 UNK     1      33.704  -5.978  34.427  1.00  0.00     0.012 A 
HETATM   17  C19 UNK     1      32.983  -4.825  34.642  1.00  0.00     0.017 A 
HETATM   18  C21 UNK     1      31.709  -4.719  34.084  1.00  0.00     0.025 A 
HETATM   19  C23 UNK     1      31.190  -5.769  33.325  1.00  0.00     0.034 A 
HETATM   20  C22 UNK     1      31.945  -6.924  33.124  1.00  0.00     0.025 A 
HETATM   21 Cl1  UNK     1      29.617  -5.638  32.639  1.00  0.00    -0.084 Cl
HETATM   22  C20 UNK     1      33.219  -7.030  33.682  1.00  0.00     0.017 A 
ENDBRANCH  14  16
ENDBRANCH  13  14
ENDBRANCH  12  13
ENDBRANCH   8  12
BRANCH   4  23
HETATM   23  C4  UNK     1      28.375  -8.046  38.298  1.00  0.00    -0.025 A 
HETATM   24  C11 UNK     1      27.792  -8.246  37.049  1.00  0.00     0.012 A 
HETATM   25  C14 UNK     1      26.914  -9.312  36.858  1.00  0.00     0.001 A 
HETATM   26  C18 UNK     1      26.622 -10.175  37.914  1.00  0.00     0.000 A 
HETATM   27  C15 UNK     1      27.210  -9.971  39.163  1.00  0.00     0.001 A 
HETATM   28  C12 UNK     1      28.088  -8.905  39.355  1.00  0.00     0.012 A 
ENDBRANCH   4  23
TORSDOF 5
ENDMDL
MODEL 8
REMARK VINA RESULT:      -9.4     23.175     25.628
REMARK  5 active torsions:
REMARK  status: ('A' for Active; 'I' for Inactive)
REMARK    1  A    between atoms: C13_18  and  O2_3 
REMARK    2  A    between atoms: C7_12  and  O2_3 
REMARK    3  A    between atoms: C2_7  and  C4_9 
REMARK    4  A    between atoms: C13_18  and  C16_21 
REMARK    5  A    between atoms: C16_21  and  C17_22 
ROOT
HETATM    1  O1  UNK     1      16.011   6.066   9.909  1.00  0.00    -0.275 OA
HETATM    2  O3  UNK     1      15.727   3.797   9.899  1.00  0.00    -0.260 OA
HETATM    3  C1  UNK     1      14.274   7.483   8.948  1.00  0.00     0.009 A 
HETATM    4  C2  UNK     1      13.490   6.282   8.620  1.00  0.00    -0.007 A 
HETATM    5  C3  UNK     1      15.508   7.339   9.579  1.00  0.00     0.093 A 
HETATM    6  C5  UNK     1      13.835   8.780   8.652  1.00  0.00     0.018 A 
HETATM    7  C6  UNK     1      16.301   8.436   9.917  1.00  0.00     0.075 A 
HETATM    8  C7  UNK     1      15.851   9.717   9.615  1.00  0.00     0.072 A 
HETATM    9  C8  UNK     1      13.998   5.083   8.947  1.00  0.00     0.095 A 
HETATM   10  C9  UNK     1      14.619   9.890   8.984  1.00  0.00     0.038 A 
HETATM   11  C10 UNK     1      15.300   4.911   9.617  1.00  0.00     0.289 A 
ENDROOT
BRANCH   8  12
HETATM   12  O2  UNK     1      16.611  10.800   9.934  1.00  0.00    -0.344 OA
BRANCH  12  13
HETATM   13  C13 UNK     1      17.020  11.646   8.860  1.00  0.00     0.259 C 
BRANCH  13  14
HETATM   14  C16 UNK     1      18.528  11.600   8.708  1.00  0.00     0.183 C 
HETATM   15  O4  UNK     1      19.239  10.998   9.510  1.00  0.00    -0.290 OA
BRANCH  14  16
HETATM   16  C17 UNK     1      19.155  12.308   7.555  1.00  0.00     0.012 A 
HETATM   17  C19 UNK     1      20.350  12.961   7.753  1.00  0.00     0.017 A 
HETATM   18  C21 UNK     1      20.939  13.621   6.674  1.00  0.00     0.025 A 
HETATM   19  C23 UNK     1      20.315  13.612   5.426  1.00  0.00     0.034 A 
HETATM   20  C22 UNK     1      19.104  12.941   5.257  1.00  0.00     0.025 A 
HETATM   21 Cl1  UNK     1      21.040  14.428   4.096  1.00  0.00    -0.084 Cl
HETATM   22  C20 UNK     1      18.516  12.280   6.335  1.00  0.00     0.017 A 
ENDBRANCH  14  16
ENDBRANCH  13  14
ENDBRANCH  12  13
ENDBRANCH   8  12
BRANCH   4  23
HETATM   23  C4  UNK     1      12.187   6.259   7.963  1.00  0.00    -0.025 A 
HETATM   24  C11 UNK     1      12.113   6.276   6.572  1.00  0.00     0.012 A 
HETATM   25  C14 UNK     1      10.868   6.254   5.944  1.00  0.00     0.001 A 
HETATM   26  C18 UNK     1       9.702   6.213   6.708  1.00  0.00     0.000 A 
HETATM   27  C15 UNK     1       9.780   6.194   8.101  1.00  0.00     0.001 A 
HETATM   28  C12 UNK     1      11.025   6.217   8.729  1.00  0.00     0.012 A 
ENDBRANCH   4  23
TORSDOF 5
ENDMDL
MODEL 9
REMARK VINA RESULT:      -9.3     22.026     24.683
REMARK  5 active torsions:
REMARK  status: ('A' for Active; 'I' for Inactive)
REMARK    1  A    between atoms: C13_18  and  O2_3 
REMARK    2  A    between atoms: C7_12  and  O2_3 
REMARK    3  A    between atoms: C2_7  and  C4_9 
REMARK    4  A    between atoms: C13_18  and  C16_21 
REMARK    5  A    between atoms: C16_21  and  C17_22 
ROOT
HETATM    1  O1  UNK     1      11.343   6.213   5.964  1.00  0.00    -0.275 OA
HETATM    2  O3  UNK     1       9.475   6.552   4.691  1.00  0.00    -0.260 OA
HETATM    3  C1  UNK     1      11.101   5.922   8.374  1.00  0.00     0.009 A 
HETATM    4  C2  UNK     1       9.644   6.077   8.235  1.00  0.00    -0.007 A 
HETATM    5  C3  UNK     1      11.904   5.996   7.237  1.00  0.00     0.093 A 
HETATM    6  C5  UNK     1      11.727   5.701   9.607  1.00  0.00     0.018 A 
HETATM    7  C6  UNK     1      13.291   5.858   7.299  1.00  0.00     0.075 A 
HETATM    8  C7  UNK     1      13.897   5.640   8.532  1.00  0.00     0.072 A 
HETATM    9  C8  UNK     1       9.141   6.283   7.007  1.00  0.00     0.095 A 
HETATM   10  C9  UNK     1      13.116   5.561   9.686  1.00  0.00     0.038 A 
HETATM   11  C10 UNK     1       9.975   6.362   5.794  1.00  0.00     0.289 A 
ENDROOT
BRANCH   8  12
HETATM   12  O2  UNK     1      15.248   5.505   8.614  1.00  0.00    -0.344 OA
BRANCH  12  13
HETATM   13  C13 UNK     1      15.841   5.665   9.903  1.00  0.00     0.259 C 
BRANCH  13  14
HETATM   14  C16 UNK     1      16.750   6.878   9.910  1.00  0.00     0.183 C 
HETATM   15  O4  UNK     1      17.918   6.810   9.535  1.00  0.00    -0.290 OA
BRANCH  14  16
HETATM   16  C17 UNK     1      16.205   8.180  10.388  1.00  0.00     0.012 A 
HETATM   17  C19 UNK     1      15.201   8.169  11.331  1.00  0.00     0.017 A 
HETATM   18  C21 UNK     1      14.691   9.387  11.781  1.00  0.00     0.025 A 
HETATM   19  C23 UNK     1      15.199  10.585  11.275  1.00  0.00     0.034 A 
HETATM   20  C22 UNK     1      16.216  10.564  10.321  1.00  0.00     0.025 A 
HETATM   21 Cl1  UNK     1      14.569  12.088  11.829  1.00  0.00    -0.084 Cl
HETATM   22  C20 UNK     1      16.726   9.346   9.872  1.00  0.00     0.017 A 
ENDBRANCH  14  16
ENDBRANCH  13  14
ENDBRANCH  12  13
ENDBRANCH   8  12
BRANCH   4  23
HETATM   23  C4  UNK     1       8.667   6.026   9.318  1.00  0.00    -0.025 A 
HETATM   24  C11 UNK     1       8.375   4.809   9.930  1.00  0.00     0.012 A 
HETATM   25  C14 UNK     1       7.442   4.761  10.965  1.00  0.00     0.001 A 
HETATM   26  C18 UNK     1       6.806   5.928  11.387  1.00  0.00     0.000 A 
HETATM   27  C15 UNK     1       7.102   7.145  10.772  1.00  0.00     0.001 A 
HETATM   28  C12 UNK     1       8.035   7.193   9.737  1.00  0.00     0.012 A 
ENDBRANCH   4  23
TORSDOF 5
ENDMDL
MODEL 10
REMARK VINA RESULT:      -9.3     22.100     24.597
REMARK  5 active torsions:
REMARK  status: ('A' for Active; 'I' for Inactive)
REMARK    1  A    between atoms: C13_18  and  O2_3 
REMARK    2  A    between atoms: C7_12  and  O2_3 
REMARK    3  A    between atoms: C2_7  and  C4_9 
REMARK    4  A    between atoms: C13_18  and  C16_21 
REMARK    5  A    between atoms: C16_21  and  C17_22 
ROOT
HETATM    1  O1  UNK     1      14.010   4.616   8.843  1.00  0.00    -0.275 OA
HETATM    2  O3  UNK     1      16.011   4.051   9.792  1.00  0.00    -0.260 OA
HETATM    3  C1  UNK     1      13.272   6.939   8.923  1.00  0.00     0.009 A 
HETATM    4  C2  UNK     1      14.501   7.293   9.650  1.00  0.00    -0.007 A 
HETATM    5  C3  UNK     1      13.063   5.614   8.543  1.00  0.00     0.093 A 
HETATM    6  C5  UNK     1      12.289   7.880   8.590  1.00  0.00     0.018 A 
HETATM    7  C6  UNK     1      11.920   5.212   7.853  1.00  0.00     0.075 A 
HETATM    8  C7  UNK     1      10.953   6.159   7.531  1.00  0.00     0.072 A 
HETATM    9  C8  UNK     1      15.383   6.317   9.920  1.00  0.00     0.095 A 
HETATM   10  C9  UNK     1      11.137   7.492   7.898  1.00  0.00     0.038 A 
HETATM   11  C10 UNK     1      15.180   4.911   9.525  1.00  0.00     0.289 A 
ENDROOT
BRANCH   8  12
HETATM   12  O2  UNK     1       9.830   5.786   6.859  1.00  0.00    -0.344 OA
BRANCH  12  13
HETATM   13  C13 UNK     1       8.619   6.463   7.193  1.00  0.00     0.259 C 
BRANCH  13  14
HETATM   14  C16 UNK     1       7.834   5.656   8.208  1.00  0.00     0.183 C 
HETATM   15  O4  UNK     1       7.573   4.469   8.026  1.00  0.00    -0.290 OA
BRANCH  14  16
HETATM   16  C17 UNK     1       7.370   6.329   9.455  1.00  0.00     0.012 A 
HETATM   17  C19 UNK     1       7.580   7.683   9.592  1.00  0.00     0.017 A 
HETATM   18  C21 UNK     1       7.144   8.314  10.757  1.00  0.00     0.025 A 
HETATM   19  C23 UNK     1       6.510   7.573  11.756  1.00  0.00     0.034 A 
HETATM   20  C22 UNK     1       6.311   6.203  11.588  1.00  0.00     0.025 A 
HETATM   21 Cl1  UNK     1       5.974   8.351  13.194  1.00  0.00    -0.084 Cl
HETATM   22  C20 UNK     1       6.747   5.572  10.423  1.00  0.00     0.017 A 
ENDBRANCH  14  16
ENDBRANCH  13  14
ENDBRANCH  12  13
ENDBRANCH   8  12
BRANCH   4  23
HETATM   23  C4  UNK     1      14.870   8.626  10.117  1.00  0.00    -0.025 A 
HETATM   24  C11 UNK     1      15.703   9.425   9.338  1.00  0.00     0.012 A 
HETATM   25  C14 UNK     1      16.055  10.699   9.783  1.00  0.00     0.001 A 
HETATM   26  C18 UNK     1      15.573  11.170  11.004  1.00  0.00     0.000 A 
HETATM   27  C15 UNK     1      14.738  10.366  11.781  1.00  0.00     0.001 A 
HETATM   28  C12 UNK     1      14.386   9.092  11.336  1.00  0.00     0.012 A 
ENDBRANCH   4  23
TORSDOF 5
ENDMDL
