MODEL 1
REMARK VINA RESULT:      -7.5      0.000      0.000
REMARK  1 active torsions:
REMARK  status: ('A' for Active; 'I' for Inactive)
REMARK    1  A    between atoms: C12_17  and  C8_13 
ROOT
HETATM    1  O1  UNK     1      19.355   1.249  29.916  1.00  0.00    -0.305 OA
HETATM    2  O2  UNK     1      18.846  -0.460  33.580  1.00  0.00    -0.287 OA
HETATM    3  C1  UNK     1      18.738   1.513  32.251  1.00  0.00     0.054 A 
HETATM    4  C2  UNK     1      18.311   2.348  33.286  1.00  0.00    -0.044 A 
HETATM    5  C3  UNK     1      18.936   2.023  30.969  1.00  0.00     0.091 A 
HETATM    6  C4  UNK     1      18.278   4.212  31.743  1.00  0.00    -0.059 A 
HETATM    7  C5  UNK     1      18.080   3.700  33.027  1.00  0.00     0.014 A 
HETATM    8  C6  UNK     1      18.707   3.375  30.713  1.00  0.00     0.045 A 
HETATM    9  C7  UNK     1      18.988   0.084  32.494  1.00  0.00     0.188 A 
HETATM   10  C8  UNK     1      19.590  -0.098  30.142  1.00  0.00     0.163 A 
HETATM   11  C9  UNK     1      19.437  -0.704  31.329  1.00  0.00     0.098 A 
HETATM   12  C10 UNK     1      18.075   1.877  34.685  1.00  0.00     0.049 C 
HETATM   13  C11 UNK     1      18.032   5.659  31.473  1.00  0.00     0.048 C 
ENDROOT
BRANCH  10  14
HETATM   14  C12 UNK     1      20.041  -0.838  28.921  1.00  0.00     0.439 C 
HETATM   15  F1  UNK     1      19.923  -2.171  29.092  1.00  0.00    -0.164 F 
HETATM   16  F2  UNK     1      19.304  -0.493  27.845  1.00  0.00    -0.164 F 
HETATM   17  F3  UNK     1      21.333  -0.572  28.639  1.00  0.00    -0.164 F 
ENDBRANCH  10  14
TORSDOF 1
ENDMDL
MODEL 2
REMARK VINA RESULT:      -7.4      1.105      3.052
REMARK  1 active torsions:
REMARK  status: ('A' for Active; 'I' for Inactive)
REMARK    1  A    between atoms: C12_17  and  C8_13 
ROOT
HETATM    1  O1  UNK     1      19.319  -0.162  31.085  1.00  0.00    -0.305 OA
HETATM    2  O2  UNK     1      18.666   3.658  29.825  1.00  0.00    -0.287 OA
HETATM    3  C1  UNK     1      18.651   2.109  31.633  1.00  0.00     0.054 A 
HETATM    4  C2  UNK     1      18.220   3.028  32.594  1.00  0.00    -0.044 A 
HETATM    5  C3  UNK     1      18.895   0.783  31.986  1.00  0.00     0.091 A 
HETATM    6  C4  UNK     1      18.281   1.281  34.267  1.00  0.00    -0.059 A 
HETATM    7  C5  UNK     1      18.037   2.609  33.912  1.00  0.00     0.014 A 
HETATM    8  C6  UNK     1      18.710   0.366  33.305  1.00  0.00     0.045 A 
HETATM    9  C7  UNK     1      18.854   2.521  30.237  1.00  0.00     0.188 A 
HETATM   10  C8  UNK     1      19.512   0.224  29.769  1.00  0.00     0.163 A 
HETATM   11  C9  UNK     1      19.310   1.468  29.308  1.00  0.00     0.098 A 
HETATM   12  C10 UNK     1      17.939   4.465  32.294  1.00  0.00     0.049 C 
HETATM   13  C11 UNK     1      18.083   0.839  35.678  1.00  0.00     0.048 C 
ENDROOT
BRANCH  10  14
HETATM   14  C12 UNK     1      19.975  -0.889  28.881  1.00  0.00     0.439 C 
HETATM   15  F1  UNK     1      19.252  -0.933  27.744  1.00  0.00    -0.164 F 
HETATM   16  F2  UNK     1      21.271  -0.732  28.542  1.00  0.00    -0.164 F 
HETATM   17  F3  UNK     1      19.851  -2.085  29.494  1.00  0.00    -0.164 F 
ENDBRANCH  10  14
TORSDOF 1
ENDMDL
MODEL 3
REMARK VINA RESULT:      -7.2      3.724      5.575
REMARK  1 active torsions:
REMARK  status: ('A' for Active; 'I' for Inactive)
REMARK    1  A    between atoms: C12_17  and  C8_13 
ROOT
HETATM    1  O1  UNK     1      18.943  -1.010  33.868  1.00  0.00    -0.305 OA
HETATM    2  O2  UNK     1      17.858   2.840  33.091  1.00  0.00    -0.287 OA
HETATM    3  C1  UNK     1      18.803   0.815  32.269  1.00  0.00     0.054 A 
HETATM    4  C2  UNK     1      19.034   1.289  30.976  1.00  0.00    -0.044 A 
HETATM    5  C3  UNK     1      19.148  -0.491  32.614  1.00  0.00     0.091 A 
HETATM    6  C4  UNK     1      19.958  -0.864  30.371  1.00  0.00    -0.059 A 
HETATM    7  C5  UNK     1      19.612   0.444  30.027  1.00  0.00     0.014 A 
HETATM    8  C6  UNK     1      19.726  -1.334  31.663  1.00  0.00     0.045 A 
HETATM    9  C7  UNK     1      18.194   1.681  33.290  1.00  0.00     0.188 A 
HETATM   10  C8  UNK     1      18.369  -0.196  34.831  1.00  0.00     0.163 A 
HETATM   11  C9  UNK     1      17.996   1.075  34.622  1.00  0.00     0.098 A 
HETATM   12  C10 UNK     1      18.691   2.674  30.531  1.00  0.00     0.049 C 
HETATM   13  C11 UNK     1      20.577  -1.761  29.352  1.00  0.00     0.048 C 
ENDROOT
BRANCH  10  14
HETATM   14  C12 UNK     1      18.196  -0.870  36.157  1.00  0.00     0.439 C 
HETATM   15  F1  UNK     1      19.271  -1.626  36.459  1.00  0.00    -0.164 F 
HETATM   16  F2  UNK     1      18.037   0.035  37.144  1.00  0.00    -0.164 F 
HETATM   17  F3  UNK     1      17.114  -1.675  36.156  1.00  0.00    -0.164 F 
ENDBRANCH  10  14
TORSDOF 1
ENDMDL
MODEL 4
REMARK VINA RESULT:      -7.2      2.579      3.634
REMARK  1 active torsions:
REMARK  status: ('A' for Active; 'I' for Inactive)
REMARK    1  A    between atoms: C12_17  and  C8_13 
ROOT
HETATM    1  O1  UNK     1      19.257  -0.190  31.307  1.00  0.00    -0.305 OA
HETATM    2  O2  UNK     1      21.218  -3.411  32.852  1.00  0.00    -0.287 OA
HETATM    3  C1  UNK     1      19.718  -1.601  33.231  1.00  0.00     0.054 A 
HETATM    4  C2  UNK     1      19.504  -1.885  34.582  1.00  0.00    -0.044 A 
HETATM    5  C3  UNK     1      19.084  -0.515  32.629  1.00  0.00     0.091 A 
HETATM    6  C4  UNK     1      18.011   0.014  34.726  1.00  0.00    -0.059 A 
HETATM    7  C5  UNK     1      18.647  -1.073  35.327  1.00  0.00     0.014 A 
HETATM    8  C6  UNK     1      18.228   0.295  33.377  1.00  0.00     0.045 A 
HETATM    9  C7  UNK     1      20.614  -2.439  32.420  1.00  0.00     0.188 A 
HETATM   10  C8  UNK     1      20.100  -0.978  30.541  1.00  0.00     0.163 A 
HETATM   11  C9  UNK     1      20.766  -2.046  31.005  1.00  0.00     0.098 A 
HETATM   12  C10 UNK     1      20.145  -3.029  35.297  1.00  0.00     0.049 C 
HETATM   13  C11 UNK     1      17.097   0.879  35.528  1.00  0.00     0.048 C 
ENDROOT
BRANCH  10  14
HETATM   14  C12 UNK     1      20.209  -0.528  29.117  1.00  0.00     0.439 C 
HETATM   15  F1  UNK     1      21.443  -0.766  28.627  1.00  0.00    -0.164 F 
HETATM   16  F2  UNK     1      19.321  -1.175  28.334  1.00  0.00    -0.164 F 
HETATM   17  F3  UNK     1      19.970   0.795  29.005  1.00  0.00    -0.164 F 
ENDBRANCH  10  14
TORSDOF 1
ENDMDL
MODEL 5
REMARK VINA RESULT:      -7.2      3.108      4.433
REMARK  1 active torsions:
REMARK  status: ('A' for Active; 'I' for Inactive)
REMARK    1  A    between atoms: C12_17  and  C8_13 
ROOT
HETATM    1  O1  UNK     1      18.880  -0.317  33.109  1.00  0.00    -0.305 OA
HETATM    2  O2  UNK     1      20.605  -3.443  35.072  1.00  0.00    -0.287 OA
HETATM    3  C1  UNK     1      19.175  -1.543  35.186  1.00  0.00     0.054 A 
HETATM    4  C2  UNK     1      18.880  -1.678  36.545  1.00  0.00    -0.044 A 
HETATM    5  C3  UNK     1      18.625  -0.498  34.445  1.00  0.00     0.091 A 
HETATM    6  C4  UNK     1      17.474   0.287  36.417  1.00  0.00    -0.059 A 
HETATM    7  C5  UNK     1      18.026  -0.759  37.157  1.00  0.00     0.014 A 
HETATM    8  C6  UNK     1      17.772   0.420  35.060  1.00  0.00     0.045 A 
HETATM    9  C7  UNK     1      20.071  -2.496  34.513  1.00  0.00     0.188 A 
HETATM   10  C8  UNK     1      19.722  -1.214  32.472  1.00  0.00     0.163 A 
HETATM   11  C9  UNK     1      20.312  -2.256  33.077  1.00  0.00     0.098 A 
HETATM   12  C10 UNK     1      19.429  -2.770  37.405  1.00  0.00     0.049 C 
HETATM   13  C11 UNK     1      16.563   1.267  37.078  1.00  0.00     0.048 C 
ENDROOT
BRANCH  10  14
HETATM   14  C12 UNK     1      19.924  -0.916  31.019  1.00  0.00     0.439 C 
HETATM   15  F1  UNK     1      19.015  -0.022  30.578  1.00  0.00    -0.164 F 
HETATM   16  F2  UNK     1      21.151  -0.401  30.796  1.00  0.00    -0.164 F 
HETATM   17  F3  UNK     1      19.802  -2.031  30.271  1.00  0.00    -0.164 F 
ENDBRANCH  10  14
TORSDOF 1
ENDMDL
MODEL 6
REMARK VINA RESULT:      -7.1      2.659      4.724
REMARK  1 active torsions:
REMARK  status: ('A' for Active; 'I' for Inactive)
REMARK    1  A    between atoms: C12_17  and  C8_13 
ROOT
HETATM    1  O1  UNK     1      18.578   1.045  31.511  1.00  0.00    -0.305 OA
HETATM    2  O2  UNK     1      20.866  -1.624  29.451  1.00  0.00    -0.287 OA
HETATM    3  C1  UNK     1      19.842  -1.030  31.516  1.00  0.00     0.054 A 
HETATM    4  C2  UNK     1      20.299  -2.148  32.219  1.00  0.00    -0.044 A 
HETATM    5  C3  UNK     1      19.055  -0.071  32.152  1.00  0.00     0.091 A 
HETATM    6  C4  UNK     1      19.172  -1.341  34.202  1.00  0.00    -0.059 A 
HETATM    7  C5  UNK     1      19.960  -2.300  33.564  1.00  0.00     0.014 A 
HETATM    8  C6  UNK     1      18.718  -0.225  33.498  1.00  0.00     0.045 A 
HETATM    9  C7  UNK     1      20.182  -0.843  30.098  1.00  0.00     0.188 A 
HETATM   10  C8  UNK     1      18.897   1.223  30.175  1.00  0.00     0.163 A 
HETATM   11  C9  UNK     1      19.645   0.373  29.456  1.00  0.00     0.098 A 
HETATM   12  C10 UNK     1      21.145  -3.218  31.608  1.00  0.00     0.049 C 
HETATM   13  C11 UNK     1      18.814  -1.509  35.641  1.00  0.00     0.048 C 
ENDROOT
BRANCH  10  14
HETATM   14  C12 UNK     1      18.321   2.473  29.585  1.00  0.00     0.439 C 
HETATM   15  F1  UNK     1      17.232   2.875  30.272  1.00  0.00    -0.164 F 
HETATM   16  F2  UNK     1      19.221   3.479  29.611  1.00  0.00    -0.164 F 
HETATM   17  F3  UNK     1      17.952   2.282  28.302  1.00  0.00    -0.164 F 
ENDBRANCH  10  14
TORSDOF 1
ENDMDL
MODEL 7
REMARK VINA RESULT:      -7.1      3.584      4.785
REMARK  1 active torsions:
REMARK  status: ('A' for Active; 'I' for Inactive)
REMARK    1  A    between atoms: C12_17  and  C8_13 
ROOT
HETATM    1  O1  UNK     1      18.625   0.232  33.232  1.00  0.00    -0.305 OA
HETATM    2  O2  UNK     1      20.709  -2.573  31.137  1.00  0.00    -0.287 OA
HETATM    3  C1  UNK     1      19.668  -0.432  31.141  1.00  0.00     0.054 A 
HETATM    4  C2  UNK     1      19.977  -0.130  29.813  1.00  0.00    -0.044 A 
HETATM    5  C3  UNK     1      18.956   0.476  31.923  1.00  0.00     0.091 A 
HETATM    6  C4  UNK     1      18.859   2.002  30.055  1.00  0.00    -0.059 A 
HETATM    7  C5  UNK     1      19.571   1.092  29.273  1.00  0.00     0.014 A 
HETATM    8  C6  UNK     1      18.550   1.696  31.381  1.00  0.00     0.045 A 
HETATM    9  C7  UNK     1      20.084  -1.710  31.737  1.00  0.00     0.188 A 
HETATM   10  C8  UNK     1      19.016  -0.971  33.797  1.00  0.00     0.163 A 
HETATM   11  C9  UNK     1      19.702  -1.924  33.147  1.00  0.00     0.098 A 
HETATM   12  C10 UNK     1      20.737  -1.049  28.911  1.00  0.00     0.049 C 
HETATM   13  C11 UNK     1      18.426   3.306  29.472  1.00  0.00     0.048 C 
ENDROOT
BRANCH  10  14
HETATM   14  C12 UNK     1      18.600  -1.124  35.227  1.00  0.00     0.439 C 
HETATM   15  F1  UNK     1      19.113  -2.250  35.763  1.00  0.00    -0.164 F 
HETATM   16  F2  UNK     1      19.025  -0.081  35.969  1.00  0.00    -0.164 F 
HETATM   17  F3  UNK     1      17.257  -1.190  35.339  1.00  0.00    -0.164 F 
ENDBRANCH  10  14
TORSDOF 1
ENDMDL
MODEL 8
REMARK VINA RESULT:      -7.1     23.099     24.712
REMARK  1 active torsions:
REMARK  status: ('A' for Active; 'I' for Inactive)
REMARK    1  A    between atoms: C12_17  and  C8_13 
ROOT
HETATM    1  O1  UNK     1      12.178   5.455   9.597  1.00  0.00    -0.305 OA
HETATM    2  O2  UNK     1      12.072   6.567   5.678  1.00  0.00    -0.287 OA
HETATM    3  C1  UNK     1      10.848   5.948   7.624  1.00  0.00     0.054 A 
HETATM    4  C2  UNK     1       9.588   6.051   7.029  1.00  0.00    -0.044 A 
HETATM    5  C3  UNK     1      10.968   5.572   8.961  1.00  0.00     0.091 A 
HETATM    6  C4  UNK     1       8.565   5.400   9.123  1.00  0.00    -0.059 A 
HETATM    7  C5  UNK     1       8.447   5.776   7.784  1.00  0.00     0.014 A 
HETATM    8  C6  UNK     1       9.825   5.297   9.714  1.00  0.00     0.045 A 
HETATM    9  C7  UNK     1      12.068   6.232   6.855  1.00  0.00     0.188 A 
HETATM   10  C8  UNK     1      13.329   5.723   8.874  1.00  0.00     0.163 A 
HETATM   11  C9  UNK     1      13.344   6.092   7.584  1.00  0.00     0.098 A 
HETATM   12  C10 UNK     1       9.378   6.448   5.604  1.00  0.00     0.049 C 
HETATM   13  C11 UNK     1       7.341   5.106   9.924  1.00  0.00     0.048 C 
ENDROOT
BRANCH  10  14
HETATM   14  C12 UNK     1      14.586   5.564   9.672  1.00  0.00     0.439 C 
HETATM   15  F1  UNK     1      14.616   4.367  10.293  1.00  0.00    -0.164 F 
HETATM   16  F2  UNK     1      15.676   5.646   8.880  1.00  0.00    -0.164 F 
HETATM   17  F3  UNK     1      14.689   6.521  10.617  1.00  0.00    -0.164 F 
ENDBRANCH  10  14
TORSDOF 1
ENDMDL
MODEL 9
REMARK VINA RESULT:      -7.0      3.293      4.882
REMARK  1 active torsions:
REMARK  status: ('A' for Active; 'I' for Inactive)
REMARK    1  A    between atoms: C12_17  and  C8_13 
ROOT
HETATM    1  O1  UNK     1      18.241   3.413  34.044  1.00  0.00    -0.305 OA
HETATM    2  O2  UNK     1      18.635   3.337  29.989  1.00  0.00    -0.287 OA
HETATM    3  C1  UNK     1      18.583   4.645  31.977  1.00  0.00     0.054 A 
HETATM    4  C2  UNK     1      18.783   5.870  31.338  1.00  0.00    -0.044 A 
HETATM    5  C3  UNK     1      18.439   4.588  33.363  1.00  0.00     0.091 A 
HETATM    6  C4  UNK     1      18.694   6.985  33.483  1.00  0.00    -0.059 A 
HETATM    7  C5  UNK     1      18.838   7.041  32.096  1.00  0.00     0.014 A 
HETATM    8  C6  UNK     1      18.494   5.760  34.119  1.00  0.00     0.045 A 
HETATM    9  C7  UNK     1      18.521   3.395  31.205  1.00  0.00     0.188 A 
HETATM   10  C8  UNK     1      18.183   2.234  33.318  1.00  0.00     0.163 A 
HETATM   11  C9  UNK     1      18.307   2.160  31.985  1.00  0.00     0.098 A 
HETATM   12  C10 UNK     1      18.947   6.013  29.859  1.00  0.00     0.049 C 
HETATM   13  C11 UNK     1      18.753   8.241  34.288  1.00  0.00     0.048 C 
ENDROOT
BRANCH  10  14
HETATM   14  C12 UNK     1      17.965   1.020  34.168  1.00  0.00     0.439 C 
HETATM   15  F1  UNK     1      18.362  -0.097  33.525  1.00  0.00    -0.164 F 
HETATM   16  F2  UNK     1      18.662   1.104  35.320  1.00  0.00    -0.164 F 
HETATM   17  F3  UNK     1      16.662   0.873  34.482  1.00  0.00    -0.164 F 
ENDBRANCH  10  14
TORSDOF 1
ENDMDL
MODEL 10
REMARK VINA RESULT:      -7.0      4.138      5.693
REMARK  1 active torsions:
REMARK  status: ('A' for Active; 'I' for Inactive)
REMARK    1  A    between atoms: C12_17  and  C8_13 
ROOT
HETATM    1  O1  UNK     1      18.533   0.207  33.091  1.00  0.00    -0.305 OA
HETATM    2  O2  UNK     1      20.343  -3.187  34.434  1.00  0.00    -0.287 OA
HETATM    3  C1  UNK     1      19.876  -1.755  32.591  1.00  0.00     0.054 A 
HETATM    4  C2  UNK     1      20.570  -2.518  31.649  1.00  0.00    -0.044 A 
HETATM    5  C3  UNK     1      19.229  -0.581  32.209  1.00  0.00     0.091 A 
HETATM    6  C4  UNK     1      19.967  -0.919  29.936  1.00  0.00    -0.059 A 
HETATM    7  C5  UNK     1      20.614  -2.094  30.320  1.00  0.00     0.014 A 
HETATM    8  C6  UNK     1      19.274  -0.160  30.879  1.00  0.00     0.045 A 
HETATM    9  C7  UNK     1      19.812  -2.175  33.999  1.00  0.00     0.188 A 
HETATM   10  C8  UNK     1      18.472  -0.186  34.418  1.00  0.00     0.163 A 
HETATM   11  C9  UNK     1      19.052  -1.294  34.906  1.00  0.00     0.098 A 
HETATM   12  C10 UNK     1      21.289  -3.786  31.980  1.00  0.00     0.049 C 
HETATM   13  C11 UNK     1      20.017  -0.473  28.513  1.00  0.00     0.048 C 
ENDROOT
BRANCH  10  14
HETATM   14  C12 UNK     1      17.688   0.751  35.284  1.00  0.00     0.439 C 
HETATM   15  F1  UNK     1      18.181   2.004  35.211  1.00  0.00    -0.164 F 
HETATM   16  F2  UNK     1      16.394   0.793  34.904  1.00  0.00    -0.164 F 
HETATM   17  F3  UNK     1      17.726   0.367  36.577  1.00  0.00    -0.164 F 
ENDBRANCH  10  14
TORSDOF 1
ENDMDL
