MODEL 1
REMARK VINA RESULT:      -7.8      0.000      0.000
REMARK  3 active torsions:
REMARK  status: ('A' for Active; 'I' for Inactive)
REMARK    1  A    between atoms: C9_13  and  O2_2 
REMARK    2  A    between atoms: C10_14  and  O3_3 
REMARK    3  A    between atoms: C3_7  and  C4_8 
ROOT
HETATM    1  O1  UNK     1      18.889   6.315  31.745  1.00  0.00    -0.309 OA
HETATM    2  O4  UNK     1      18.005   3.241  34.270  1.00  0.00    -0.287 OA
HETATM    3  C1  UNK     1      18.420   3.951  32.054  1.00  0.00     0.051 A 
HETATM    4  C2  UNK     1      18.721   5.047  31.247  1.00  0.00     0.090 A 
HETATM    5  C3  UNK     1      18.762   6.509  33.112  1.00  0.00     0.093 A 
HETATM    6  C5  UNK     1      18.274   4.156  33.503  1.00  0.00     0.187 A 
HETATM    7  C6  UNK     1      18.468   5.537  33.990  1.00  0.00     0.094 A 
HETATM    8  C7  UNK     1      18.258   2.683  31.492  1.00  0.00     0.055 A 
HETATM    9  C8  UNK     1      18.862   4.881  29.869  1.00  0.00     0.041 A 
HETATM   10  C10 UNK     1      18.400   2.519  30.113  1.00  0.00     0.069 A 
HETATM   11  C12 UNK     1      18.702   3.615  29.303  1.00  0.00     0.039 A 
ENDROOT
BRANCH   5  12
HETATM   12  C4  UNK     1      18.958   7.909  33.539  1.00  0.00     0.031 A 
HETATM   13  C11 UNK     1      20.187   8.289  34.087  1.00  0.00     0.017 A 
HETATM   14  C14 UNK     1      20.395   9.606  34.497  1.00  0.00     0.001 A 
HETATM   15  C15 UNK     1      19.377  10.549  34.362  1.00  0.00     0.003 A 
HETATM   16  C13 UNK     1      18.149  10.175  33.817  1.00  0.00     0.038 A 
HETATM   17  C9  UNK     1      17.940   8.858  33.406  1.00  0.00     0.081 A 
BRANCH  17  18
HETATM   18  O2  UNK     1      16.730   8.519  32.875  1.00  0.00    -0.355 OA
HETATM   19  C16 UNK     1      15.628   9.370  33.182  1.00  0.00     0.210 C 
ENDBRANCH  17  18
ENDBRANCH   5  12
BRANCH  10  20
HETATM   20  O3  UNK     1      18.245   1.287  29.556  1.00  0.00    -0.356 OA
HETATM   21  C17 UNK     1      19.427   0.618  29.120  1.00  0.00     0.210 C 
ENDBRANCH  10  20
TORSDOF 3
ENDMDL
MODEL 2
REMARK VINA RESULT:      -7.8     22.747     24.879
REMARK  3 active torsions:
REMARK  status: ('A' for Active; 'I' for Inactive)
REMARK    1  A    between atoms: C9_13  and  O2_2 
REMARK    2  A    between atoms: C10_14  and  O3_3 
REMARK    3  A    between atoms: C3_7  and  C4_8 
ROOT
HETATM    1  O1  UNK     1      12.937   8.381   8.169  1.00  0.00    -0.309 OA
HETATM    2  O4  UNK     1      14.881   5.773  10.623  1.00  0.00    -0.287 OA
HETATM    3  C1  UNK     1      14.896   7.855   9.506  1.00  0.00     0.051 A 
HETATM    4  C2  UNK     1      14.178   8.700   8.661  1.00  0.00     0.090 A 
HETATM    5  C3  UNK     1      12.372   7.169   8.537  1.00  0.00     0.093 A 
HETATM    6  C5  UNK     1      14.305   6.565   9.890  1.00  0.00     0.187 A 
HETATM    7  C6  UNK     1      12.967   6.270   9.338  1.00  0.00     0.094 A 
HETATM    8  C7  UNK     1      16.157   8.232   9.975  1.00  0.00     0.055 A 
HETATM    9  C8  UNK     1      14.717   9.929   8.279  1.00  0.00     0.041 A 
HETATM   10  C10 UNK     1      16.694   9.462   9.592  1.00  0.00     0.069 A 
HETATM   11  C12 UNK     1      15.976  10.308   8.746  1.00  0.00     0.039 A 
ENDROOT
BRANCH   5  12
HETATM   12  C4  UNK     1      11.040   6.926   7.950  1.00  0.00     0.031 A 
HETATM   13  C11 UNK     1      10.948   6.295   6.706  1.00  0.00     0.017 A 
HETATM   14  C14 UNK     1       9.699   6.055   6.131  1.00  0.00     0.001 A 
HETATM   15  C15 UNK     1       8.538   6.443   6.798  1.00  0.00     0.003 A 
HETATM   16  C13 UNK     1       8.624   7.073   8.039  1.00  0.00     0.038 A 
HETATM   17  C9  UNK     1       9.872   7.313   8.614  1.00  0.00     0.081 A 
BRANCH  17  18
HETATM   18  O2  UNK     1       9.928   7.931   9.829  1.00  0.00    -0.355 OA
HETATM   19  C16 UNK     1       9.318   9.215   9.930  1.00  0.00     0.210 C 
ENDBRANCH  17  18
ENDBRANCH   5  12
BRANCH  10  20
HETATM   20  O3  UNK     1      17.922   9.837  10.044  1.00  0.00    -0.356 OA
HETATM   21  C17 UNK     1      18.346  11.166   9.743  1.00  0.00     0.210 C 
ENDBRANCH  10  20
TORSDOF 3
ENDMDL
MODEL 3
REMARK VINA RESULT:      -7.6      9.195     11.558
REMARK  3 active torsions:
REMARK  status: ('A' for Active; 'I' for Inactive)
REMARK    1  A    between atoms: C9_13  and  O2_2 
REMARK    2  A    between atoms: C10_14  and  O3_3 
REMARK    3  A    between atoms: C3_7  and  C4_8 
ROOT
HETATM    1  O1  UNK     1      18.754  -4.448  36.458  1.00  0.00    -0.309 OA
HETATM    2  O4  UNK     1      22.405  -5.253  38.077  1.00  0.00    -0.287 OA
HETATM    3  C1  UNK     1      20.427  -6.091  37.093  1.00  0.00     0.051 A 
HETATM    4  C2  UNK     1      19.189  -5.747  36.553  1.00  0.00     0.090 A 
HETATM    5  C3  UNK     1      19.588  -3.438  36.912  1.00  0.00     0.093 A 
HETATM    6  C5  UNK     1      21.309  -5.023  37.586  1.00  0.00     0.187 A 
HETATM    7  C6  UNK     1      20.797  -3.643  37.458  1.00  0.00     0.094 A 
HETATM    8  C7  UNK     1      20.817  -7.431  37.166  1.00  0.00     0.055 A 
HETATM    9  C8  UNK     1      18.332  -6.741  36.080  1.00  0.00     0.041 A 
HETATM   10  C10 UNK     1      19.958  -8.423  36.693  1.00  0.00     0.069 A 
HETATM   11  C12 UNK     1      18.719  -8.080  36.151  1.00  0.00     0.039 A 
ENDROOT
BRANCH   5  12
HETATM   12  C4  UNK     1      19.021  -2.082  36.766  1.00  0.00     0.031 A 
HETATM   13  C11 UNK     1      18.255  -1.548  37.806  1.00  0.00     0.017 A 
HETATM   14  C14 UNK     1      17.709  -0.268  37.690  1.00  0.00     0.001 A 
HETATM   15  C15 UNK     1      17.927   0.481  36.535  1.00  0.00     0.003 A 
HETATM   16  C13 UNK     1      18.691  -0.048  35.494  1.00  0.00     0.038 A 
HETATM   17  C9  UNK     1      19.236  -1.326  35.609  1.00  0.00     0.081 A 
BRANCH  17  18
HETATM   18  O2  UNK     1      19.979  -1.820  34.577  1.00  0.00    -0.355 OA
HETATM   19  C16 UNK     1      19.433  -1.685  33.267  1.00  0.00     0.210 C 
ENDBRANCH  17  18
ENDBRANCH   5  12
BRANCH  10  20
HETATM   20  O3  UNK     1      20.330  -9.731  36.759  1.00  0.00    -0.356 OA
HETATM   21  C17 UNK     1      19.468 -10.616  37.474  1.00  0.00     0.210 C 
ENDBRANCH  10  20
TORSDOF 3
ENDMDL
MODEL 4
REMARK VINA RESULT:      -7.6      1.799      6.944
REMARK  3 active torsions:
REMARK  status: ('A' for Active; 'I' for Inactive)
REMARK    1  A    between atoms: C9_13  and  O2_2 
REMARK    2  A    between atoms: C10_14  and  O3_3 
REMARK    3  A    between atoms: C3_7  and  C4_8 
ROOT
HETATM    1  O1  UNK     1      16.903   5.711  32.467  1.00  0.00    -0.309 OA
HETATM    2  O4  UNK     1      19.997   7.963  33.867  1.00  0.00    -0.287 OA
HETATM    3  C1  UNK     1      17.659   7.671  33.688  1.00  0.00     0.051 A 
HETATM    4  C2  UNK     1      16.648   6.856  33.179  1.00  0.00     0.090 A 
HETATM    5  C3  UNK     1      18.224   5.347  32.254  1.00  0.00     0.093 A 
HETATM    6  C5  UNK     1      19.060   7.292  33.455  1.00  0.00     0.187 A 
HETATM    7  C6  UNK     1      19.282   6.051  32.686  1.00  0.00     0.094 A 
HETATM    8  C7  UNK     1      17.340   8.826  34.405  1.00  0.00     0.055 A 
HETATM    9  C8  UNK     1      15.310   7.193  33.384  1.00  0.00     0.041 A 
HETATM   10  C10 UNK     1      16.000   9.161  34.609  1.00  0.00     0.069 A 
HETATM   11  C12 UNK     1      14.988   8.346  34.101  1.00  0.00     0.039 A 
ENDROOT
BRANCH   5  12
HETATM   12  C4  UNK     1      18.384   4.103  31.474  1.00  0.00     0.031 A 
HETATM   13  C11 UNK     1      18.680   4.186  30.110  1.00  0.00     0.017 A 
HETATM   14  C14 UNK     1      18.835   3.023  29.354  1.00  0.00     0.001 A 
HETATM   15  C15 UNK     1      18.696   1.774  29.958  1.00  0.00     0.003 A 
HETATM   16  C13 UNK     1      18.402   1.686  31.318  1.00  0.00     0.038 A 
HETATM   17  C9  UNK     1      18.246   2.847  32.075  1.00  0.00     0.081 A 
BRANCH  17  18
HETATM   18  O2  UNK     1      17.958   2.733  33.403  1.00  0.00    -0.355 OA
HETATM   19  C16 UNK     1      18.220   1.472  34.015  1.00  0.00     0.210 C 
ENDBRANCH  17  18
ENDBRANCH   5  12
BRANCH  10  20
HETATM   20  O3  UNK     1      15.680  10.285  35.307  1.00  0.00    -0.356 OA
HETATM   21  C17 UNK     1      14.299  10.636  35.374  1.00  0.00     0.210 C 
ENDBRANCH  10  20
TORSDOF 3
ENDMDL
MODEL 5
REMARK VINA RESULT:      -7.5      2.124      7.456
REMARK  3 active torsions:
REMARK  status: ('A' for Active; 'I' for Inactive)
REMARK    1  A    between atoms: C9_13  and  O2_2 
REMARK    2  A    between atoms: C10_14  and  O3_3 
REMARK    3  A    between atoms: C3_7  and  C4_8 
ROOT
HETATM    1  O1  UNK     1      18.806   3.516  30.763  1.00  0.00    -0.309 OA
HETATM    2  O4  UNK     1      18.033   2.488  34.630  1.00  0.00    -0.287 OA
HETATM    3  C1  UNK     1      18.360   4.213  33.047  1.00  0.00     0.051 A 
HETATM    4  C2  UNK     1      18.629   4.495  31.709  1.00  0.00     0.090 A 
HETATM    5  C3  UNK     1      18.704   2.191  31.158  1.00  0.00     0.093 A 
HETATM    6  C5  UNK     1      18.261   2.808  33.471  1.00  0.00     0.187 A 
HETATM    7  C6  UNK     1      18.457   1.793  32.416  1.00  0.00     0.094 A 
HETATM    8  C7  UNK     1      18.189   5.251  33.967  1.00  0.00     0.055 A 
HETATM    9  C8  UNK     1      18.730   5.819  31.281  1.00  0.00     0.041 A 
HETATM   10  C10 UNK     1      18.290   6.574  33.536  1.00  0.00     0.069 A 
HETATM   11  C12 UNK     1      18.559   6.858  32.196  1.00  0.00     0.039 A 
ENDROOT
BRANCH   5  12
HETATM   12  C4  UNK     1      18.916   1.222  30.064  1.00  0.00     0.031 A 
HETATM   13  C11 UNK     1      18.126   1.307  28.914  1.00  0.00     0.017 A 
HETATM   14  C14 UNK     1      18.308   0.401  27.868  1.00  0.00     0.001 A 
HETATM   15  C15 UNK     1      19.281  -0.592  27.967  1.00  0.00     0.003 A 
HETATM   16  C13 UNK     1      20.073  -0.682  29.112  1.00  0.00     0.038 A 
HETATM   17  C9  UNK     1      19.891   0.223  30.158  1.00  0.00     0.081 A 
BRANCH  17  18
HETATM   18  O2  UNK     1      20.678   0.113  31.267  1.00  0.00    -0.355 OA
HETATM   19  C16 UNK     1      20.884  -1.199  31.785  1.00  0.00     0.210 C 
ENDBRANCH  17  18
ENDBRANCH   5  12
BRANCH  10  20
HETATM   20  O3  UNK     1      18.126   7.592  34.425  1.00  0.00    -0.356 OA
HETATM   21  C17 UNK     1      16.831   7.744  35.005  1.00  0.00     0.210 C 
ENDBRANCH  10  20
TORSDOF 3
ENDMDL
MODEL 6
REMARK VINA RESULT:      -7.5     23.674     25.591
REMARK  3 active torsions:
REMARK  status: ('A' for Active; 'I' for Inactive)
REMARK    1  A    between atoms: C9_13  and  O2_2 
REMARK    2  A    between atoms: C10_14  and  O3_3 
REMARK    3  A    between atoms: C3_7  and  C4_8 
ROOT
HETATM    1  O1  UNK     1       7.729   4.495   9.042  1.00  0.00    -0.309 OA
HETATM    2  O4  UNK     1       6.495   7.409  11.609  1.00  0.00    -0.287 OA
HETATM    3  C1  UNK     1       6.292   5.170  10.880  1.00  0.00     0.051 A 
HETATM    4  C2  UNK     1       6.758   4.221   9.972  1.00  0.00     0.090 A 
HETATM    5  C3  UNK     1       8.275   5.769   9.013  1.00  0.00     0.093 A 
HETATM    6  C5  UNK     1       6.861   6.525  10.845  1.00  0.00     0.187 A 
HETATM    7  C6  UNK     1       7.905   6.768   9.829  1.00  0.00     0.094 A 
HETATM    8  C7  UNK     1       5.299   4.835  11.805  1.00  0.00     0.055 A 
HETATM    9  C8  UNK     1       6.233   2.928   9.982  1.00  0.00     0.041 A 
HETATM   10  C10 UNK     1       4.777   3.541  11.813  1.00  0.00     0.069 A 
HETATM   11  C12 UNK     1       5.242   2.589  10.905  1.00  0.00     0.039 A 
ENDROOT
BRANCH   5  12
HETATM   12  C4  UNK     1       9.306   5.956   7.973  1.00  0.00     0.031 A 
HETATM   13  C11 UNK     1       8.911   6.243   6.664  1.00  0.00     0.017 A 
HETATM   14  C14 UNK     1       9.869   6.423   5.665  1.00  0.00     0.001 A 
HETATM   15  C15 UNK     1      11.225   6.317   5.971  1.00  0.00     0.003 A 
HETATM   16  C13 UNK     1      11.625   6.031   7.276  1.00  0.00     0.038 A 
HETATM   17  C9  UNK     1      10.668   5.851   8.275  1.00  0.00     0.081 A 
BRANCH  17  18
HETATM   18  O2  UNK     1      11.086   5.571   9.543  1.00  0.00    -0.355 OA
HETATM   19  C16 UNK     1      12.494   5.533   9.766  1.00  0.00     0.210 C 
ENDBRANCH  17  18
ENDBRANCH   5  12
BRANCH  10  20
HETATM   20  O3  UNK     1       3.809   3.205  12.710  1.00  0.00    -0.356 OA
HETATM   21  C17 UNK     1       4.224   2.495  13.876  1.00  0.00     0.210 C 
ENDBRANCH  10  20
TORSDOF 3
ENDMDL
MODEL 7
REMARK VINA RESULT:      -7.4      2.599      3.788
REMARK  3 active torsions:
REMARK  status: ('A' for Active; 'I' for Inactive)
REMARK    1  A    between atoms: C9_13  and  O2_2 
REMARK    2  A    between atoms: C10_14  and  O3_3 
REMARK    3  A    between atoms: C3_7  and  C4_8 
ROOT
HETATM    1  O1  UNK     1      18.396   4.146  34.518  1.00  0.00    -0.309 OA
HETATM    2  O4  UNK     1      18.136   2.090  31.011  1.00  0.00    -0.287 OA
HETATM    3  C1  UNK     1      18.330   2.010  33.365  1.00  0.00     0.051 A 
HETATM    4  C2  UNK     1      18.417   2.774  34.527  1.00  0.00     0.090 A 
HETATM    5  C3  UNK     1      18.274   4.797  33.300  1.00  0.00     0.093 A 
HETATM    6  C5  UNK     1      18.211   2.697  32.070  1.00  0.00     0.187 A 
HETATM    7  C6  UNK     1      18.189   4.173  32.115  1.00  0.00     0.094 A 
HETATM    8  C7  UNK     1      18.358   0.615  33.433  1.00  0.00     0.055 A 
HETATM    9  C8  UNK     1      18.533   2.147  35.768  1.00  0.00     0.041 A 
HETATM   10  C10 UNK     1      18.474  -0.010  34.676  1.00  0.00     0.069 A 
HETATM   11  C12 UNK     1      18.561   0.754  35.840  1.00  0.00     0.039 A 
ENDROOT
BRANCH   5  12
HETATM   12  C4  UNK     1      18.265   6.270  33.406  1.00  0.00     0.031 A 
HETATM   13  C11 UNK     1      19.361   6.919  33.982  1.00  0.00     0.017 A 
HETATM   14  C14 UNK     1      19.374   8.310  34.092  1.00  0.00     0.001 A 
HETATM   15  C15 UNK     1      18.293   9.058  33.627  1.00  0.00     0.003 A 
HETATM   16  C13 UNK     1      17.197   8.415  33.052  1.00  0.00     0.038 A 
HETATM   17  C9  UNK     1      17.183   7.025  32.941  1.00  0.00     0.081 A 
BRANCH  17  18
HETATM   18  O2  UNK     1      16.098   6.421  32.375  1.00  0.00    -0.355 OA
HETATM   19  C16 UNK     1      14.991   7.257  32.049  1.00  0.00     0.210 C 
ENDBRANCH  17  18
ENDBRANCH   5  12
BRANCH  10  20
HETATM   20  O3  UNK     1      18.503  -1.369  34.753  1.00  0.00    -0.356 OA
HETATM   21  C17 UNK     1      19.580  -1.956  35.482  1.00  0.00     0.210 C 
ENDBRANCH  10  20
TORSDOF 3
ENDMDL
MODEL 8
REMARK VINA RESULT:      -7.4     22.670     24.697
REMARK  3 active torsions:
REMARK  status: ('A' for Active; 'I' for Inactive)
REMARK    1  A    between atoms: C9_13  and  O2_2 
REMARK    2  A    between atoms: C10_14  and  O3_3 
REMARK    3  A    between atoms: C3_7  and  C4_8 
ROOT
HETATM    1  O1  UNK     1      13.554   8.063   7.914  1.00  0.00    -0.309 OA
HETATM    2  O4  UNK     1      10.498   9.132  10.388  1.00  0.00    -0.287 OA
HETATM    3  C1  UNK     1      11.236   7.790   8.589  1.00  0.00     0.051 A 
HETATM    4  C2  UNK     1      12.323   7.473   7.775  1.00  0.00     0.090 A 
HETATM    5  C3  UNK     1      13.724   9.010   8.913  1.00  0.00     0.093 A 
HETATM    6  C5  UNK     1      11.410   8.801   9.642  1.00  0.00     0.187 A 
HETATM    7  C6  UNK     1      12.754   9.404   9.753  1.00  0.00     0.094 A 
HETATM    8  C7  UNK     1      10.005   7.157   8.401  1.00  0.00     0.055 A 
HETATM    9  C8  UNK     1      12.185   6.519   6.766  1.00  0.00     0.041 A 
HETATM   10  C10 UNK     1       9.870   6.203   7.391  1.00  0.00     0.069 A 
HETATM   11  C12 UNK     1      10.957   5.884   6.576  1.00  0.00     0.039 A 
ENDROOT
BRANCH   5  12
HETATM   12  C4  UNK     1      15.083   9.583   8.971  1.00  0.00     0.031 A 
HETATM   13  C11 UNK     1      15.367  10.740   8.240  1.00  0.00     0.017 A 
HETATM   14  C14 UNK     1      16.645  11.299   8.279  1.00  0.00     0.001 A 
HETATM   15  C15 UNK     1      17.643  10.705   9.051  1.00  0.00     0.003 A 
HETATM   16  C13 UNK     1      17.365   9.551   9.783  1.00  0.00     0.038 A 
HETATM   17  C9  UNK     1      16.088   8.991   9.744  1.00  0.00     0.081 A 
BRANCH  17  18
HETATM   18  O2  UNK     1      15.842   7.862  10.469  1.00  0.00    -0.355 OA
HETATM   19  C16 UNK     1      16.423   6.650   9.994  1.00  0.00     0.210 C 
ENDBRANCH  17  18
ENDBRANCH   5  12
BRANCH  10  20
HETATM   20  O3  UNK     1       8.674   5.582   7.200  1.00  0.00    -0.356 OA
HETATM   21  C17 UNK     1       7.846   5.400   8.349  1.00  0.00     0.210 C 
ENDBRANCH  10  20
TORSDOF 3
ENDMDL
MODEL 9
REMARK VINA RESULT:      -7.4      2.129      3.875
REMARK  3 active torsions:
REMARK  status: ('A' for Active; 'I' for Inactive)
REMARK    1  A    between atoms: C9_13  and  O2_2 
REMARK    2  A    between atoms: C10_14  and  O3_3 
REMARK    3  A    between atoms: C3_7  and  C4_8 
ROOT
HETATM    1  O1  UNK     1      18.000   3.519  33.229  1.00  0.00    -0.309 OA
HETATM    2  O4  UNK     1      19.081   2.557  29.420  1.00  0.00    -0.287 OA
HETATM    3  C1  UNK     1      18.678   1.821  31.629  1.00  0.00     0.051 A 
HETATM    4  C2  UNK     1      18.303   2.218  32.912  1.00  0.00     0.090 A 
HETATM    5  C3  UNK     1      18.061   4.475  32.227  1.00  0.00     0.093 A 
HETATM    6  C5  UNK     1      18.754   2.834  30.566  1.00  0.00     0.187 A 
HETATM    7  C6  UNK     1      18.415   4.217  30.957  1.00  0.00     0.094 A 
HETATM    8  C7  UNK     1      18.976   0.482  31.364  1.00  0.00     0.055 A 
HETATM    9  C8  UNK     1      18.225   1.278  33.939  1.00  0.00     0.041 A 
HETATM   10  C10 UNK     1      18.897  -0.457  32.394  1.00  0.00     0.069 A 
HETATM   11  C12 UNK     1      18.522  -0.060  33.678  1.00  0.00     0.039 A 
ENDROOT
BRANCH   5  12
HETATM   12  C4  UNK     1      17.721   5.839  32.677  1.00  0.00     0.031 A 
HETATM   13  C11 UNK     1      16.456   6.357  32.385  1.00  0.00     0.017 A 
HETATM   14  C14 UNK     1      16.112   7.644  32.800  1.00  0.00     0.001 A 
HETATM   15  C15 UNK     1      17.030   8.418  33.509  1.00  0.00     0.003 A 
HETATM   16  C13 UNK     1      18.293   7.905  33.803  1.00  0.00     0.038 A 
HETATM   17  C9  UNK     1      18.638   6.619  33.389  1.00  0.00     0.081 A 
BRANCH  17  18
HETATM   18  O2  UNK     1      19.880   6.141  33.689  1.00  0.00    -0.355 OA
HETATM   19  C16 UNK     1      20.943   6.513  32.815  1.00  0.00     0.210 C 
ENDBRANCH  17  18
ENDBRANCH   5  12
BRANCH  10  20
HETATM   20  O3  UNK     1      19.186  -1.763  32.144  1.00  0.00    -0.356 OA
HETATM   21  C17 UNK     1      20.013  -2.041  31.015  1.00  0.00     0.210 C 
ENDBRANCH  10  20
TORSDOF 3
ENDMDL
MODEL 10
REMARK VINA RESULT:      -7.3      7.790     11.110
REMARK  3 active torsions:
REMARK  status: ('A' for Active; 'I' for Inactive)
REMARK    1  A    between atoms: C9_13  and  O2_2 
REMARK    2  A    between atoms: C10_14  and  O3_3 
REMARK    3  A    between atoms: C3_7  and  C4_8 
ROOT
HETATM    1  O1  UNK     1      20.317  -3.532  34.944  1.00  0.00    -0.309 OA
HETATM    2  O4  UNK     1      17.781  -0.683  36.375  1.00  0.00    -0.287 OA
HETATM    3  C1  UNK     1      19.042  -1.502  34.552  1.00  0.00     0.051 A 
HETATM    4  C2  UNK     1      19.909  -2.508  34.127  1.00  0.00     0.090 A 
HETATM    5  C3  UNK     1      19.838  -3.572  36.244  1.00  0.00     0.093 A 
HETATM    6  C5  UNK     1      18.540  -1.535  35.933  1.00  0.00     0.187 A 
HETATM    7  C6  UNK     1      19.006  -2.659  36.771  1.00  0.00     0.094 A 
HETATM    8  C7  UNK     1      18.661  -0.482  33.677  1.00  0.00     0.055 A 
HETATM    9  C8  UNK     1      20.402  -2.499  32.822  1.00  0.00     0.041 A 
HETATM   10  C10 UNK     1      19.155  -0.476  32.371  1.00  0.00     0.069 A 
HETATM   11  C12 UNK     1      20.023  -1.482  31.945  1.00  0.00     0.039 A 
ENDROOT
BRANCH   5  12
HETATM   12  C4  UNK     1      20.343  -4.712  37.035  1.00  0.00     0.031 A 
HETATM   13  C11 UNK     1      21.546  -4.577  37.734  1.00  0.00     0.017 A 
HETATM   14  C14 UNK     1      22.042  -5.642  38.488  1.00  0.00     0.001 A 
HETATM   15  C15 UNK     1      21.338  -6.844  38.546  1.00  0.00     0.003 A 
HETATM   16  C13 UNK     1      20.138  -6.983  37.850  1.00  0.00     0.038 A 
HETATM   17  C9  UNK     1      19.641  -5.920  37.096  1.00  0.00     0.081 A 
BRANCH  17  18
HETATM   18  O2  UNK     1      18.465  -6.083  36.425  1.00  0.00    -0.355 OA
HETATM   19  C16 UNK     1      18.326  -7.266  35.642  1.00  0.00     0.210 C 
ENDBRANCH  17  18
ENDBRANCH   5  12
BRANCH  10  20
HETATM   20  O3  UNK     1      18.789   0.514  31.512  1.00  0.00    -0.356 OA
HETATM   21  C17 UNK     1      19.548   0.643  30.310  1.00  0.00     0.210 C 
ENDBRANCH  10  20
TORSDOF 3
ENDMDL
