MODEL 1
REMARK VINA RESULT:     -10.7      0.000      0.000
REMARK  2 active torsions:
REMARK  status: ('A' for Active; 'I' for Inactive)
REMARK    1  A    between atoms: C7_11  and  N1_4 
REMARK    2  A    between atoms: C11_15  and  C9_13 
ROOT
HETATM    1  O1  UNK     1      18.279   6.601  30.373  1.00  0.00    -0.331 OA
HETATM    2  O2  UNK     1      17.787   3.092  33.642  1.00  0.00    -0.274 OA
HETATM    3  O3  UNK     1      17.585   1.417  35.183  1.00  0.00    -0.260 OA
HETATM    4  N1  UNK     1      17.138   7.151  32.455  1.00  0.00    -0.354 N 
HETATM    5  C1  UNK     1      17.457   5.845  33.036  1.00  0.00     0.169 C 
HETATM    6  C2  UNK     1      17.996   4.867  32.029  1.00  0.00     0.028 A 
HETATM    7  C3  UNK     1      18.394   5.298  30.766  1.00  0.00     0.081 A 
HETATM    8  C4  UNK     1      18.180   3.512  32.352  1.00  0.00     0.101 A 
HETATM    9  C5  UNK     1      17.185   7.289  31.002  1.00  0.00     0.301 C 
HETATM   10  C6  UNK     1      18.739   2.597  31.457  1.00  0.00     0.010 A 
HETATM   11  C8  UNK     1      18.976   4.410  29.859  1.00  0.00     0.038 A 
HETATM   12  C9  UNK     1      18.897   1.191  31.862  1.00  0.00    -0.007 A 
HETATM   13  C10 UNK     1      19.140   3.066  30.201  1.00  0.00     0.018 A 
HETATM   14  C14 UNK     1      18.504   0.832  33.095  1.00  0.00     0.095 A 
HETATM   15  C15 UNK     1      17.926   1.780  34.063  1.00  0.00     0.289 A 
ENDROOT
BRANCH   4  16
HETATM   16  C7  UNK     1      16.465   8.094  33.243  1.00  0.00     0.032 A 
HETATM   17  C12 UNK     1      17.128   9.234  33.750  1.00  0.00     0.030 A 
HETATM   18  C16 UNK     1      16.458  10.174  34.534  1.00  0.00     0.009 A 
HETATM   19  C18 UNK     1      15.106   9.998  34.830  1.00  0.00    -0.062 A 
HETATM   20  C17 UNK     1      14.425   8.883  34.343  1.00  0.00     0.009 A 
HETATM   21  C21 UNK     1      14.389  11.002  35.667  1.00  0.00     0.048 C 
HETATM   22  C13 UNK     1      15.096   7.942  33.559  1.00  0.00     0.030 A 
ENDBRANCH   4  16
BRANCH  12  23
HETATM   23  C11 UNK     1      19.453   0.112  31.021  1.00  0.00    -0.025 A 
HETATM   24  C19 UNK     1      19.739   0.356  29.680  1.00  0.00     0.012 A 
HETATM   25  C22 UNK     1      20.266  -0.663  28.887  1.00  0.00     0.001 A 
HETATM   26  C24 UNK     1      20.506  -1.922  29.438  1.00  0.00     0.000 A 
HETATM   27  C23 UNK     1      20.219  -2.161  30.782  1.00  0.00     0.001 A 
HETATM   28  C20 UNK     1      19.691  -1.142  31.574  1.00  0.00     0.012 A 
ENDBRANCH  12  23
TORSDOF 2
ENDMDL
MODEL 2
REMARK VINA RESULT:     -10.1      4.761      7.277
REMARK  2 active torsions:
REMARK  status: ('A' for Active; 'I' for Inactive)
REMARK    1  A    between atoms: C7_11  and  N1_4 
REMARK    2  A    between atoms: C11_15  and  C9_13 
ROOT
HETATM    1  O1  UNK     1      17.297   1.198  36.672  1.00  0.00    -0.331 OA
HETATM    2  O2  UNK     1      19.908  -1.776  33.920  1.00  0.00    -0.274 OA
HETATM    3  O3  UNK     1      21.125  -3.213  32.625  1.00  0.00    -0.260 OA
HETATM    4  N1  UNK     1      18.124   2.061  34.549  1.00  0.00    -0.354 N 
HETATM    5  C1  UNK     1      18.624   0.744  34.148  1.00  0.00     0.169 C 
HETATM    6  C2  UNK     1      18.624  -0.254  35.273  1.00  0.00     0.028 A 
HETATM    7  C3  UNK     1      17.948   0.016  36.460  1.00  0.00     0.081 A 
HETATM    8  C4  UNK     1      19.240  -1.509  35.136  1.00  0.00     0.101 A 
HETATM    9  C5  UNK     1      17.885   2.305  35.969  1.00  0.00     0.301 C 
HETATM   10  C6  UNK     1      19.198  -2.478  36.141  1.00  0.00     0.010 A 
HETATM   11  C8  UNK     1      17.871  -0.942  37.472  1.00  0.00     0.038 A 
HETATM   12  C9  UNK     1      19.872  -3.770  35.930  1.00  0.00    -0.007 A 
HETATM   13  C10 UNK     1      18.499  -2.179  37.315  1.00  0.00     0.018 A 
HETATM   14  C14 UNK     1      20.501  -3.981  34.762  1.00  0.00     0.095 A 
HETATM   15  C15 UNK     1      20.546  -2.981  33.681  1.00  0.00     0.289 A 
ENDROOT
BRANCH   4  16
HETATM   16  C7  UNK     1      18.236   3.128  33.648  1.00  0.00     0.032 A 
HETATM   17  C12 UNK     1      18.392   4.458  34.100  1.00  0.00     0.030 A 
HETATM   18  C16 UNK     1      18.504   5.521  33.204  1.00  0.00     0.009 A 
HETATM   19  C18 UNK     1      18.463   5.281  31.831  1.00  0.00    -0.062 A 
HETATM   20  C17 UNK     1      18.311   3.979  31.354  1.00  0.00     0.009 A 
HETATM   21  C21 UNK     1      18.584   6.417  30.872  1.00  0.00     0.048 C 
HETATM   22  C13 UNK     1      18.198   2.917  32.251  1.00  0.00     0.030 A 
ENDBRANCH   4  16
BRANCH  12  23
HETATM   23  C11 UNK     1      19.926  -4.879  36.903  1.00  0.00    -0.025 A 
HETATM   24  C19 UNK     1      18.917  -5.838  36.918  1.00  0.00     0.012 A 
HETATM   25  C22 UNK     1      18.970  -6.886  37.838  1.00  0.00     0.001 A 
HETATM   26  C24 UNK     1      20.032  -6.971  38.737  1.00  0.00     0.000 A 
HETATM   27  C23 UNK     1      21.041  -6.008  38.719  1.00  0.00     0.001 A 
HETATM   28  C20 UNK     1      20.987  -4.960  37.800  1.00  0.00     0.012 A 
ENDBRANCH  12  23
TORSDOF 2
ENDMDL
MODEL 3
REMARK VINA RESULT:      -9.9      5.335     10.277
REMARK  2 active torsions:
REMARK  status: ('A' for Active; 'I' for Inactive)
REMARK    1  A    between atoms: C7_11  and  N1_4 
REMARK    2  A    between atoms: C11_15  and  C9_13 
ROOT
HETATM    1  O1  UNK     1      18.666  -1.284  36.586  1.00  0.00    -0.331 OA
HETATM    2  O2  UNK     1      20.373  -2.606  32.276  1.00  0.00    -0.274 OA
HETATM    3  O3  UNK     1      21.193  -3.199  30.227  1.00  0.00    -0.260 OA
HETATM    4  N1  UNK     1      19.649  -3.506  36.395  1.00  0.00    -0.354 N 
HETATM    5  C1  UNK     1      20.104  -3.245  35.027  1.00  0.00     0.169 C 
HETATM    6  C2  UNK     1      19.516  -1.991  34.440  1.00  0.00     0.028 A 
HETATM    7  C3  UNK     1      18.850  -1.075  35.249  1.00  0.00     0.081 A 
HETATM    8  C4  UNK     1      19.681  -1.674  33.081  1.00  0.00     0.101 A 
HETATM    9  C5  UNK     1      18.576  -2.675  36.935  1.00  0.00     0.301 C 
HETATM   10  C6  UNK     1      19.201  -0.486  32.525  1.00  0.00     0.010 A 
HETATM   11  C8  UNK     1      18.380   0.131  34.725  1.00  0.00     0.038 A 
HETATM   12  C9  UNK     1      19.406  -0.222  31.091  1.00  0.00    -0.007 A 
HETATM   13  C10 UNK     1      18.549   0.419  33.369  1.00  0.00     0.018 A 
HETATM   14  C14 UNK     1      20.063  -1.137  30.360  1.00  0.00     0.095 A 
HETATM   15  C15 UNK     1      20.592  -2.390  30.925  1.00  0.00     0.289 A 
ENDROOT
BRANCH   4  16
HETATM   16  C7  UNK     1      19.979  -4.729  36.994  1.00  0.00     0.032 A 
HETATM   17  C12 UNK     1      19.107  -5.839  36.926  1.00  0.00     0.030 A 
HETATM   18  C16 UNK     1      19.436  -7.057  37.522  1.00  0.00     0.009 A 
HETATM   19  C18 UNK     1      20.646  -7.196  38.201  1.00  0.00    -0.062 A 
HETATM   20  C17 UNK     1      21.527  -6.118  38.284  1.00  0.00     0.009 A 
HETATM   21  C21 UNK     1      20.998  -8.498  38.837  1.00  0.00     0.048 C 
HETATM   22  C13 UNK     1      21.198  -4.900  37.689  1.00  0.00     0.030 A 
ENDBRANCH   4  16
BRANCH  12  23
HETATM   23  C11 UNK     1      18.943   0.976  30.364  1.00  0.00    -0.025 A 
HETATM   24  C19 UNK     1      18.338   0.840  29.118  1.00  0.00     0.012 A 
HETATM   25  C22 UNK     1      17.900   1.973  28.432  1.00  0.00     0.001 A 
HETATM   26  C24 UNK     1      18.068   3.238  28.996  1.00  0.00     0.000 A 
HETATM   27  C23 UNK     1      18.675   3.369  30.245  1.00  0.00     0.001 A 
HETATM   28  C20 UNK     1      19.113   2.236  30.929  1.00  0.00     0.012 A 
ENDBRANCH  12  23
TORSDOF 2
ENDMDL
MODEL 4
REMARK VINA RESULT:      -9.5     15.429     17.285
REMARK  2 active torsions:
REMARK  status: ('A' for Active; 'I' for Inactive)
REMARK    1  A    between atoms: C7_11  and  N1_4 
REMARK    2  A    between atoms: C11_15  and  C9_13 
ROOT
HETATM    1  O1  UNK     1      27.064  -9.500  36.040  1.00  0.00    -0.331 OA
HETATM    2  O2  UNK     1      28.346  -5.575  38.528  1.00  0.00    -0.274 OA
HETATM    3  O3  UNK     1      28.974  -3.704  39.680  1.00  0.00    -0.260 OA
HETATM    4  N1  UNK     1      25.380  -8.470  37.469  1.00  0.00    -0.354 N 
HETATM    5  C1  UNK     1      26.252  -7.331  37.766  1.00  0.00     0.169 C 
HETATM    6  C2  UNK     1      27.672  -7.543  37.317  1.00  0.00     0.028 A 
HETATM    7  C3  UNK     1      27.996  -8.598  36.468  1.00  0.00     0.081 A 
HETATM    8  C4  UNK     1      28.693  -6.650  37.679  1.00  0.00     0.101 A 
HETATM    9  C5  UNK     1      25.996  -9.701  36.981  1.00  0.00     0.301 C 
HETATM   10  C6  UNK     1      30.006  -6.788  37.223  1.00  0.00     0.010 A 
HETATM   11  C8  UNK     1      29.295  -8.747  35.978  1.00  0.00     0.038 A 
HETATM   12  C9  UNK     1      31.027  -5.816  37.649  1.00  0.00    -0.007 A 
HETATM   13  C10 UNK     1      30.295  -7.850  36.361  1.00  0.00     0.018 A 
HETATM   14  C14 UNK     1      30.656  -4.813  38.461  1.00  0.00     0.095 A 
HETATM   15  C15 UNK     1      29.276  -4.637  38.944  1.00  0.00     0.289 A 
ENDROOT
BRANCH   4  16
HETATM   16  C7  UNK     1      24.079  -8.478  37.990  1.00  0.00     0.032 A 
HETATM   17  C12 UNK     1      23.818  -8.078  39.320  1.00  0.00     0.030 A 
HETATM   18  C16 UNK     1      22.523  -8.085  39.838  1.00  0.00     0.009 A 
HETATM   19  C18 UNK     1      21.455  -8.492  39.039  1.00  0.00    -0.062 A 
HETATM   20  C17 UNK     1      21.681  -8.891  37.722  1.00  0.00     0.009 A 
HETATM   21  C21 UNK     1      20.070  -8.499  39.593  1.00  0.00     0.048 C 
HETATM   22  C13 UNK     1      22.977  -8.885  37.204  1.00  0.00     0.030 A 
ENDBRANCH   4  16
BRANCH  12  23
HETATM   23  C11 UNK     1      32.452  -5.843  37.263  1.00  0.00    -0.025 A 
HETATM   24  C19 UNK     1      33.321  -6.737  37.882  1.00  0.00     0.012 A 
HETATM   25  C22 UNK     1      34.667  -6.762  37.516  1.00  0.00     0.001 A 
HETATM   26  C24 UNK     1      35.138  -5.894  36.530  1.00  0.00     0.000 A 
HETATM   27  C23 UNK     1      34.263  -5.000  35.912  1.00  0.00     0.001 A 
HETATM   28  C20 UNK     1      32.918  -4.975  36.280  1.00  0.00     0.012 A 
ENDBRANCH  12  23
TORSDOF 2
ENDMDL
MODEL 5
REMARK VINA RESULT:      -9.4      4.549      6.918
REMARK  2 active torsions:
REMARK  status: ('A' for Active; 'I' for Inactive)
REMARK    1  A    between atoms: C7_11  and  N1_4 
REMARK    2  A    between atoms: C11_15  and  C9_13 
ROOT
HETATM    1  O1  UNK     1      16.184  12.236  35.169  1.00  0.00    -0.331 OA
HETATM    2  O2  UNK     1      14.533   8.336  32.867  1.00  0.00    -0.274 OA
HETATM    3  O3  UNK     1      13.775   6.467  31.791  1.00  0.00    -0.260 OA
HETATM    4  N1  UNK     1      13.776  12.056  34.838  1.00  0.00    -0.354 N 
HETATM    5  C1  UNK     1      13.897  10.697  34.306  1.00  0.00     0.169 C 
HETATM    6  C2  UNK     1      15.318  10.307  34.004  1.00  0.00     0.028 A 
HETATM    7  C3  UNK     1      16.379  11.082  34.465  1.00  0.00     0.081 A 
HETATM    8  C4  UNK     1      15.619   9.121  33.314  1.00  0.00     0.101 A 
HETATM    9  C5  UNK     1      14.961  12.910  34.826  1.00  0.00     0.301 C 
HETATM   10  C6  UNK     1      16.931   8.703  33.078  1.00  0.00     0.010 A 
HETATM   11  C8  UNK     1      17.700  10.677  34.263  1.00  0.00     0.038 A 
HETATM   12  C9  UNK     1      17.171   7.450  32.343  1.00  0.00    -0.007 A 
HETATM   13  C10 UNK     1      17.973   9.498  33.567  1.00  0.00     0.018 A 
HETATM   14  C14 UNK     1      16.111   6.738  31.929  1.00  0.00     0.095 A 
HETATM   15  C15 UNK     1      14.718   7.148  32.179  1.00  0.00     0.289 A 
ENDROOT
BRANCH   4  16
HETATM   16  C7  UNK     1      12.498  12.608  34.994  1.00  0.00     0.032 A 
HETATM   17  C12 UNK     1      11.925  12.783  36.274  1.00  0.00     0.030 A 
HETATM   18  C16 UNK     1      10.653  13.333  36.431  1.00  0.00     0.009 A 
HETATM   19  C18 UNK     1       9.920  13.723  35.310  1.00  0.00    -0.062 A 
HETATM   20  C17 UNK     1      10.459  13.564  34.034  1.00  0.00     0.009 A 
HETATM   21  C21 UNK     1       8.560  14.312  35.477  1.00  0.00     0.048 C 
HETATM   22  C13 UNK     1      11.731  13.013  33.878  1.00  0.00     0.030 A 
ENDBRANCH   4  16
BRANCH  12  23
HETATM   23  C11 UNK     1      18.496   6.893  32.006  1.00  0.00    -0.025 A 
HETATM   24  C19 UNK     1      19.498   6.855  32.972  1.00  0.00     0.012 A 
HETATM   25  C22 UNK     1      20.749   6.327  32.654  1.00  0.00     0.001 A 
HETATM   26  C24 UNK     1      20.994   5.839  31.370  1.00  0.00     0.000 A 
HETATM   27  C23 UNK     1      19.987   5.880  30.405  1.00  0.00     0.001 A 
HETATM   28  C20 UNK     1      18.737   6.408  30.724  1.00  0.00     0.012 A 
ENDBRANCH  12  23
TORSDOF 2
ENDMDL
MODEL 6
REMARK VINA RESULT:      -9.2      3.432      6.094
REMARK  2 active torsions:
REMARK  status: ('A' for Active; 'I' for Inactive)
REMARK    1  A    between atoms: C7_11  and  N1_4 
REMARK    2  A    between atoms: C11_15  and  C9_13 
ROOT
HETATM    1  O1  UNK     1      13.747  10.178  33.302  1.00  0.00    -0.331 OA
HETATM    2  O2  UNK     1      18.434   9.468  34.174  1.00  0.00    -0.274 OA
HETATM    3  O3  UNK     1      20.661   9.121  34.555  1.00  0.00    -0.260 OA
HETATM    4  N1  UNK     1      14.871  11.758  34.778  1.00  0.00    -0.354 N 
HETATM    5  C1  UNK     1      16.181  11.161  34.507  1.00  0.00     0.169 C 
HETATM    6  C2  UNK     1      16.090   9.847  33.779  1.00  0.00     0.028 A 
HETATM    7  C3  UNK     1      14.891   9.438  33.202  1.00  0.00     0.081 A 
HETATM    8  C4  UNK     1      17.220   9.033  33.598  1.00  0.00     0.101 A 
HETATM    9  C5  UNK     1      13.679  10.959  34.507  1.00  0.00     0.301 C 
HETATM   10  C6  UNK     1      17.177   7.842  32.870  1.00  0.00     0.010 A 
HETATM   11  C8  UNK     1      14.823   8.264  32.450  1.00  0.00     0.038 A 
HETATM   12  C9  UNK     1      18.400   7.035  32.726  1.00  0.00    -0.007 A 
HETATM   13  C10 UNK     1      15.959   7.467  32.293  1.00  0.00     0.018 A 
HETATM   14  C14 UNK     1      19.531   7.482  33.296  1.00  0.00     0.095 A 
HETATM   15  C15 UNK     1      19.607   8.742  34.055  1.00  0.00     0.289 A 
ENDROOT
BRANCH   4  16
HETATM   16  C7  UNK     1      14.803  12.889  35.602  1.00  0.00     0.032 A 
HETATM   17  C12 UNK     1      15.557  14.051  35.320  1.00  0.00     0.030 A 
HETATM   18  C16 UNK     1      15.489  15.177  36.140  1.00  0.00     0.009 A 
HETATM   19  C18 UNK     1      14.664  15.171  37.264  1.00  0.00    -0.062 A 
HETATM   20  C17 UNK     1      13.907  14.040  37.569  1.00  0.00     0.009 A 
HETATM   21  C21 UNK     1      14.590  16.375  38.141  1.00  0.00     0.048 C 
HETATM   22  C13 UNK     1      13.976  12.913  36.748  1.00  0.00     0.030 A 
ENDBRANCH   4  16
BRANCH  12  23
HETATM   23  C11 UNK     1      18.503   5.752  32.003  1.00  0.00    -0.025 A 
HETATM   24  C19 UNK     1      18.099   4.573  32.624  1.00  0.00     0.012 A 
HETATM   25  C22 UNK     1      18.195   3.361  31.939  1.00  0.00     0.001 A 
HETATM   26  C24 UNK     1      18.694   3.334  30.637  1.00  0.00     0.000 A 
HETATM   27  C23 UNK     1      19.097   4.518  30.019  1.00  0.00     0.001 A 
HETATM   28  C20 UNK     1      19.001   5.729  30.704  1.00  0.00     0.012 A 
ENDBRANCH  12  23
TORSDOF 2
ENDMDL
MODEL 7
REMARK VINA RESULT:      -9.0     22.433     24.984
REMARK  2 active torsions:
REMARK  status: ('A' for Active; 'I' for Inactive)
REMARK    1  A    between atoms: C7_11  and  N1_4 
REMARK    2  A    between atoms: C11_15  and  C9_13 
ROOT
HETATM    1  O1  UNK     1      15.212   6.608   9.954  1.00  0.00    -0.331 OA
HETATM    2  O2  UNK     1      15.304  11.096   8.199  1.00  0.00    -0.274 OA
HETATM    3  O3  UNK     1      15.382  13.221   7.361  1.00  0.00    -0.260 OA
HETATM    4  N1  UNK     1      13.275   7.361   8.680  1.00  0.00    -0.354 N 
HETATM    5  C1  UNK     1      13.943   8.609   8.303  1.00  0.00     0.169 C 
HETATM    6  C2  UNK     1      15.211   8.856   9.074  1.00  0.00     0.028 A 
HETATM    7  C3  UNK     1      15.784   7.842   9.838  1.00  0.00     0.081 A 
HETATM    8  C4  UNK     1      15.889  10.083   8.991  1.00  0.00     0.101 A 
HETATM    9  C5  UNK     1      13.779   6.634   9.843  1.00  0.00     0.301 C 
HETATM   10  C6  UNK     1      17.101  10.315   9.645  1.00  0.00     0.010 A 
HETATM   11  C8  UNK     1      17.007   8.039  10.483  1.00  0.00     0.038 A 
HETATM   12  C9  UNK     1      17.753  11.629   9.517  1.00  0.00    -0.007 A 
HETATM   13  C10 UNK     1      17.657   9.271  10.392  1.00  0.00     0.018 A 
HETATM   14  C14 UNK     1      17.160  12.567   8.761  1.00  0.00     0.095 A 
HETATM   15  C15 UNK     1      15.890  12.342   8.049  1.00  0.00     0.289 A 
ENDROOT
BRANCH   4  16
HETATM   16  C7  UNK     1      11.998   7.097   8.169  1.00  0.00     0.032 A 
HETATM   17  C12 UNK     1      10.835   7.356   8.929  1.00  0.00     0.030 A 
HETATM   18  C16 UNK     1       9.563   7.094   8.420  1.00  0.00     0.009 A 
HETATM   19  C18 UNK     1       9.421   6.568   7.136  1.00  0.00    -0.062 A 
HETATM   20  C17 UNK     1      10.550   6.303   6.362  1.00  0.00     0.009 A 
HETATM   21  C21 UNK     1       8.061   6.288   6.591  1.00  0.00     0.048 C 
HETATM   22  C13 UNK     1      11.823   6.564   6.871  1.00  0.00     0.030 A 
ENDBRANCH   4  16
BRANCH  12  23
HETATM   23  C11 UNK     1      19.022  12.024  10.160  1.00  0.00    -0.025 A 
HETATM   24  C19 UNK     1      20.226  11.846   9.484  1.00  0.00     0.012 A 
HETATM   25  C22 UNK     1      21.425  12.221  10.092  1.00  0.00     0.001 A 
HETATM   26  C24 UNK     1      21.414  12.772  11.373  1.00  0.00     0.000 A 
HETATM   27  C23 UNK     1      20.206  12.948  12.047  1.00  0.00     0.001 A 
HETATM   28  C20 UNK     1      19.008  12.572  11.439  1.00  0.00     0.012 A 
ENDBRANCH  12  23
TORSDOF 2
ENDMDL
MODEL 8
REMARK VINA RESULT:      -9.0     22.441     24.993
REMARK  2 active torsions:
REMARK  status: ('A' for Active; 'I' for Inactive)
REMARK    1  A    between atoms: C7_11  and  N1_4 
REMARK    2  A    between atoms: C11_15  and  C9_13 
ROOT
HETATM    1  O1  UNK     1      15.207   6.618   9.951  1.00  0.00    -0.331 OA
HETATM    2  O2  UNK     1      15.303  11.107   8.197  1.00  0.00    -0.274 OA
HETATM    3  O3  UNK     1      15.382  13.232   7.359  1.00  0.00    -0.260 OA
HETATM    4  N1  UNK     1      13.270   7.374   8.680  1.00  0.00    -0.354 N 
HETATM    5  C1  UNK     1      13.938   8.621   8.302  1.00  0.00     0.169 C 
HETATM    6  C2  UNK     1      15.208   8.866   9.071  1.00  0.00     0.028 A 
HETATM    7  C3  UNK     1      15.781   7.852   9.834  1.00  0.00     0.081 A 
HETATM    8  C4  UNK     1      15.887  10.093   8.987  1.00  0.00     0.101 A 
HETATM    9  C5  UNK     1      13.774   6.646   9.842  1.00  0.00     0.301 C 
HETATM   10  C6  UNK     1      17.101  10.324   9.640  1.00  0.00     0.010 A 
HETATM   11  C8  UNK     1      17.004   8.047  10.478  1.00  0.00     0.038 A 
HETATM   12  C9  UNK     1      17.754  11.637   9.511  1.00  0.00    -0.007 A 
HETATM   13  C10 UNK     1      17.656   9.279  10.386  1.00  0.00     0.018 A 
HETATM   14  C14 UNK     1      17.161  12.575   8.756  1.00  0.00     0.095 A 
HETATM   15  C15 UNK     1      15.890  12.352   8.046  1.00  0.00     0.289 A 
ENDROOT
BRANCH   4  16
HETATM   16  C7  UNK     1      11.992   7.112   8.171  1.00  0.00     0.032 A 
HETATM   17  C12 UNK     1      11.812   6.585   6.872  1.00  0.00     0.030 A 
HETATM   18  C16 UNK     1      10.540   6.324   6.364  1.00  0.00     0.009 A 
HETATM   19  C18 UNK     1       9.412   6.582   7.144  1.00  0.00    -0.062 A 
HETATM   20  C17 UNK     1       9.557   7.101   8.430  1.00  0.00     0.009 A 
HETATM   21  C21 UNK     1       8.051   6.302   6.602  1.00  0.00     0.048 C 
HETATM   22  C13 UNK     1      10.830   7.363   8.937  1.00  0.00     0.030 A 
ENDBRANCH   4  16
BRANCH  12  23
HETATM   23  C11 UNK     1      19.024  12.030  10.153  1.00  0.00    -0.025 A 
HETATM   24  C19 UNK     1      19.014  12.577  11.433  1.00  0.00     0.012 A 
HETATM   25  C22 UNK     1      20.216  12.947  12.039  1.00  0.00     0.001 A 
HETATM   26  C24 UNK     1      21.422  12.768  11.362  1.00  0.00     0.000 A 
HETATM   27  C23 UNK     1      21.427  12.219  10.079  1.00  0.00     0.001 A 
HETATM   28  C20 UNK     1      20.226  11.851   9.474  1.00  0.00     0.012 A 
ENDBRANCH  12  23
TORSDOF 2
ENDMDL
MODEL 9
REMARK VINA RESULT:      -8.8     14.684     16.844
REMARK  2 active torsions:
REMARK  status: ('A' for Active; 'I' for Inactive)
REMARK    1  A    between atoms: C7_11  and  N1_4 
REMARK    2  A    between atoms: C11_15  and  C9_13 
ROOT
HETATM    1  O1  UNK     1      25.895  -5.369  39.394  1.00  0.00    -0.331 OA
HETATM    2  O2  UNK     1      28.079  -8.576  36.532  1.00  0.00    -0.274 OA
HETATM    3  O3  UNK     1      29.144 -10.091  35.193  1.00  0.00    -0.260 OA
HETATM    4  N1  UNK     1      24.596  -7.298  38.663  1.00  0.00    -0.354 N 
HETATM    5  C1  UNK     1      25.769  -7.920  38.045  1.00  0.00     0.169 C 
HETATM    6  C2  UNK     1      26.947  -6.989  37.945  1.00  0.00     0.028 A 
HETATM    7  C3  UNK     1      26.955  -5.780  38.636  1.00  0.00     0.081 A 
HETATM    8  C4  UNK     1      28.094  -7.339  37.215  1.00  0.00     0.101 A 
HETATM    9  C5  UNK     1      24.632  -5.859  38.916  1.00  0.00     0.301 C 
HETATM   10  C6  UNK     1      29.226  -6.522  37.160  1.00  0.00     0.010 A 
HETATM   11  C8  UNK     1      28.080  -4.954  38.617  1.00  0.00     0.038 A 
HETATM   12  C9  UNK     1      30.392  -6.951  36.370  1.00  0.00    -0.007 A 
HETATM   13  C10 UNK     1      29.206  -5.321  37.877  1.00  0.00     0.018 A 
HETATM   14  C14 UNK     1      30.333  -8.130  35.731  1.00  0.00     0.095 A 
HETATM   15  C15 UNK     1      29.158  -9.017  35.785  1.00  0.00     0.289 A 
ENDROOT
BRANCH   4  16
HETATM   16  C7  UNK     1      23.381  -7.994  38.657  1.00  0.00     0.032 A 
HETATM   17  C12 UNK     1      22.603  -8.125  39.830  1.00  0.00     0.030 A 
HETATM   18  C16 UNK     1      21.393  -8.818  39.824  1.00  0.00     0.009 A 
HETATM   19  C18 UNK     1      20.928  -9.398  38.643  1.00  0.00    -0.062 A 
HETATM   20  C17 UNK     1      21.672  -9.284  37.470  1.00  0.00     0.009 A 
HETATM   21  C21 UNK     1      19.633 -10.138  38.637  1.00  0.00     0.048 C 
HETATM   22  C13 UNK     1      22.883  -8.592  37.476  1.00  0.00     0.030 A 
ENDBRANCH   4  16
BRANCH  12  23
HETATM   23  C11 UNK     1      31.646  -6.188  36.206  1.00  0.00    -0.025 A 
HETATM   24  C19 UNK     1      32.712  -6.414  37.072  1.00  0.00     0.012 A 
HETATM   25  C22 UNK     1      33.897  -5.693  36.916  1.00  0.00     0.001 A 
HETATM   26  C24 UNK     1      34.010  -4.751  35.894  1.00  0.00     0.000 A 
HETATM   27  C23 UNK     1      32.939  -4.529  35.029  1.00  0.00     0.001 A 
HETATM   28  C20 UNK     1      31.755  -5.248  35.186  1.00  0.00     0.012 A 
ENDBRANCH  12  23
TORSDOF 2
ENDMDL
MODEL 10
REMARK VINA RESULT:      -8.6      2.250      9.347
REMARK  2 active torsions:
REMARK  status: ('A' for Active; 'I' for Inactive)
REMARK    1  A    between atoms: C7_11  and  N1_4 
REMARK    2  A    between atoms: C11_15  and  C9_13 
ROOT
HETATM    1  O1  UNK     1      20.029   6.599  32.596  1.00  0.00    -0.331 OA
HETATM    2  O2  UNK     1      15.242   7.107  32.362  1.00  0.00    -0.274 OA
HETATM    3  O3  UNK     1      12.976   7.382  32.248  1.00  0.00    -0.260 OA
HETATM    4  N1  UNK     1      18.768   4.876  31.422  1.00  0.00    -0.354 N 
HETATM    5  C1  UNK     1      17.523   5.638  31.531  1.00  0.00     0.169 C 
HETATM    6  C2  UNK     1      17.627   6.807  32.473  1.00  0.00     0.028 A 
HETATM    7  C3  UNK     1      18.869   7.234  32.936  1.00  0.00     0.081 A 
HETATM    8  C4  UNK     1      16.493   7.542  32.853  1.00  0.00     0.101 A 
HETATM    9  C5  UNK     1      19.855   5.195  32.344  1.00  0.00     0.301 C 
HETATM   10  C6  UNK     1      16.571   8.669  33.674  1.00  0.00     0.010 A 
HETATM   11  C8  UNK     1      18.979   8.371  33.739  1.00  0.00     0.038 A 
HETATM   12  C9  UNK     1      15.338   9.388  34.038  1.00  0.00    -0.007 A 
HETATM   13  C10 UNK     1      17.835   9.079  34.112  1.00  0.00     0.018 A 
HETATM   14  C14 UNK     1      14.169   8.937  33.555  1.00  0.00     0.095 A 
HETATM   15  C15 UNK     1      14.061   7.760  32.676  1.00  0.00     0.289 A 
ENDROOT
BRANCH   4  16
HETATM   16  C7  UNK     1      18.758   3.664  30.718  1.00  0.00     0.032 A 
HETATM   17  C12 UNK     1      18.349   3.602  29.367  1.00  0.00     0.030 A 
HETATM   18  C16 UNK     1      18.339   2.396  28.666  1.00  0.00     0.009 A 
HETATM   19  C18 UNK     1      18.740   1.220  29.299  1.00  0.00    -0.062 A 
HETATM   20  C17 UNK     1      19.151   1.249  30.631  1.00  0.00     0.009 A 
HETATM   21  C21 UNK     1      18.731  -0.070  28.550  1.00  0.00     0.048 C 
HETATM   22  C13 UNK     1      19.160   2.456  31.332  1.00  0.00     0.030 A 
ENDBRANCH   4  16
BRANCH  12  23
HETATM   23  C11 UNK     1      15.263  10.579  34.906  1.00  0.00    -0.025 A 
HETATM   24  C19 UNK     1      16.173  11.619  34.735  1.00  0.00     0.012 A 
HETATM   25  C22 UNK     1      16.101  12.746  35.555  1.00  0.00     0.001 A 
HETATM   26  C24 UNK     1      15.119  12.828  36.542  1.00  0.00     0.000 A 
HETATM   27  C23 UNK     1      14.209  11.784  36.709  1.00  0.00     0.001 A 
HETATM   28  C20 UNK     1      14.282  10.658  35.890  1.00  0.00     0.012 A 
ENDBRANCH  12  23
TORSDOF 2
ENDMDL
