MODEL 1
REMARK VINA RESULT:      -9.0      0.000      0.000
REMARK  5 active torsions:
REMARK  status: ('A' for Active; 'I' for Inactive)
REMARK    1  A    between atoms: C6_12  and  O2_2 
REMARK    2  A    between atoms: C5_11  and  N1_4 
REMARK    3  A    between atoms: C1_7  and  C5_11 
REMARK    4  A    between atoms: C4_10  and  C9_15 
REMARK    5  A    between atoms: C10_16  and  C11_17 
ROOT
HETATM    1  O1  UNK     1      18.828  -1.135  36.681  1.00  0.00    -0.320 OA
HETATM    2  O3  UNK     1      20.604  -3.982  34.354  1.00  0.00    -0.286 OA
HETATM    3  C1  UNK     1      18.392   0.220  34.797  1.00  0.00     0.038 A 
HETATM    4  C2  UNK     1      18.918  -0.960  35.323  1.00  0.00     0.100 A 
HETATM    5  C3  UNK     1      19.505  -1.901  34.478  1.00  0.00     0.050 A 
HETATM    6  C4  UNK     1      19.042  -0.487  32.578  1.00  0.00    -0.024 A 
HETATM    7  C6  UNK     1      18.454   0.455  33.423  1.00  0.00     0.082 A 
HETATM    8  C7  UNK     1      19.569  -1.668  33.102  1.00  0.00     0.028 A 
HETATM    9  C8  UNK     1      20.058  -3.140  35.056  1.00  0.00     0.200 A 
HETATM   10  C10 UNK     1      19.922  -3.294  36.530  1.00  0.00     0.083 A 
HETATM   11  C12 UNK     1      19.330  -2.300  37.208  1.00  0.00     0.162 A 
ENDROOT
BRANCH  10  12
HETATM   12  C11 UNK     1      20.394  -4.460  37.204  1.00  0.00     0.145 A 
HETATM   13  N2  UNK     1      19.459  -5.352  37.654  1.00  0.00    -0.338 N 
HETATM   14  C14 UNK     1      20.121  -6.386  38.264  1.00  0.00     0.062 A 
HETATM   15  H10 UNK     1      18.453  -5.272  37.568  1.00  0.00     0.167 HD
HETATM   16  C15 UNK     1      21.468  -6.053  38.146  1.00  0.00     0.086 A 
HETATM   17  C18 UNK     1      19.672  -7.550  38.890  1.00  0.00     0.032 A 
HETATM   18  C19 UNK     1      22.437  -6.919  38.678  1.00  0.00     0.034 A 
HETATM   19  N3  UNK     1      21.619  -4.855  37.486  1.00  0.00    -0.228 NA
HETATM   20  C21 UNK     1      22.009  -8.093  39.311  1.00  0.00     0.002 A 
HETATM   21  C20 UNK     1      20.650  -8.400  39.415  1.00  0.00     0.002 A 
ENDBRANCH  10  12
BRANCH   3  22
HETATM   22  C5  UNK     1      17.760   1.234  35.696  1.00  0.00     0.315 C 
BRANCH  22  23
HETATM   23  N1  UNK     1      16.652   0.674  36.470  1.00  0.00     0.084 N 
HETATM   24  C16 UNK     1      15.530   0.346  35.591  1.00  0.00     0.309 C 
HETATM   25  C17 UNK     1      16.230   1.611  37.511  1.00  0.00     0.309 C 
ENDBRANCH  22  23
ENDBRANCH   3  22
BRANCH   6  26
HETATM   26  C9  UNK     1      19.115  -0.249  31.105  1.00  0.00     0.037 C 
HETATM   27  C13 UNK     1      20.554  -0.139  30.607  1.00  0.00     0.010 C 
ENDBRANCH   6  26
BRANCH   7  28
HETATM   28  O2  UNK     1      17.941   1.607  32.904  1.00  0.00    -0.359 OA
HETATM   29  H17 UNK     1      18.597   2.321  32.920  1.00  0.00     0.217 HD
ENDBRANCH   7  28
TORSDOF 5
ENDMDL
MODEL 2
REMARK VINA RESULT:      -8.9      1.463      3.551
REMARK  5 active torsions:
REMARK  status: ('A' for Active; 'I' for Inactive)
REMARK    1  A    between atoms: C6_12  and  O2_2 
REMARK    2  A    between atoms: C5_11  and  N1_4 
REMARK    3  A    between atoms: C1_7  and  C5_11 
REMARK    4  A    between atoms: C4_10  and  C9_15 
REMARK    5  A    between atoms: C10_16  and  C11_17 
ROOT
HETATM    1  O1  UNK     1      19.643  -2.822  34.243  1.00  0.00    -0.320 OA
HETATM    2  O3  UNK     1      19.467  -2.290  38.288  1.00  0.00    -0.286 OA
HETATM    3  C1  UNK     1      18.629  -0.724  33.862  1.00  0.00     0.038 A 
HETATM    4  C2  UNK     1      19.108  -1.672  34.766  1.00  0.00     0.100 A 
HETATM    5  C3  UNK     1      19.030  -1.432  36.138  1.00  0.00     0.050 A 
HETATM    6  C4  UNK     1      17.996   0.705  35.707  1.00  0.00    -0.024 A 
HETATM    7  C6  UNK     1      18.074   0.466  34.335  1.00  0.00     0.082 A 
HETATM    8  C7  UNK     1      18.473  -0.242  36.613  1.00  0.00     0.028 A 
HETATM    9  C8  UNK     1      19.539  -2.450  37.076  1.00  0.00     0.200 A 
HETATM   10  C10 UNK     1      20.126  -3.671  36.462  1.00  0.00     0.083 A 
HETATM   11  C12 UNK     1      20.130  -3.757  35.124  1.00  0.00     0.162 A 
ENDROOT
BRANCH  10  12
HETATM   12  C11 UNK     1      20.675  -4.718  37.264  1.00  0.00     0.145 A 
HETATM   13  N2  UNK     1      19.803  -5.634  37.788  1.00  0.00    -0.338 N 
HETATM   14  C14 UNK     1      20.531  -6.540  38.516  1.00  0.00     0.062 A 
HETATM   15  H10 UNK     1      18.798  -5.648  37.676  1.00  0.00     0.167 HD
HETATM   16  C15 UNK     1      21.849  -6.109  38.387  1.00  0.00     0.086 A 
HETATM   17  C18 UNK     1      20.163  -7.666  39.253  1.00  0.00     0.032 A 
HETATM   18  C19 UNK     1      22.872  -6.831  39.025  1.00  0.00     0.034 A 
HETATM   19  N3  UNK     1      21.919  -4.977  37.608  1.00  0.00    -0.228 NA
HETATM   20  C21 UNK     1      22.525  -7.965  39.770  1.00  0.00     0.002 A 
HETATM   21  C20 UNK     1      21.193  -8.373  39.881  1.00  0.00     0.002 A 
ENDBRANCH  10  12
BRANCH   3  22
HETATM   22  C5  UNK     1      18.710  -0.973  32.389  1.00  0.00     0.315 C 
BRANCH  22  23
HETATM   23  N1  UNK     1      19.961  -0.480  31.812  1.00  0.00     0.084 N 
HETATM   24  C16 UNK     1      19.690   0.554  30.815  1.00  0.00     0.309 C 
HETATM   25  C17 UNK     1      20.717  -1.581  31.216  1.00  0.00     0.309 C 
ENDBRANCH  22  23
ENDBRANCH   3  22
BRANCH   6  26
HETATM   26  C9  UNK     1      17.404   1.975  36.226  1.00  0.00     0.037 C 
HETATM   27  C13 UNK     1      16.462   1.735  37.403  1.00  0.00     0.010 C 
ENDBRANCH   6  26
BRANCH   7  28
HETATM   28  O2  UNK     1      17.605   1.397  33.454  1.00  0.00    -0.359 OA
HETATM   29  H17 UNK     1      18.325   1.768  32.921  1.00  0.00     0.217 HD
ENDBRANCH   7  28
TORSDOF 5
ENDMDL
MODEL 3
REMARK VINA RESULT:      -8.6     17.783     22.151
REMARK  5 active torsions:
REMARK  status: ('A' for Active; 'I' for Inactive)
REMARK    1  A    between atoms: C6_12  and  O2_2 
REMARK    2  A    between atoms: C5_11  and  N1_4 
REMARK    3  A    between atoms: C1_7  and  C5_11 
REMARK    4  A    between atoms: C4_10  and  C9_15 
REMARK    5  A    between atoms: C10_16  and  C11_17 
ROOT
HETATM    1  O1  UNK     1      18.600  -4.278  15.017  1.00  0.00    -0.320 OA
HETATM    2  O3  UNK     1      19.372  -0.425  13.908  1.00  0.00    -0.286 OA
HETATM    3  C1  UNK     1      18.914  -5.042  12.805  1.00  0.00     0.038 A 
HETATM    4  C2  UNK     1      18.900  -3.982  13.712  1.00  0.00     0.100 A 
HETATM    5  C3  UNK     1      19.180  -2.687  13.277  1.00  0.00     0.050 A 
HETATM    6  C4  UNK     1      19.493  -3.507  11.029  1.00  0.00    -0.024 A 
HETATM    7  C6  UNK     1      19.213  -4.803  11.463  1.00  0.00     0.082 A 
HETATM    8  C7  UNK     1      19.478  -2.445  11.933  1.00  0.00     0.028 A 
HETATM    9  C8  UNK     1      19.155  -1.580  14.251  1.00  0.00     0.200 A 
HETATM   10  C10 UNK     1      18.843  -1.952  15.658  1.00  0.00     0.083 A 
HETATM   11  C12 UNK     1      18.596  -3.243  15.921  1.00  0.00     0.162 A 
ENDROOT
BRANCH  10  12
HETATM   12  C11 UNK     1      18.814  -0.975  16.698  1.00  0.00     0.145 A 
HETATM   13  N2  UNK     1      19.166   0.306  16.370  1.00  0.00    -0.338 N 
HETATM   14  C14 UNK     1      19.069   1.074  17.502  1.00  0.00     0.062 A 
HETATM   15  H10 UNK     1      19.457   0.642  15.460  1.00  0.00     0.167 HD
HETATM   16  C15 UNK     1      18.649   0.185  18.488  1.00  0.00     0.086 A 
HETATM   17  C18 UNK     1      19.306   2.428  17.742  1.00  0.00     0.032 A 
HETATM   18  C19 UNK     1      18.449   0.657  19.796  1.00  0.00     0.034 A 
HETATM   19  N3  UNK     1      18.496  -1.081  17.971  1.00  0.00    -0.228 NA
HETATM   20  C21 UNK     1      18.680   2.012  20.060  1.00  0.00     0.002 A 
HETATM   21  C20 UNK     1      19.102   2.880  19.050  1.00  0.00     0.002 A 
ENDBRANCH  10  12
BRANCH   3  22
HETATM   22  C5  UNK     1      18.615  -6.434  13.264  1.00  0.00     0.315 C 
BRANCH  22  23
HETATM   23  N1  UNK     1      17.205  -6.784  13.090  1.00  0.00     0.084 N 
HETATM   24  C16 UNK     1      16.563  -6.977  14.390  1.00  0.00     0.309 C 
HETATM   25  C17 UNK     1      17.074  -7.988  12.270  1.00  0.00     0.309 C 
ENDBRANCH  22  23
ENDBRANCH   3  22
BRANCH   6  26
HETATM   26  C9  UNK     1      19.815  -3.237   9.595  1.00  0.00     0.037 C 
HETATM   27  C13 UNK     1      21.279  -2.858   9.392  1.00  0.00     0.010 C 
ENDBRANCH   6  26
BRANCH   7  28
HETATM   28  O2  UNK     1      19.229  -5.837  10.573  1.00  0.00    -0.359 OA
HETATM   29  H17 UNK     1      18.379  -5.916  10.113  1.00  0.00     0.217 HD
ENDBRANCH   7  28
TORSDOF 5
ENDMDL
MODEL 4
REMARK VINA RESULT:      -8.6     18.208     22.275
REMARK  5 active torsions:
REMARK  status: ('A' for Active; 'I' for Inactive)
REMARK    1  A    between atoms: C6_12  and  O2_2 
REMARK    2  A    between atoms: C5_11  and  N1_4 
REMARK    3  A    between atoms: C1_7  and  C5_11 
REMARK    4  A    between atoms: C4_10  and  C9_15 
REMARK    5  A    between atoms: C10_16  and  C11_17 
ROOT
HETATM    1  O1  UNK     1      19.854  -3.212  13.425  1.00  0.00    -0.320 OA
HETATM    2  O3  UNK     1      17.279  -2.737  16.558  1.00  0.00    -0.286 OA
HETATM    3  C1  UNK     1      18.981  -5.354  12.953  1.00  0.00     0.038 A 
HETATM    4  C2  UNK     1      18.957  -4.201  13.738  1.00  0.00     0.100 A 
HETATM    5  C3  UNK     1      18.049  -4.091  14.790  1.00  0.00     0.050 A 
HETATM    6  C4  UNK     1      17.184  -6.284  14.276  1.00  0.00    -0.024 A 
HETATM    7  C6  UNK     1      18.092  -6.395  13.223  1.00  0.00     0.082 A 
HETATM    8  C7  UNK     1      17.158  -5.133  15.062  1.00  0.00     0.028 A 
HETATM    9  C8  UNK     1      18.043  -2.865  15.610  1.00  0.00     0.200 A 
HETATM   10  C10 UNK     1      19.021  -1.813  15.222  1.00  0.00     0.083 A 
HETATM   11  C12 UNK     1      19.831  -2.066  14.183  1.00  0.00     0.162 A 
ENDROOT
BRANCH  10  12
HETATM   12  C11 UNK     1      19.096  -0.571  15.922  1.00  0.00     0.145 A 
HETATM   13  N2  UNK     1      18.992  -0.608  17.286  1.00  0.00    -0.338 N 
HETATM   14  C14 UNK     1      19.090   0.678  17.752  1.00  0.00     0.062 A 
HETATM   15  H10 UNK     1      18.859  -1.429  17.862  1.00  0.00     0.167 HD
HETATM   16  C15 UNK     1      19.253   1.450  16.605  1.00  0.00     0.086 A 
HETATM   17  C18 UNK     1      19.050   1.216  19.039  1.00  0.00     0.032 A 
HETATM   18  C19 UNK     1      19.385   2.843  16.730  1.00  0.00     0.034 A 
HETATM   19  N3  UNK     1      19.254   0.659  15.479  1.00  0.00    -0.228 NA
HETATM   20  C21 UNK     1      19.348   3.406  18.012  1.00  0.00     0.002 A 
HETATM   21  C20 UNK     1      19.182   2.605  19.145  1.00  0.00     0.002 A 
ENDBRANCH  10  12
BRANCH   3  22
HETATM   22  C5  UNK     1      19.952  -5.480  11.822  1.00  0.00     0.315 C 
BRANCH  22  23
HETATM   23  N1  UNK     1      19.426  -4.922  10.576  1.00  0.00     0.084 N 
HETATM   24  C16 UNK     1      19.236  -5.979   9.583  1.00  0.00     0.309 C 
HETATM   25  C17 UNK     1      20.324  -3.889  10.059  1.00  0.00     0.309 C 
ENDBRANCH  22  23
ENDBRANCH   3  22
BRANCH   6  26
HETATM   26  C9  UNK     1      16.226  -7.391  14.575  1.00  0.00     0.037 C 
HETATM   27  C13 UNK     1      15.234  -7.016  15.673  1.00  0.00     0.010 C 
ENDBRANCH   6  26
BRANCH   7  28
HETATM   28  O2  UNK     1      18.112  -7.524  12.457  1.00  0.00    -0.359 OA
HETATM   29  H17 UNK     1      18.702  -8.193  12.836  1.00  0.00     0.217 HD
ENDBRANCH   7  28
TORSDOF 5
ENDMDL
MODEL 5
REMARK VINA RESULT:      -8.5      5.759     10.942
REMARK  5 active torsions:
REMARK  status: ('A' for Active; 'I' for Inactive)
REMARK    1  A    between atoms: C6_12  and  O2_2 
REMARK    2  A    between atoms: C5_11  and  N1_4 
REMARK    3  A    between atoms: C1_7  and  C5_11 
REMARK    4  A    between atoms: C4_10  and  C9_15 
REMARK    5  A    between atoms: C10_16  and  C11_17 
ROOT
HETATM    1  O1  UNK     1      18.222   3.713  34.285  1.00  0.00    -0.320 OA
HETATM    2  O3  UNK     1      18.331   6.063  30.947  1.00  0.00    -0.286 OA
HETATM    3  C1  UNK     1      18.475   1.756  32.990  1.00  0.00     0.038 A 
HETATM    4  C2  UNK     1      18.374   3.146  33.045  1.00  0.00     0.100 A 
HETATM    5  C3  UNK     1      18.427   3.898  31.872  1.00  0.00     0.050 A 
HETATM    6  C4  UNK     1      18.684   1.874  30.583  1.00  0.00    -0.024 A 
HETATM    7  C6  UNK     1      18.632   1.121  31.757  1.00  0.00     0.082 A 
HETATM    8  C7  UNK     1      18.583   3.264  30.636  1.00  0.00     0.028 A 
HETATM    9  C8  UNK     1      18.314   5.366  31.954  1.00  0.00     0.200 A 
HETATM   10  C10 UNK     1      18.169   5.937  33.320  1.00  0.00     0.083 A 
HETATM   11  C12 UNK     1      18.135   5.083  34.353  1.00  0.00     0.162 A 
ENDROOT
BRANCH  10  12
HETATM   12  C11 UNK     1      18.075   7.346  33.532  1.00  0.00     0.145 A 
HETATM   13  N2  UNK     1      16.824   7.881  33.674  1.00  0.00    -0.338 N 
HETATM   14  C14 UNK     1      16.961   9.232  33.867  1.00  0.00     0.062 A 
HETATM   15  H10 UNK     1      15.943   7.384  33.636  1.00  0.00     0.167 HD
HETATM   16  C15 UNK     1      18.337   9.448  33.830  1.00  0.00     0.086 A 
HETATM   17  C18 UNK     1      16.031  10.253  34.063  1.00  0.00     0.032 A 
HETATM   18  C19 UNK     1      18.830  10.753  33.998  1.00  0.00     0.034 A 
HETATM   19  N3  UNK     1      19.012   8.268  33.621  1.00  0.00    -0.228 NA
HETATM   20  C21 UNK     1      17.914  11.793  34.197  1.00  0.00     0.002 A 
HETATM   21  C20 UNK     1      16.539  11.545  34.228  1.00  0.00     0.002 A 
ENDBRANCH  10  12
BRANCH   3  22
HETATM   22  C5  UNK     1      18.420   0.942  34.243  1.00  0.00     0.315 C 
BRANCH  22  23
HETATM   23  N1  UNK     1      17.047   0.698  34.685  1.00  0.00     0.084 N 
HETATM   24  C16 UNK     1      16.891   1.064  36.093  1.00  0.00     0.309 C 
HETATM   25  C17 UNK     1      16.685  -0.704  34.478  1.00  0.00     0.309 C 
ENDBRANCH  22  23
ENDBRANCH   3  22
BRANCH   6  26
HETATM   26  C9  UNK     1      18.852   1.207  29.257  1.00  0.00     0.037 C 
HETATM   27  C13 UNK     1      17.787   1.640  28.253  1.00  0.00     0.010 C 
ENDBRANCH   6  26
BRANCH   7  28
HETATM   28  O2  UNK     1      18.732  -0.239  31.698  1.00  0.00    -0.359 OA
HETATM   29  H17 UNK     1      18.314  -0.586  30.895  1.00  0.00     0.217 HD
ENDBRANCH   7  28
TORSDOF 5
ENDMDL
MODEL 6
REMARK VINA RESULT:      -8.4      2.663      8.647
REMARK  5 active torsions:
REMARK  status: ('A' for Active; 'I' for Inactive)
REMARK    1  A    between atoms: C6_12  and  O2_2 
REMARK    2  A    between atoms: C5_11  and  N1_4 
REMARK    3  A    between atoms: C1_7  and  C5_11 
REMARK    4  A    between atoms: C4_10  and  C9_15 
REMARK    5  A    between atoms: C10_16  and  C11_17 
ROOT
HETATM    1  O1  UNK     1      21.550  -5.001  38.345  1.00  0.00    -0.320 OA
HETATM    2  O3  UNK     1      17.964  -5.544  36.469  1.00  0.00    -0.286 OA
HETATM    3  C1  UNK     1      21.600  -7.258  39.035  1.00  0.00     0.038 A 
HETATM    4  C2  UNK     1      20.944  -6.232  38.355  1.00  0.00     0.100 A 
HETATM    5  C3  UNK     1      19.725  -6.478  37.725  1.00  0.00     0.050 A 
HETATM    6  C4  UNK     1      19.813  -8.779  38.449  1.00  0.00    -0.024 A 
HETATM    7  C6  UNK     1      21.033  -8.533  39.079  1.00  0.00     0.082 A 
HETATM    8  C7  UNK     1      19.155  -7.754  37.769  1.00  0.00     0.028 A 
HETATM    9  C8  UNK     1      19.047  -5.377  37.015  1.00  0.00     0.200 A 
HETATM   10  C10 UNK     1      19.750  -4.066  37.016  1.00  0.00     0.083 A 
HETATM   11  C12 UNK     1      20.919  -3.985  37.667  1.00  0.00     0.162 A 
ENDROOT
BRANCH  10  12
HETATM   12  C11 UNK     1      19.208  -2.930  36.343  1.00  0.00     0.145 A 
HETATM   13  N2  UNK     1      17.941  -2.539  36.684  1.00  0.00    -0.338 N 
HETATM   14  C14 UNK     1      17.620  -1.441  35.927  1.00  0.00     0.062 A 
HETATM   15  H10 UNK     1      17.334  -2.976  37.365  1.00  0.00     0.167 HD
HETATM   16  C15 UNK     1      18.748  -1.220  35.142  1.00  0.00     0.086 A 
HETATM   17  C18 UNK     1      16.474  -0.647  35.863  1.00  0.00     0.032 A 
HETATM   18  C19 UNK     1      18.752  -0.149  34.234  1.00  0.00     0.034 A 
HETATM   19  N3  UNK     1      19.723  -2.153  35.412  1.00  0.00    -0.228 NA
HETATM   20  C21 UNK     1      17.613   0.662  34.152  1.00  0.00     0.002 A 
HETATM   21  C20 UNK     1      16.494   0.415  34.953  1.00  0.00     0.002 A 
ENDBRANCH  10  12
BRANCH   3  22
HETATM   22  C5  UNK     1      22.909  -7.002  39.713  1.00  0.00     0.315 C 
BRANCH  22  23
HETATM   23  N1  UNK     1      24.029  -7.005  38.773  1.00  0.00     0.084 N 
HETATM   24  C16 UNK     1      24.804  -8.238  38.906  1.00  0.00     0.309 C 
HETATM   25  C17 UNK     1      24.883  -5.838  38.992  1.00  0.00     0.309 C 
ENDBRANCH  22  23
ENDBRANCH   3  22
BRANCH   6  26
HETATM   26  C9  UNK     1      19.195 -10.138  38.488  1.00  0.00     0.037 C 
HETATM   27  C13 UNK     1      19.666 -11.021  37.336  1.00  0.00     0.010 C 
ENDBRANCH   6  26
BRANCH   7  28
HETATM   28  O2  UNK     1      21.672  -9.540  39.742  1.00  0.00    -0.359 OA
HETATM   29  H17 UNK     1      22.621  -9.358  39.824  1.00  0.00     0.217 HD
ENDBRANCH   7  28
TORSDOF 5
ENDMDL
MODEL 7
REMARK VINA RESULT:      -8.4      4.608      9.868
REMARK  5 active torsions:
REMARK  status: ('A' for Active; 'I' for Inactive)
REMARK    1  A    between atoms: C6_12  and  O2_2 
REMARK    2  A    between atoms: C5_11  and  N1_4 
REMARK    3  A    between atoms: C1_7  and  C5_11 
REMARK    4  A    between atoms: C4_10  and  C9_15 
REMARK    5  A    between atoms: C10_16  and  C11_17 
ROOT
HETATM    1  O1  UNK     1      18.131   1.712  33.705  1.00  0.00    -0.320 OA
HETATM    2  O3  UNK     1      19.006   4.233  30.614  1.00  0.00    -0.286 OA
HETATM    3  C1  UNK     1      18.767  -0.170  32.430  1.00  0.00     0.038 A 
HETATM    4  C2  UNK     1      18.610   1.213  32.520  1.00  0.00     0.100 A 
HETATM    5  C3  UNK     1      18.934   2.026  31.435  1.00  0.00     0.050 A 
HETATM    6  C4  UNK     1      19.575   0.077  30.164  1.00  0.00    -0.024 A 
HETATM    7  C6  UNK     1      19.252  -0.737  31.250  1.00  0.00     0.082 A 
HETATM    8  C7  UNK     1      19.418   1.460  30.252  1.00  0.00     0.028 A 
HETATM    9  C8  UNK     1      18.757   3.485  31.551  1.00  0.00     0.200 A 
HETATM   10  C10 UNK     1      18.252   3.982  32.860  1.00  0.00     0.083 A 
HETATM   11  C12 UNK     1      17.985   3.075  33.810  1.00  0.00     0.162 A 
ENDROOT
BRANCH  10  12
HETATM   12  C11 UNK     1      18.062   5.375  33.105  1.00  0.00     0.145 A 
HETATM   13  N2  UNK     1      19.152   6.100  33.504  1.00  0.00    -0.338 N 
HETATM   14  C14 UNK     1      18.753   7.400  33.681  1.00  0.00     0.062 A 
HETATM   15  H10 UNK     1      20.090   5.751  33.656  1.00  0.00     0.167 HD
HETATM   16  C15 UNK     1      17.396   7.391  33.368  1.00  0.00     0.086 A 
HETATM   17  C18 UNK     1      19.440   8.548  34.077  1.00  0.00     0.032 A 
HETATM   18  C19 UNK     1      16.667   8.589  33.449  1.00  0.00     0.034 A 
HETATM   19  N3  UNK     1      16.985   6.127  33.013  1.00  0.00    -0.228 NA
HETATM   20  C21 UNK     1      17.336   9.754  33.843  1.00  0.00     0.002 A 
HETATM   21  C20 UNK     1      18.699   9.732  34.152  1.00  0.00     0.002 A 
ENDBRANCH  10  12
BRANCH   3  22
HETATM   22  C5  UNK     1      18.423  -1.049  33.591  1.00  0.00     0.315 C 
BRANCH  22  23
HETATM   23  N1  UNK     1      19.514  -1.137  34.561  1.00  0.00     0.084 N 
HETATM   24  C16 UNK     1      20.154  -2.450  34.494  1.00  0.00     0.309 C 
HETATM   25  C17 UNK     1      19.018  -0.877  35.912  1.00  0.00     0.309 C 
ENDBRANCH  22  23
ENDBRANCH   3  22
BRANCH   6  26
HETATM   26  C9  UNK     1      20.095  -0.516  28.895  1.00  0.00     0.037 C 
HETATM   27  C13 UNK     1      19.034  -0.556  27.799  1.00  0.00     0.010 C 
ENDBRANCH   6  26
BRANCH   7  28
HETATM   28  O2  UNK     1      19.408  -2.089  31.157  1.00  0.00    -0.359 OA
HETATM   29  H17 UNK     1      19.644  -2.473  32.016  1.00  0.00     0.217 HD
ENDBRANCH   7  28
TORSDOF 5
ENDMDL
MODEL 8
REMARK VINA RESULT:      -8.2     18.176     21.784
REMARK  5 active torsions:
REMARK  status: ('A' for Active; 'I' for Inactive)
REMARK    1  A    between atoms: C6_12  and  O2_2 
REMARK    2  A    between atoms: C5_11  and  N1_4 
REMARK    3  A    between atoms: C1_7  and  C5_11 
REMARK    4  A    between atoms: C4_10  and  C9_15 
REMARK    5  A    between atoms: C10_16  and  C11_17 
ROOT
HETATM    1  O1  UNK     1      19.694  -3.682  13.965  1.00  0.00    -0.320 OA
HETATM    2  O3  UNK     1      16.924  -2.626  16.772  1.00  0.00    -0.286 OA
HETATM    3  C1  UNK     1      18.640  -5.766  13.619  1.00  0.00     0.038 A 
HETATM    4  C2  UNK     1      18.672  -4.539  14.284  1.00  0.00     0.100 A 
HETATM    5  C3  UNK     1      17.693  -4.229  15.227  1.00  0.00     0.050 A 
HETATM    6  C4  UNK     1      16.644  -6.369  14.845  1.00  0.00    -0.024 A 
HETATM    7  C6  UNK     1      17.623  -6.680  13.901  1.00  0.00     0.082 A 
HETATM    8  C7  UNK     1      16.675  -5.144  15.511  1.00  0.00     0.028 A 
HETATM    9  C8  UNK     1      17.749  -2.928  15.920  1.00  0.00     0.200 A 
HETATM   10  C10 UNK     1      18.865  -2.025  15.529  1.00  0.00     0.083 A 
HETATM   11  C12 UNK     1      19.729  -2.465  14.604  1.00  0.00     0.162 A 
ENDROOT
BRANCH  10  12
HETATM   12  C11 UNK     1      19.012  -0.729  16.110  1.00  0.00     0.145 A 
HETATM   13  N2  UNK     1      18.974  -0.642  17.475  1.00  0.00    -0.338 N 
HETATM   14  C14 UNK     1      19.133   0.677  17.818  1.00  0.00     0.062 A 
HETATM   15  H10 UNK     1      18.843  -1.403  18.129  1.00  0.00     0.167 HD
HETATM   16  C15 UNK     1      19.265   1.338  16.600  1.00  0.00     0.086 A 
HETATM   17  C18 UNK     1      19.173   1.328  19.051  1.00  0.00     0.032 A 
HETATM   18  C19 UNK     1      19.446   2.731  16.592  1.00  0.00     0.034 A 
HETATM   19  N3  UNK     1      19.186   0.450  15.551  1.00  0.00    -0.228 NA
HETATM   20  C21 UNK     1      19.489   3.406  17.819  1.00  0.00     0.002 A 
HETATM   21  C20 UNK     1      19.354   2.715  19.025  1.00  0.00     0.002 A 
ENDBRANCH  10  12
BRANCH   3  22
HETATM   22  C5  UNK     1      19.686  -6.106  12.605  1.00  0.00     0.315 C 
BRANCH  22  23
HETATM   23  N1  UNK     1      20.547  -7.203  13.045  1.00  0.00     0.084 N 
HETATM   24  C16 UNK     1      21.266  -6.831  14.264  1.00  0.00     0.309 C 
HETATM   25  C17 UNK     1      21.488  -7.569  11.988  1.00  0.00     0.309 C 
ENDBRANCH  22  23
ENDBRANCH   3  22
BRANCH   6  26
HETATM   26  C9  UNK     1      15.550  -7.338  15.156  1.00  0.00     0.037 C 
HETATM   27  C13 UNK     1      14.594  -6.808  16.220  1.00  0.00     0.010 C 
ENDBRANCH   6  26
BRANCH   7  28
HETATM   28  O2  UNK     1      17.587  -7.880  13.253  1.00  0.00    -0.359 OA
HETATM   29  H17 UNK     1      17.012  -8.509  13.715  1.00  0.00     0.217 HD
ENDBRANCH   7  28
TORSDOF 5
ENDMDL
MODEL 9
REMARK VINA RESULT:      -8.2     18.368     22.913
REMARK  5 active torsions:
REMARK  status: ('A' for Active; 'I' for Inactive)
REMARK    1  A    between atoms: C6_12  and  O2_2 
REMARK    2  A    between atoms: C5_11  and  N1_4 
REMARK    3  A    between atoms: C1_7  and  C5_11 
REMARK    4  A    between atoms: C4_10  and  C9_15 
REMARK    5  A    between atoms: C10_16  and  C11_17 
ROOT
HETATM    1  O1  UNK     1      19.452  -1.954  12.219  1.00  0.00    -0.320 OA
HETATM    2  O3  UNK     1      18.526  -2.955  16.068  1.00  0.00    -0.286 OA
HETATM    3  C1  UNK     1      19.109  -4.175  11.495  1.00  0.00     0.038 A 
HETATM    4  C2  UNK     1      19.111  -3.245  12.535  1.00  0.00     0.100 A 
HETATM    5  C3  UNK     1      18.777  -3.643  13.828  1.00  0.00     0.050 A 
HETATM    6  C4  UNK     1      18.436  -5.901  13.049  1.00  0.00    -0.024 A 
HETATM    7  C6  UNK     1      18.770  -5.504  11.754  1.00  0.00     0.082 A 
HETATM    8  C7  UNK     1      18.438  -4.973  14.090  1.00  0.00     0.028 A 
HETATM    9  C8  UNK     1      18.789  -2.644  14.913  1.00  0.00     0.200 A 
HETATM   10  C10 UNK     1      19.147  -1.254  14.521  1.00  0.00     0.083 A 
HETATM   11  C12 UNK     1      19.444  -1.027  13.233  1.00  0.00     0.162 A 
ENDROOT
BRANCH  10  12
HETATM   12  C11 UNK     1      19.169  -0.193  15.475  1.00  0.00     0.145 A 
HETATM   13  N2  UNK     1      19.074  -0.532  16.798  1.00  0.00    -0.338 N 
HETATM   14  C14 UNK     1      19.116   0.625  17.534  1.00  0.00     0.062 A 
HETATM   15  H10 UNK     1      18.981  -1.464  17.180  1.00  0.00     0.167 HD
HETATM   16  C15 UNK     1      19.238   1.636  16.584  1.00  0.00     0.086 A 
HETATM   17  C18 UNK     1      19.058   0.867  18.907  1.00  0.00     0.032 A 
HETATM   18  C19 UNK     1      19.308   2.972  17.010  1.00  0.00     0.034 A 
HETATM   19  N3  UNK     1      19.269   1.110  15.312  1.00  0.00    -0.228 NA
HETATM   20  C21 UNK     1      19.253   3.239  18.384  1.00  0.00     0.002 A 
HETATM   21  C20 UNK     1      19.129   2.204  19.314  1.00  0.00     0.002 A 
ENDBRANCH  10  12
BRANCH   3  22
HETATM   22  C5  UNK     1      19.465  -3.756  10.103  1.00  0.00     0.315 C 
BRANCH  22  23
HETATM   23  N1  UNK     1      20.896  -3.895   9.833  1.00  0.00     0.084 N 
HETATM   24  C16 UNK     1      21.473  -2.603   9.461  1.00  0.00     0.309 C 
HETATM   25  C17 UNK     1      21.123  -4.880   8.776  1.00  0.00     0.309 C 
ENDBRANCH  22  23
ENDBRANCH   3  22
BRANCH   6  26
HETATM   26  C9  UNK     1      18.071  -7.320  13.340  1.00  0.00     0.037 C 
HETATM   27  C13 UNK     1      16.639  -7.456  13.848  1.00  0.00     0.010 C 
ENDBRANCH   6  26
BRANCH   7  28
HETATM   28  O2  UNK     1      18.766  -6.417  10.739  1.00  0.00    -0.359 OA
HETATM   29  H17 UNK     1      18.546  -7.302  11.067  1.00  0.00     0.217 HD
ENDBRANCH   7  28
TORSDOF 5
ENDMDL
MODEL 10
REMARK VINA RESULT:      -8.1      7.341     11.164
REMARK  5 active torsions:
REMARK  status: ('A' for Active; 'I' for Inactive)
REMARK    1  A    between atoms: C6_12  and  O2_2 
REMARK    2  A    between atoms: C5_11  and  N1_4 
REMARK    3  A    between atoms: C1_7  and  C5_11 
REMARK    4  A    between atoms: C4_10  and  C9_15 
REMARK    5  A    between atoms: C10_16  and  C11_17 
ROOT
HETATM    1  O1  UNK     1      27.415  -8.951  38.165  1.00  0.00    -0.320 OA
HETATM    2  O3  UNK     1      25.677  -5.338  38.941  1.00  0.00    -0.286 OA
HETATM    3  C1  UNK     1      29.565  -7.977  38.126  1.00  0.00     0.038 A 
HETATM    4  C2  UNK     1      28.188  -7.824  38.288  1.00  0.00     0.100 A 
HETATM    5  C3  UNK     1      27.651  -6.567  38.561  1.00  0.00     0.050 A 
HETATM    6  C4  UNK     1      29.866  -5.609  38.513  1.00  0.00    -0.024 A 
HETATM    7  C6  UNK     1      30.403  -6.867  38.240  1.00  0.00     0.082 A 
HETATM    8  C7  UNK     1      28.489  -5.454  38.675  1.00  0.00     0.028 A 
HETATM    9  C8  UNK     1      26.192  -6.428  38.725  1.00  0.00     0.200 A 
HETATM   10  C10 UNK     1      25.397  -7.679  38.601  1.00  0.00     0.083 A 
HETATM   11  C12 UNK     1      26.058  -8.815  38.336  1.00  0.00     0.162 A 
ENDROOT
BRANCH  10  12
HETATM   12  C11 UNK     1      23.978  -7.679  38.763  1.00  0.00     0.145 A 
HETATM   13  N2  UNK     1      23.293  -8.778  38.320  1.00  0.00    -0.338 N 
HETATM   14  C14 UNK     1      21.960  -8.573  38.572  1.00  0.00     0.062 A 
HETATM   15  H10 UNK     1      23.683  -9.599  37.877  1.00  0.00     0.167 HD
HETATM   16  C15 UNK     1      21.910  -7.318  39.174  1.00  0.00     0.086 A 
HETATM   17  C18 UNK     1      20.828  -9.352  38.331  1.00  0.00     0.032 A 
HETATM   18  C19 UNK     1      20.667  -6.795  39.565  1.00  0.00     0.034 A 
HETATM   19  N3  UNK     1      23.171  -6.778  39.284  1.00  0.00    -0.228 NA
HETATM   20  C21 UNK     1      19.517  -7.560  39.334  1.00  0.00     0.002 A 
HETATM   21  C20 UNK     1      19.598  -8.815  38.727  1.00  0.00     0.002 A 
ENDBRANCH  10  12
BRANCH   3  22
HETATM   22  C5  UNK     1      30.149  -9.323  37.834  1.00  0.00     0.315 C 
BRANCH  22  23
HETATM   23  N1  UNK     1      30.635  -9.429  36.459  1.00  0.00     0.084 N 
HETATM   24  C16 UNK     1      29.518  -9.634  35.536  1.00  0.00     0.309 C 
HETATM   25  C17 UNK     1      31.602 -10.520  36.341  1.00  0.00     0.309 C 
ENDBRANCH  22  23
ENDBRANCH   3  22
BRANCH   6  26
HETATM   26  C9  UNK     1      30.752  -4.413  38.638  1.00  0.00     0.037 C 
HETATM   27  C13 UNK     1      30.873  -3.643  37.327  1.00  0.00     0.010 C 
ENDBRANCH   6  26
BRANCH   7  28
HETATM   28  O2  UNK     1      31.751  -7.012  38.083  1.00  0.00    -0.359 OA
HETATM   29  H17 UNK     1      31.961  -7.827  37.601  1.00  0.00     0.217 HD
ENDBRANCH   7  28
TORSDOF 5
ENDMDL
