MODEL 1
REMARK VINA RESULT:      -8.7      0.000      0.000
REMARK  3 active torsions:
REMARK  status: ('A' for Active; 'I' for Inactive)
REMARK    1  A    between atoms: C9_13  and  O2_2 
REMARK    2  A    between atoms: C13_17  and  O3_3 
REMARK    3  A    between atoms: C3_7  and  C4_8 
ROOT
HETATM    1  O1  UNK     1      18.936  -0.576  33.790  1.00  0.00    -0.309 OA
HETATM    2  O4  UNK     1      20.506  -3.955  35.438  1.00  0.00    -0.287 OA
HETATM    3  C1  UNK     1      19.259  -1.973  35.751  1.00  0.00     0.048 A 
HETATM    4  C2  UNK     1      18.749  -0.837  35.124  1.00  0.00     0.093 A 
HETATM    5  C3  UNK     1      19.672  -1.478  33.038  1.00  0.00     0.090 A 
HETATM    6  C5  UNK     1      20.032  -2.936  34.954  1.00  0.00     0.187 A 
HETATM    7  C6  UNK     1      20.208  -2.608  33.525  1.00  0.00     0.093 A 
HETATM    8  C7  UNK     1      18.010   0.093  35.857  1.00  0.00     0.075 A 
HETATM    9  C8  UNK     1      19.036  -2.187  37.113  1.00  0.00     0.021 A 
HETATM   10  C9  UNK     1      17.786  -0.119  37.217  1.00  0.00     0.070 A 
HETATM   11  C11 UNK     1      18.298  -1.255  37.844  1.00  0.00     0.038 A 
ENDROOT
BRANCH   5  12
HETATM   12  C4  UNK     1      19.808  -1.104  31.615  1.00  0.00     0.001 A 
HETATM   13  C10 UNK     1      19.410   0.163  31.182  1.00  0.00     0.051 A 
HETATM   14  C13 UNK     1      19.538   0.516  29.838  1.00  0.00     0.069 A 
HETATM   15  C15 UNK     1      20.064  -0.397  28.925  1.00  0.00     0.037 A 
HETATM   16  C14 UNK     1      20.463  -1.663  29.354  1.00  0.00     0.004 A 
HETATM   17  C12 UNK     1      20.334  -2.015  30.698  1.00  0.00     0.014 A 
BRANCH  14  18
HETATM   18  O3  UNK     1      19.149   1.752  29.419  1.00  0.00    -0.356 OA
HETATM   19  C17 UNK     1      17.955   1.827  28.641  1.00  0.00     0.210 C 
ENDBRANCH  14  18
ENDBRANCH   5  12
BRANCH  10  20
HETATM   20  O2  UNK     1      17.066   0.786  37.937  1.00  0.00    -0.356 OA
HETATM   21  C16 UNK     1      16.397   1.812  37.205  1.00  0.00     0.210 C 
ENDBRANCH  10  20
TORSDOF 3
ENDMDL
MODEL 2
REMARK VINA RESULT:      -8.3      1.317      3.078
REMARK  3 active torsions:
REMARK  status: ('A' for Active; 'I' for Inactive)
REMARK    1  A    between atoms: C9_13  and  O2_2 
REMARK    2  A    between atoms: C13_17  and  O3_3 
REMARK    3  A    between atoms: C3_7  and  C4_8 
ROOT
HETATM    1  O1  UNK     1      19.757  -1.775  33.719  1.00  0.00    -0.309 OA
HETATM    2  O4  UNK     1      17.130   0.816  35.445  1.00  0.00    -0.287 OA
HETATM    3  C1  UNK     1      18.586  -1.025  35.710  1.00  0.00     0.048 A 
HETATM    4  C2  UNK     1      19.475  -1.878  35.057  1.00  0.00     0.093 A 
HETATM    5  C3  UNK     1      19.122  -0.786  32.984  1.00  0.00     0.090 A 
HETATM    6  C5  UNK     1      17.919   0.031  34.936  1.00  0.00     0.187 A 
HETATM    7  C6  UNK     1      18.252   0.098  33.499  1.00  0.00     0.093 A 
HETATM    8  C7  UNK     1      20.124  -2.888  35.769  1.00  0.00     0.075 A 
HETATM    9  C8  UNK     1      18.339  -1.176  37.077  1.00  0.00     0.021 A 
HETATM   10  C9  UNK     1      19.878  -3.041  37.134  1.00  0.00     0.070 A 
HETATM   11  C11 UNK     1      18.987  -2.187  37.786  1.00  0.00     0.038 A 
ENDROOT
BRANCH   5  12
HETATM   12  C4  UNK     1      19.501  -0.761  31.557  1.00  0.00     0.001 A 
HETATM   13  C10 UNK     1      19.166   0.337  30.761  1.00  0.00     0.051 A 
HETATM   14  C13 UNK     1      19.524   0.360  29.412  1.00  0.00     0.069 A 
HETATM   15  C15 UNK     1      20.217  -0.715  28.857  1.00  0.00     0.037 A 
HETATM   16  C14 UNK     1      20.554  -1.812  29.649  1.00  0.00     0.004 A 
HETATM   17  C12 UNK     1      20.196  -1.835  30.997  1.00  0.00     0.014 A 
BRANCH  14  18
HETATM   18  O3  UNK     1      19.196   1.432  28.639  1.00  0.00    -0.356 OA
HETATM   19  C17 UNK     1      17.919   2.028  28.866  1.00  0.00     0.210 C 
ENDBRANCH  14  18
ENDBRANCH   5  12
BRANCH  10  20
HETATM   20  O2  UNK     1      20.509  -4.025  37.833  1.00  0.00    -0.356 OA
HETATM   21  C16 UNK     1      20.624  -5.298  37.198  1.00  0.00     0.210 C 
ENDBRANCH  10  20
TORSDOF 3
ENDMDL
MODEL 3
REMARK VINA RESULT:      -8.2     24.960     27.077
REMARK  3 active torsions:
REMARK  status: ('A' for Active; 'I' for Inactive)
REMARK    1  A    between atoms: C9_13  and  O2_2 
REMARK    2  A    between atoms: C13_17  and  O3_3 
REMARK    3  A    between atoms: C3_7  and  C4_8 
ROOT
HETATM    1  O1  UNK     1      13.344   7.473   8.524  1.00  0.00    -0.309 OA
HETATM    2  O4  UNK     1      15.379   4.155   9.726  1.00  0.00    -0.287 OA
HETATM    3  C1  UNK     1      15.326   6.510   9.544  1.00  0.00     0.048 A 
HETATM    4  C2  UNK     1      14.577   7.603   9.111  1.00  0.00     0.093 A 
HETATM    5  C3  UNK     1      12.828   6.199   8.347  1.00  0.00     0.090 A 
HETATM    6  C5  UNK     1      14.778   5.158   9.366  1.00  0.00     0.187 A 
HETATM    7  C6  UNK     1      13.449   5.072   8.727  1.00  0.00     0.093 A 
HETATM    8  C7  UNK     1      15.074   8.897   9.269  1.00  0.00     0.075 A 
HETATM    9  C8  UNK     1      16.577   6.703  10.136  1.00  0.00     0.021 A 
HETATM   10  C9  UNK     1      16.322   9.092   9.860  1.00  0.00     0.070 A 
HETATM   11  C11 UNK     1      17.072   7.998  10.292  1.00  0.00     0.038 A 
ENDROOT
BRANCH   5  12
HETATM   12  C4  UNK     1      11.494   6.174   7.712  1.00  0.00     0.001 A 
HETATM   13  C10 UNK     1      10.341   6.151   8.501  1.00  0.00     0.051 A 
HETATM   14  C13 UNK     1       9.082   6.128   7.900  1.00  0.00     0.069 A 
HETATM   15  C15 UNK     1       8.972   6.127   6.510  1.00  0.00     0.037 A 
HETATM   16  C14 UNK     1      10.121   6.150   5.719  1.00  0.00     0.004 A 
HETATM   17  C12 UNK     1      11.380   6.174   6.320  1.00  0.00     0.014 A 
BRANCH  14  18
HETATM   18  O3  UNK     1       7.960   6.106   8.672  1.00  0.00    -0.356 OA
HETATM   19  C17 UNK     1       7.673   4.891   9.363  1.00  0.00     0.210 C 
ENDBRANCH  14  18
ENDBRANCH   5  12
BRANCH  10  20
HETATM   20  O2  UNK     1      16.812  10.354  10.016  1.00  0.00    -0.356 OA
HETATM   21  C16 UNK     1      17.576  10.890   8.937  1.00  0.00     0.210 C 
ENDBRANCH  10  20
TORSDOF 3
ENDMDL
MODEL 4
REMARK VINA RESULT:      -8.2      1.138      6.391
REMARK  3 active torsions:
REMARK  status: ('A' for Active; 'I' for Inactive)
REMARK    1  A    between atoms: C9_13  and  O2_2 
REMARK    2  A    between atoms: C13_17  and  O3_3 
REMARK    3  A    between atoms: C3_7  and  C4_8 
ROOT
HETATM    1  O1  UNK     1      19.063  -0.510  32.862  1.00  0.00    -0.309 OA
HETATM    2  O4  UNK     1      21.417  -3.602  31.639  1.00  0.00    -0.287 OA
HETATM    3  C1  UNK     1      20.280  -1.611  31.071  1.00  0.00     0.048 A 
HETATM    4  C2  UNK     1      19.475  -0.581  31.555  1.00  0.00     0.093 A 
HETATM    5  C3  UNK     1      19.458  -1.513  33.734  1.00  0.00     0.090 A 
HETATM    6  C5  UNK     1      20.709  -2.670  31.995  1.00  0.00     0.187 A 
HETATM    7  C6  UNK     1      20.236  -2.551  33.389  1.00  0.00     0.093 A 
HETATM    8  C7  UNK     1      19.056   0.438  30.699  1.00  0.00     0.075 A 
HETATM    9  C8  UNK     1      20.670  -1.631  29.730  1.00  0.00     0.021 A 
HETATM   10  C9  UNK     1      19.443   0.421  29.359  1.00  0.00     0.070 A 
HETATM   11  C11 UNK     1      20.248  -0.612  28.876  1.00  0.00     0.038 A 
ENDROOT
BRANCH   5  12
HETATM   12  C4  UNK     1      18.964  -1.336  35.114  1.00  0.00     0.001 A 
HETATM   13  C10 UNK     1      18.077  -0.300  35.415  1.00  0.00     0.051 A 
HETATM   14  C13 UNK     1      17.611  -0.133  36.720  1.00  0.00     0.069 A 
HETATM   15  C15 UNK     1      18.030  -1.002  37.726  1.00  0.00     0.037 A 
HETATM   16  C14 UNK     1      18.915  -2.039  37.430  1.00  0.00     0.004 A 
HETATM   17  C12 UNK     1      19.382  -2.205  36.125  1.00  0.00     0.014 A 
BRANCH  14  18
HETATM   18  O3  UNK     1      16.746   0.878  37.010  1.00  0.00    -0.356 OA
HETATM   19  C17 UNK     1      15.423   0.769  36.488  1.00  0.00     0.210 C 
ENDBRANCH  14  18
ENDBRANCH   5  12
BRANCH  10  20
HETATM   20  O2  UNK     1      19.036   1.413  28.520  1.00  0.00    -0.356 OA
HETATM   21  C16 UNK     1      18.126   2.376  29.048  1.00  0.00     0.210 C 
ENDBRANCH  10  20
TORSDOF 3
ENDMDL
MODEL 5
REMARK VINA RESULT:      -8.1      2.124      7.441
REMARK  3 active torsions:
REMARK  status: ('A' for Active; 'I' for Inactive)
REMARK    1  A    between atoms: C9_13  and  O2_2 
REMARK    2  A    between atoms: C13_17  and  O3_3 
REMARK    3  A    between atoms: C3_7  and  C4_8 
ROOT
HETATM    1  O1  UNK     1      18.544   0.791  33.118  1.00  0.00    -0.309 OA
HETATM    2  O4  UNK     1      17.987   4.824  32.954  1.00  0.00    -0.287 OA
HETATM    3  C1  UNK     1      18.447   2.821  31.788  1.00  0.00     0.048 A 
HETATM    4  C2  UNK     1      18.626   1.444  31.914  1.00  0.00     0.093 A 
HETATM    5  C3  UNK     1      18.280   1.536  34.257  1.00  0.00     0.090 A 
HETATM    6  C5  UNK     1      18.158   3.613  32.992  1.00  0.00     0.187 A 
HETATM    7  C6  UNK     1      18.084   2.864  34.263  1.00  0.00     0.093 A 
HETATM    8  C7  UNK     1      18.899   0.670  30.787  1.00  0.00     0.075 A 
HETATM    9  C8  UNK     1      18.541   3.433  30.535  1.00  0.00     0.021 A 
HETATM   10  C9  UNK     1      18.994   1.278  29.535  1.00  0.00     0.070 A 
HETATM   11  C11 UNK     1      18.816   2.656  29.410  1.00  0.00     0.038 A 
ENDROOT
BRANCH   5  12
HETATM   12  C4  UNK     1      18.208   0.735  35.495  1.00  0.00     0.001 A 
HETATM   13  C10 UNK     1      18.605  -0.605  35.488  1.00  0.00     0.051 A 
HETATM   14  C13 UNK     1      18.537  -1.362  36.658  1.00  0.00     0.069 A 
HETATM   15  C15 UNK     1      18.071  -0.782  37.838  1.00  0.00     0.037 A 
HETATM   16  C14 UNK     1      17.675   0.555  37.849  1.00  0.00     0.004 A 
HETATM   17  C12 UNK     1      17.743   1.312  36.679  1.00  0.00     0.014 A 
BRANCH  14  18
HETATM   18  O3  UNK     1      18.924  -2.668  36.647  1.00  0.00    -0.356 OA
HETATM   19  C17 UNK     1      20.326  -2.929  36.714  1.00  0.00     0.210 C 
ENDBRANCH  14  18
ENDBRANCH   5  12
BRANCH  10  20
HETATM   20  O2  UNK     1      19.261   0.526  28.431  1.00  0.00    -0.356 OA
HETATM   21  C16 UNK     1      20.010  -0.672  28.629  1.00  0.00     0.210 C 
ENDBRANCH  10  20
TORSDOF 3
ENDMDL
MODEL 6
REMARK VINA RESULT:      -7.9      3.989      7.341
REMARK  3 active torsions:
REMARK  status: ('A' for Active; 'I' for Inactive)
REMARK    1  A    between atoms: C9_13  and  O2_2 
REMARK    2  A    between atoms: C13_17  and  O3_3 
REMARK    3  A    between atoms: C3_7  and  C4_8 
ROOT
HETATM    1  O1  UNK     1      18.312   3.543  34.565  1.00  0.00    -0.309 OA
HETATM    2  O4  UNK     1      18.229   2.216  30.715  1.00  0.00    -0.287 OA
HETATM    3  C1  UNK     1      18.380   4.054  32.191  1.00  0.00     0.048 A 
HETATM    4  C2  UNK     1      18.403   4.440  33.531  1.00  0.00     0.093 A 
HETATM    5  C3  UNK     1      18.184   2.197  34.262  1.00  0.00     0.090 A 
HETATM    6  C5  UNK     1      18.253   2.626  31.867  1.00  0.00     0.187 A 
HETATM    7  C6  UNK     1      18.156   1.701  33.015  1.00  0.00     0.093 A 
HETATM    8  C7  UNK     1      18.524   5.789  33.866  1.00  0.00     0.075 A 
HETATM    9  C8  UNK     1      18.476   5.011  31.179  1.00  0.00     0.021 A 
HETATM   10  C9  UNK     1      18.620   6.747  32.857  1.00  0.00     0.070 A 
HETATM   11  C11 UNK     1      18.595   6.359  31.517  1.00  0.00     0.038 A 
ENDROOT
BRANCH   5  12
HETATM   12  C4  UNK     1      18.101   1.320  35.448  1.00  0.00     0.001 A 
HETATM   13  C10 UNK     1      18.514  -0.012  35.367  1.00  0.00     0.051 A 
HETATM   14  C13 UNK     1      18.435  -0.840  36.487  1.00  0.00     0.069 A 
HETATM   15  C15 UNK     1      17.943  -0.338  37.691  1.00  0.00     0.037 A 
HETATM   16  C14 UNK     1      17.530   0.992  37.777  1.00  0.00     0.004 A 
HETATM   17  C12 UNK     1      17.609   1.819  36.656  1.00  0.00     0.014 A 
BRANCH  14  18
HETATM   18  O3  UNK     1      18.838  -2.137  36.404  1.00  0.00    -0.356 OA
HETATM   19  C17 UNK     1      20.208  -2.372  36.080  1.00  0.00     0.210 C 
ENDBRANCH  14  18
ENDBRANCH   5  12
BRANCH  10  20
HETATM   20  O2  UNK     1      18.738   8.066  33.179  1.00  0.00    -0.356 OA
HETATM   21  C16 UNK     1      19.405   8.377  34.402  1.00  0.00     0.210 C 
ENDBRANCH  10  20
TORSDOF 3
ENDMDL
MODEL 7
REMARK VINA RESULT:      -7.9      3.673      7.231
REMARK  3 active torsions:
REMARK  status: ('A' for Active; 'I' for Inactive)
REMARK    1  A    between atoms: C9_13  and  O2_2 
REMARK    2  A    between atoms: C13_17  and  O3_3 
REMARK    3  A    between atoms: C3_7  and  C4_8 
ROOT
HETATM    1  O1  UNK     1      19.084   1.916  31.479  1.00  0.00    -0.309 OA
HETATM    2  O4  UNK     1      17.934   2.071  27.574  1.00  0.00    -0.287 OA
HETATM    3  C1  UNK     1      18.966   0.838  29.305  1.00  0.00     0.048 A 
HETATM    4  C2  UNK     1      19.332   0.851  30.651  1.00  0.00     0.093 A 
HETATM    5  C3  UNK     1      18.451   3.030  30.951  1.00  0.00     0.090 A 
HETATM    6  C5  UNK     1      18.286   2.015  28.745  1.00  0.00     0.187 A 
HETATM    7  C6  UNK     1      18.046   3.136  29.676  1.00  0.00     0.093 A 
HETATM    8  C7  UNK     1      19.977  -0.254  31.209  1.00  0.00     0.075 A 
HETATM    9  C8  UNK     1      19.243  -0.275  28.509  1.00  0.00     0.021 A 
HETATM   10  C9  UNK     1      20.255  -1.367  30.416  1.00  0.00     0.070 A 
HETATM   11  C11 UNK     1      19.889  -1.377  29.069  1.00  0.00     0.038 A 
ENDROOT
BRANCH   5  12
HETATM   12  C4  UNK     1      18.229   4.114  31.929  1.00  0.00     0.001 A 
HETATM   13  C10 UNK     1      17.948   5.410  31.488  1.00  0.00     0.051 A 
HETATM   14  C13 UNK     1      17.739   6.434  32.412  1.00  0.00     0.069 A 
HETATM   15  C15 UNK     1      17.810   6.166  33.779  1.00  0.00     0.037 A 
HETATM   16  C14 UNK     1      18.089   4.873  34.223  1.00  0.00     0.004 A 
HETATM   17  C12 UNK     1      18.299   3.849  33.298  1.00  0.00     0.014 A 
BRANCH  14  18
HETATM   18  O3  UNK     1      17.466   7.696  31.980  1.00  0.00    -0.356 OA
HETATM   19  C17 UNK     1      16.090   8.057  31.861  1.00  0.00     0.210 C 
ENDBRANCH  14  18
ENDBRANCH   5  12
BRANCH  10  20
HETATM   20  O2  UNK     1      20.885  -2.447  30.956  1.00  0.00    -0.356 OA
HETATM   21  C16 UNK     1      20.921  -2.531  32.379  1.00  0.00     0.210 C 
ENDBRANCH  10  20
TORSDOF 3
ENDMDL
MODEL 8
REMARK VINA RESULT:      -7.8      5.073      6.654
REMARK  3 active torsions:
REMARK  status: ('A' for Active; 'I' for Inactive)
REMARK    1  A    between atoms: C9_13  and  O2_2 
REMARK    2  A    between atoms: C13_17  and  O3_3 
REMARK    3  A    between atoms: C3_7  and  C4_8 
ROOT
HETATM    1  O1  UNK     1      18.295   3.885  34.350  1.00  0.00    -0.309 OA
HETATM    2  O4  UNK     1      18.303   1.858  30.816  1.00  0.00    -0.287 OA
HETATM    3  C1  UNK     1      18.316   1.758  33.176  1.00  0.00     0.048 A 
HETATM    4  C2  UNK     1      18.312   2.513  34.348  1.00  0.00     0.093 A 
HETATM    5  C3  UNK     1      18.290   4.546  33.132  1.00  0.00     0.090 A 
HETATM    6  C5  UNK     1      18.303   2.457  31.883  1.00  0.00     0.187 A 
HETATM    7  C6  UNK     1      18.288   3.932  31.938  1.00  0.00     0.093 A 
HETATM    8  C7  UNK     1      18.323   1.875  35.589  1.00  0.00     0.075 A 
HETATM    9  C8  UNK     1      18.333   0.363  33.236  1.00  0.00     0.021 A 
HETATM   10  C9  UNK     1      18.340   0.481  35.651  1.00  0.00     0.070 A 
HETATM   11  C11 UNK     1      18.346  -0.273  34.478  1.00  0.00     0.038 A 
ENDROOT
BRANCH   5  12
HETATM   12  C4  UNK     1      18.266   6.018  33.248  1.00  0.00     0.001 A 
HETATM   13  C10 UNK     1      17.298   6.760  32.566  1.00  0.00     0.051 A 
HETATM   14  C13 UNK     1      17.275   8.151  32.676  1.00  0.00     0.069 A 
HETATM   15  C15 UNK     1      18.220   8.803  33.467  1.00  0.00     0.037 A 
HETATM   16  C14 UNK     1      19.188   8.066  34.150  1.00  0.00     0.004 A 
HETATM   17  C12 UNK     1      19.210   6.675  34.040  1.00  0.00     0.014 A 
BRANCH  14  18
HETATM   18  O3  UNK     1      16.331   8.871  32.011  1.00  0.00    -0.356 OA
HETATM   19  C17 UNK     1      15.193   9.297  32.759  1.00  0.00     0.210 C 
ENDBRANCH  14  18
ENDBRANCH   5  12
BRANCH  10  20
HETATM   20  O2  UNK     1      18.351  -0.146  36.861  1.00  0.00    -0.356 OA
HETATM   21  C16 UNK     1      17.692   0.515  37.940  1.00  0.00     0.210 C 
ENDBRANCH  10  20
TORSDOF 3
ENDMDL
MODEL 9
REMARK VINA RESULT:      -7.7      2.287      4.509
REMARK  3 active torsions:
REMARK  status: ('A' for Active; 'I' for Inactive)
REMARK    1  A    between atoms: C9_13  and  O2_2 
REMARK    2  A    between atoms: C13_17  and  O3_3 
REMARK    3  A    between atoms: C3_7  and  C4_8 
ROOT
HETATM    1  O1  UNK     1      18.878   0.411  34.484  1.00  0.00    -0.309 OA
HETATM    2  O4  UNK     1      17.284   1.135  38.162  1.00  0.00    -0.287 OA
HETATM    3  C1  UNK     1      18.403  -0.376  36.732  1.00  0.00     0.048 A 
HETATM    4  C2  UNK     1      18.929  -0.558  35.454  1.00  0.00     0.093 A 
HETATM    5  C3  UNK     1      18.268   1.618  34.788  1.00  0.00     0.090 A 
HETATM    6  C5  UNK     1      17.764   0.906  37.060  1.00  0.00     0.187 A 
HETATM    7  C6  UNK     1      17.731   1.915  35.981  1.00  0.00     0.093 A 
HETATM    8  C7  UNK     1      19.542  -1.765  35.117  1.00  0.00     0.075 A 
HETATM    9  C8  UNK     1      18.484  -1.398  37.680  1.00  0.00     0.021 A 
HETATM   10  C9  UNK     1      19.625  -2.787  36.062  1.00  0.00     0.070 A 
HETATM   11  C11 UNK     1      19.096  -2.605  37.340  1.00  0.00     0.038 A 
ENDROOT
BRANCH   5  12
HETATM   12  C4  UNK     1      18.274   2.590  33.675  1.00  0.00     0.001 A 
HETATM   13  C10 UNK     1      18.252   2.142  32.352  1.00  0.00     0.051 A 
HETATM   14  C13 UNK     1      18.258   3.061  31.302  1.00  0.00     0.069 A 
HETATM   15  C15 UNK     1      18.285   4.428  31.571  1.00  0.00     0.037 A 
HETATM   16  C14 UNK     1      18.305   4.879  32.891  1.00  0.00     0.004 A 
HETATM   17  C12 UNK     1      18.300   3.961  33.942  1.00  0.00     0.014 A 
BRANCH  14  18
HETATM   18  O3  UNK     1      18.237   2.621  30.013  1.00  0.00    -0.356 OA
HETATM   19  C17 UNK     1      18.958   1.423  29.725  1.00  0.00     0.210 C 
ENDBRANCH  14  18
ENDBRANCH   5  12
BRANCH  10  20
HETATM   20  O2  UNK     1      20.222  -3.968  35.738  1.00  0.00    -0.356 OA
HETATM   21  C16 UNK     1      20.172  -5.009  36.712  1.00  0.00     0.210 C 
ENDBRANCH  10  20
TORSDOF 3
ENDMDL
MODEL 10
REMARK VINA RESULT:      -7.7     24.117     26.682
REMARK  3 active torsions:
REMARK  status: ('A' for Active; 'I' for Inactive)
REMARK    1  A    between atoms: C9_13  and  O2_2 
REMARK    2  A    between atoms: C13_17  and  O3_3 
REMARK    3  A    between atoms: C3_7  and  C4_8 
ROOT
HETATM    1  O1  UNK     1      12.375   7.590   9.414  1.00  0.00    -0.309 OA
HETATM    2  O4  UNK     1      15.718   5.319   8.898  1.00  0.00    -0.287 OA
HETATM    3  C1  UNK     1      14.663   7.088  10.056  1.00  0.00     0.048 A 
HETATM    4  C2  UNK     1      13.487   7.826  10.182  1.00  0.00     0.093 A 
HETATM    5  C3  UNK     1      12.429   6.578   8.468  1.00  0.00     0.090 A 
HETATM    6  C5  UNK     1      14.720   6.009   9.060  1.00  0.00     0.187 A 
HETATM    7  C6  UNK     1      13.499   5.796   8.257  1.00  0.00     0.093 A 
HETATM    8  C7  UNK     1      13.406   8.855  11.120  1.00  0.00     0.075 A 
HETATM    9  C8  UNK     1      15.766   7.373  10.865  1.00  0.00     0.021 A 
HETATM   10  C9  UNK     1      14.506   9.142  11.930  1.00  0.00     0.070 A 
HETATM   11  C11 UNK     1      15.682   8.404  11.802  1.00  0.00     0.038 A 
ENDROOT
BRANCH   5  12
HETATM   12  C4  UNK     1      11.177   6.405   7.703  1.00  0.00     0.001 A 
HETATM   13  C10 UNK     1       9.952   6.326   8.370  1.00  0.00     0.051 A 
HETATM   14  C13 UNK     1       8.770   6.162   7.647  1.00  0.00     0.069 A 
HETATM   15  C15 UNK     1       8.810   6.077   6.255  1.00  0.00     0.037 A 
HETATM   16  C14 UNK     1      10.031   6.157   5.586  1.00  0.00     0.004 A 
HETATM   17  C12 UNK     1      11.213   6.320   6.309  1.00  0.00     0.014 A 
BRANCH  14  18
HETATM   18  O3  UNK     1       7.578   6.086   8.300  1.00  0.00    -0.356 OA
HETATM   19  C17 UNK     1       7.621   6.028   9.725  1.00  0.00     0.210 C 
ENDBRANCH  14  18
ENDBRANCH   5  12
BRANCH  10  20
HETATM   20  O2  UNK     1      14.432  10.146  12.848  1.00  0.00    -0.356 OA
HETATM   21  C16 UNK     1      14.184  11.461  12.351  1.00  0.00     0.210 C 
ENDBRANCH  10  20
TORSDOF 3
ENDMDL
