MODEL 1
REMARK VINA RESULT:      -8.8      0.000      0.000
REMARK  5 active torsions:
REMARK  status: ('A' for Active; 'I' for Inactive)
REMARK    1  A    between atoms: C14_19  and  O3_3 
REMARK    2  A    between atoms: C17_22  and  O3_3 
REMARK    3  A    between atoms: C18_23  and  O4_4 
REMARK    4  A    between atoms: C6_11  and  C7_12 
REMARK    5  A    between atoms: C17_22  and  C18_23 
ROOT
HETATM    1  C7  UNK     1      18.808   5.424  32.196  1.00  0.00    -0.035 A 
HETATM    2  C12 UNK     1      18.243   4.336  32.871  1.00  0.00     0.014 A 
HETATM    3  C13 UNK     1      19.136   5.295  30.842  1.00  0.00     0.014 A 
HETATM    4  C14 UNK     1      18.338   3.015  30.851  1.00  0.00     0.069 A 
HETATM    5  C15 UNK     1      18.009   3.135  32.201  1.00  0.00     0.037 A 
HETATM    6  C16 UNK     1      18.902   4.095  30.171  1.00  0.00     0.037 A 
ENDROOT
BRANCH   1   7
HETATM    7  C6  UNK     1      19.052   6.668  32.890  1.00  0.00     0.031 C 
HETATM    8  C3  UNK     1      18.205   7.676  33.091  1.00  0.00     0.067 A 
HETATM    9  C4  UNK     1      18.530   8.929  33.819  1.00  0.00     0.197 A 
HETATM   10  C5  UNK     1      16.796   7.711  32.622  1.00  0.00     0.197 A 
HETATM   11  C1  UNK     1      17.286   9.711  33.773  1.00  0.00     0.029 A 
HETATM   12  O1  UNK     1      19.577   9.248  34.337  1.00  0.00    -0.286 OA
HETATM   13  C2  UNK     1      16.290   9.011  33.085  1.00  0.00     0.029 A 
HETATM   14  C8  UNK     1      17.054  10.964  34.307  1.00  0.00     0.016 A 
HETATM   15  C9  UNK     1      15.024   9.538  32.908  1.00  0.00     0.016 A 
HETATM   16  C11 UNK     1      14.774  10.805  33.443  1.00  0.00     0.001 A 
HETATM   17  C10 UNK     1      15.779  11.511  34.136  1.00  0.00     0.001 A 
HETATM   18  O2  UNK     1      16.189   6.867  31.999  1.00  0.00    -0.286 OA
ENDBRANCH   1   7
BRANCH   4  19
HETATM   19  O3  UNK     1      18.108   1.844  30.197  1.00  0.00    -0.341 OA
BRANCH  19  20
HETATM   20  C17 UNK     1      19.248   1.132  29.717  1.00  0.00     0.285 C 
BRANCH  20  21
HETATM   21  C18 UNK     1      19.750   0.197  30.781  1.00  0.00     0.164 C 
HETATM   22  O5  UNK     1      20.921   0.018  31.082  1.00  0.00    -0.648 OA
BRANCH  21  23
HETATM   23  O4  UNK     1      18.709  -0.437  31.377  1.00  0.00    -0.775 OA
HETATM   24  H12 UNK     1      17.909  -0.442  30.808  1.00  0.00     0.167 HD
ENDBRANCH  21  23
ENDBRANCH  20  21
ENDBRANCH  19  20
ENDBRANCH   4  19
TORSDOF 5
ENDMDL
MODEL 2
REMARK VINA RESULT:      -8.7      1.112      1.756
REMARK  5 active torsions:
REMARK  status: ('A' for Active; 'I' for Inactive)
REMARK    1  A    between atoms: C14_19  and  O3_3 
REMARK    2  A    between atoms: C17_22  and  O3_3 
REMARK    3  A    between atoms: C18_23  and  O4_4 
REMARK    4  A    between atoms: C6_11  and  C7_12 
REMARK    5  A    between atoms: C17_22  and  C18_23 
ROOT
HETATM    1  C7  UNK     1      18.832   5.782  32.597  1.00  0.00    -0.035 A 
HETATM    2  C12 UNK     1      19.064   5.556  31.235  1.00  0.00     0.014 A 
HETATM    3  C13 UNK     1      18.331   4.743  33.389  1.00  0.00     0.014 A 
HETATM    4  C14 UNK     1      18.299   3.276  31.469  1.00  0.00     0.069 A 
HETATM    5  C15 UNK     1      18.798   4.308  30.673  1.00  0.00     0.037 A 
HETATM    6  C16 UNK     1      18.066   3.494  32.827  1.00  0.00     0.037 A 
ENDROOT
BRANCH   1   7
HETATM    7  C6  UNK     1      19.106   7.076  33.179  1.00  0.00     0.031 C 
HETATM    8  C3  UNK     1      18.265   8.094  33.351  1.00  0.00     0.067 A 
HETATM    9  C4  UNK     1      18.621   9.400  33.961  1.00  0.00     0.197 A 
HETATM   10  C5  UNK     1      16.831   8.089  32.963  1.00  0.00     0.197 A 
HETATM   11  C1  UNK     1      17.371  10.173  33.926  1.00  0.00     0.029 A 
HETATM   12  O1  UNK     1      19.695   9.761  34.391  1.00  0.00    -0.286 OA
HETATM   13  C2  UNK     1      16.342   9.420  33.353  1.00  0.00     0.029 A 
HETATM   14  C8  UNK     1      17.161  11.463  34.376  1.00  0.00     0.016 A 
HETATM   15  C9  UNK     1      15.065   9.927  33.209  1.00  0.00     0.016 A 
HETATM   16  C11 UNK     1      14.837  11.231  33.660  1.00  0.00     0.001 A 
HETATM   17  C10 UNK     1      15.874  11.991  34.237  1.00  0.00     0.001 A 
HETATM   18  O2  UNK     1      16.195   7.198  32.443  1.00  0.00    -0.286 OA
ENDBRANCH   1   7
BRANCH   4  19
HETATM   19  O3  UNK     1      18.041   2.058  30.920  1.00  0.00    -0.341 OA
BRANCH  19  20
HETATM   20  C17 UNK     1      19.018   1.528  30.025  1.00  0.00     0.285 C 
BRANCH  20  21
HETATM   21  C18 UNK     1      18.412   1.340  28.663  1.00  0.00     0.164 C 
HETATM   22  O5  UNK     1      17.812   2.191  28.023  1.00  0.00    -0.648 OA
BRANCH  21  23
HETATM   23  O4  UNK     1      18.624   0.073  28.226  1.00  0.00    -0.775 OA
HETATM   24  H12 UNK     1      19.361  -0.361  28.707  1.00  0.00     0.167 HD
ENDBRANCH  21  23
ENDBRANCH  20  21
ENDBRANCH  19  20
ENDBRANCH   4  19
TORSDOF 5
ENDMDL
MODEL 3
REMARK VINA RESULT:      -8.1      1.399      1.879
REMARK  5 active torsions:
REMARK  status: ('A' for Active; 'I' for Inactive)
REMARK    1  A    between atoms: C14_19  and  O3_3 
REMARK    2  A    between atoms: C17_22  and  O3_3 
REMARK    3  A    between atoms: C18_23  and  O4_4 
REMARK    4  A    between atoms: C6_11  and  C7_12 
REMARK    5  A    between atoms: C17_22  and  C18_23 
ROOT
HETATM    1  C7  UNK     1      18.470   6.741  32.736  1.00  0.00    -0.035 A 
HETATM    2  C12 UNK     1      18.206   5.660  33.585  1.00  0.00     0.014 A 
HETATM    3  C13 UNK     1      18.701   6.504  31.377  1.00  0.00     0.014 A 
HETATM    4  C14 UNK     1      18.405   4.132  31.725  1.00  0.00     0.069 A 
HETATM    5  C15 UNK     1      18.174   4.360  33.081  1.00  0.00     0.037 A 
HETATM    6  C16 UNK     1      18.669   5.205  30.872  1.00  0.00     0.037 A 
ENDROOT
BRANCH   1   7
HETATM    7  C6  UNK     1      18.505   8.088  33.258  1.00  0.00     0.031 C 
HETATM    8  C3  UNK     1      17.485   8.926  33.437  1.00  0.00     0.067 A 
HETATM    9  C4  UNK     1      17.599  10.302  33.983  1.00  0.00     0.197 A 
HETATM   10  C5  UNK     1      16.065   8.620  33.123  1.00  0.00     0.197 A 
HETATM   11  C1  UNK     1      16.219  10.810  33.985  1.00  0.00     0.029 A 
HETATM   12  O1  UNK     1      18.595  10.887  34.346  1.00  0.00    -0.286 OA
HETATM   13  C2  UNK     1      15.338   9.843  33.491  1.00  0.00     0.029 A 
HETATM   14  C8  UNK     1      15.775  12.051  34.400  1.00  0.00     0.016 A 
HETATM   15  C9  UNK     1      13.980  10.081  33.394  1.00  0.00     0.016 A 
HETATM   16  C11 UNK     1      13.515  11.332  33.810  1.00  0.00     0.001 A 
HETATM   17  C10 UNK     1      14.403  12.307  34.308  1.00  0.00     0.001 A 
HETATM   18  O2  UNK     1      15.599   7.599  32.666  1.00  0.00    -0.286 OA
ENDBRANCH   1   7
BRANCH   4  19
HETATM   19  O3  UNK     1      18.372   2.863  31.233  1.00  0.00    -0.341 OA
BRANCH  19  20
HETATM   20  C17 UNK     1      19.128   2.605  30.050  1.00  0.00     0.285 C 
BRANCH  20  21
HETATM   21  C18 UNK     1      18.285   1.852  29.061  1.00  0.00     0.164 C 
HETATM   22  O5  UNK     1      17.806   2.309  28.034  1.00  0.00    -0.648 OA
BRANCH  21  23
HETATM   23  O4  UNK     1      18.121   0.567  29.466  1.00  0.00    -0.775 OA
HETATM   24  H12 UNK     1      17.763   0.514  30.378  1.00  0.00     0.167 HD
ENDBRANCH  21  23
ENDBRANCH  20  21
ENDBRANCH  19  20
ENDBRANCH   4  19
TORSDOF 5
ENDMDL
MODEL 4
REMARK VINA RESULT:      -7.9      8.312     13.482
REMARK  5 active torsions:
REMARK  status: ('A' for Active; 'I' for Inactive)
REMARK    1  A    between atoms: C14_19  and  O3_3 
REMARK    2  A    between atoms: C17_22  and  O3_3 
REMARK    3  A    between atoms: C18_23  and  O4_4 
REMARK    4  A    between atoms: C6_11  and  C7_12 
REMARK    5  A    between atoms: C17_22  and  C18_23 
ROOT
HETATM    1  C7  UNK     1      20.067  -3.032  36.834  1.00  0.00    -0.035 A 
HETATM    2  C12 UNK     1      19.100  -2.409  37.632  1.00  0.00     0.014 A 
HETATM    3  C13 UNK     1      20.182  -2.670  35.488  1.00  0.00     0.014 A 
HETATM    4  C14 UNK     1      18.381  -1.080  35.748  1.00  0.00     0.069 A 
HETATM    5  C15 UNK     1      18.260  -1.437  37.091  1.00  0.00     0.037 A 
HETATM    6  C16 UNK     1      19.342  -1.697  34.946  1.00  0.00     0.037 A 
ENDROOT
BRANCH   1   7
HETATM    7  C6  UNK     1      20.937  -4.042  37.395  1.00  0.00     0.031 C 
HETATM    8  C3  UNK     1      20.704  -5.347  37.524  1.00  0.00     0.067 A 
HETATM    9  C4  UNK     1      21.651  -6.327  38.113  1.00  0.00     0.197 A 
HETATM   10  C5  UNK     1      19.459  -6.036  37.097  1.00  0.00     0.197 A 
HETATM   11  C1  UNK     1      20.945  -7.613  38.029  1.00  0.00     0.029 A 
HETATM   12  O1  UNK     1      22.757  -6.126  38.565  1.00  0.00    -0.286 OA
HETATM   13  C2  UNK     1      19.685  -7.447  37.446  1.00  0.00     0.029 A 
HETATM   14  C8  UNK     1      21.393  -8.853  38.445  1.00  0.00     0.016 A 
HETATM   15  C9  UNK     1      18.827  -8.513  37.254  1.00  0.00     0.016 A 
HETATM   16  C11 UNK     1      19.267  -9.774  37.670  1.00  0.00     0.001 A 
HETATM   17  C10 UNK     1      20.536  -9.942  38.259  1.00  0.00     0.001 A 
HETATM   18  O2  UNK     1      18.474  -5.558  36.578  1.00  0.00    -0.286 OA
ENDBRANCH   1   7
BRANCH   4  19
HETATM   19  O3  UNK     1      17.562  -0.130  35.220  1.00  0.00    -0.341 OA
BRANCH  19  20
HETATM   20  C17 UNK     1      18.181   1.046  34.701  1.00  0.00     0.285 C 
BRANCH  20  21
HETATM   21  C18 UNK     1      18.729   1.875  35.830  1.00  0.00     0.164 C 
HETATM   22  O5  UNK     1      19.912   2.048  36.080  1.00  0.00    -0.648 OA
BRANCH  21  23
HETATM   23  O4  UNK     1      17.714   2.416  36.549  1.00  0.00    -0.775 OA
HETATM   24  H12 UNK     1      17.438   3.288  36.193  1.00  0.00     0.167 HD
ENDBRANCH  21  23
ENDBRANCH  20  21
ENDBRANCH  19  20
ENDBRANCH   4  19
TORSDOF 5
ENDMDL
MODEL 5
REMARK VINA RESULT:      -7.7      1.802      2.976
REMARK  5 active torsions:
REMARK  status: ('A' for Active; 'I' for Inactive)
REMARK    1  A    between atoms: C14_19  and  O3_3 
REMARK    2  A    between atoms: C17_22  and  O3_3 
REMARK    3  A    between atoms: C18_23  and  O4_4 
REMARK    4  A    between atoms: C6_11  and  C7_12 
REMARK    5  A    between atoms: C17_22  and  C18_23 
ROOT
HETATM    1  C7  UNK     1      17.926   3.861  31.858  1.00  0.00    -0.035 A 
HETATM    2  C12 UNK     1      17.966   2.970  32.937  1.00  0.00     0.014 A 
HETATM    3  C13 UNK     1      18.474   3.475  30.630  1.00  0.00     0.014 A 
HETATM    4  C14 UNK     1      19.092   1.334  31.563  1.00  0.00     0.069 A 
HETATM    5  C15 UNK     1      18.547   1.711  32.790  1.00  0.00     0.037 A 
HETATM    6  C16 UNK     1      19.055   2.216  30.483  1.00  0.00     0.037 A 
ENDROOT
BRANCH   1   7
HETATM    7  C6  UNK     1      17.324   5.166  32.011  1.00  0.00     0.031 C 
HETATM    8  C3  UNK     1      17.863   6.260  32.547  1.00  0.00     0.067 A 
HETATM    9  C4  UNK     1      17.180   7.573  32.670  1.00  0.00     0.197 A 
HETATM   10  C5  UNK     1      19.236   6.347  33.108  1.00  0.00     0.197 A 
HETATM   11  C1  UNK     1      18.173   8.443  33.316  1.00  0.00     0.029 A 
HETATM   12  O1  UNK     1      16.058   7.873  32.323  1.00  0.00    -0.286 OA
HETATM   13  C2  UNK     1      19.354   7.739  33.568  1.00  0.00     0.029 A 
HETATM   14  C8  UNK     1      18.036   9.775  33.659  1.00  0.00     0.016 A 
HETATM   15  C9  UNK     1      20.443   8.341  34.169  1.00  0.00     0.016 A 
HETATM   16  C11 UNK     1      20.320   9.688  34.522  1.00  0.00     0.001 A 
HETATM   17  C10 UNK     1      19.129  10.398  34.269  1.00  0.00     0.001 A 
HETATM   18  O2  UNK     1      20.077   5.478  33.177  1.00  0.00    -0.286 OA
ENDBRANCH   1   7
BRANCH   4  19
HETATM   19  O3  UNK     1      19.658   0.104  31.419  1.00  0.00    -0.341 OA
BRANCH  19  20
HETATM   20  C17 UNK     1      20.616  -0.052  30.373  1.00  0.00     0.285 C 
BRANCH  20  21
HETATM   21  C18 UNK     1      20.060  -0.949  29.302  1.00  0.00     0.164 C 
HETATM   22  O5  UNK     1      19.796  -0.616  28.157  1.00  0.00    -0.648 OA
BRANCH  21  23
HETATM   23  O4  UNK     1      19.888  -2.204  29.786  1.00  0.00    -0.775 OA
HETATM   24  H12 UNK     1      19.119  -2.260  30.394  1.00  0.00     0.167 HD
ENDBRANCH  21  23
ENDBRANCH  20  21
ENDBRANCH  19  20
ENDBRANCH   4  19
TORSDOF 5
ENDMDL
MODEL 6
REMARK VINA RESULT:      -7.6     16.428     18.515
REMARK  5 active torsions:
REMARK  status: ('A' for Active; 'I' for Inactive)
REMARK    1  A    between atoms: C14_19  and  O3_3 
REMARK    2  A    between atoms: C17_22  and  O3_3 
REMARK    3  A    between atoms: C18_23  and  O4_4 
REMARK    4  A    between atoms: C6_11  and  C7_12 
REMARK    5  A    between atoms: C17_22  and  C18_23 
ROOT
HETATM    1  C7  UNK     1      27.373  -9.313  37.102  1.00  0.00    -0.035 A 
HETATM    2  C12 UNK     1      28.017  -8.376  36.286  1.00  0.00     0.014 A 
HETATM    3  C13 UNK     1      27.629  -9.315  38.477  1.00  0.00     0.014 A 
HETATM    4  C14 UNK     1      29.156  -7.462  38.210  1.00  0.00     0.069 A 
HETATM    5  C15 UNK     1      28.906  -7.454  36.837  1.00  0.00     0.037 A 
HETATM    6  C16 UNK     1      28.518  -8.393  39.030  1.00  0.00     0.037 A 
ENDROOT
BRANCH   1   7
HETATM    7  C6  UNK     1      26.453 -10.269  36.530  1.00  0.00     0.031 C 
HETATM    8  C3  UNK     1      25.123 -10.204  36.484  1.00  0.00     0.067 A 
HETATM    9  C4  UNK     1      24.240 -11.231  35.876  1.00  0.00     0.197 A 
HETATM   10  C5  UNK     1      24.306  -9.091  37.032  1.00  0.00     0.197 A 
HETATM   11  C1  UNK     1      22.880 -10.708  36.074  1.00  0.00     0.029 A 
HETATM   12  O1  UNK     1      24.555 -12.269  35.337  1.00  0.00    -0.286 OA
HETATM   13  C2  UNK     1      22.918  -9.478  36.738  1.00  0.00     0.029 A 
HETATM   14  C8  UNK     1      21.687 -11.287  35.688  1.00  0.00     0.016 A 
HETATM   15  C9  UNK     1      21.763  -8.781  37.041  1.00  0.00     0.016 A 
HETATM   16  C11 UNK     1      20.547  -9.355  36.657  1.00  0.00     0.001 A 
HETATM   17  C10 UNK     1      20.509 -10.594  35.987  1.00  0.00     0.001 A 
HETATM   18  O2  UNK     1      24.683  -8.087  37.596  1.00  0.00    -0.286 OA
ENDBRANCH   1   7
BRANCH   4  19
HETATM   19  O3  UNK     1      30.023  -6.561  38.748  1.00  0.00    -0.341 OA
BRANCH  19  20
HETATM   20  C17 UNK     1      30.002  -5.239  38.212  1.00  0.00     0.285 C 
BRANCH  20  21
HETATM   21  C18 UNK     1      29.146  -4.353  39.073  1.00  0.00     0.164 C 
HETATM   22  O5  UNK     1      29.533  -3.685  40.020  1.00  0.00    -0.648 OA
BRANCH  21  23
HETATM   23  O4  UNK     1      27.857  -4.392  38.649  1.00  0.00    -0.775 OA
HETATM   24  H12 UNK     1      27.451  -5.273  38.795  1.00  0.00     0.167 HD
ENDBRANCH  21  23
ENDBRANCH  20  21
ENDBRANCH  19  20
ENDBRANCH   4  19
TORSDOF 5
ENDMDL
MODEL 7
REMARK VINA RESULT:      -7.6     13.981     16.886
REMARK  5 active torsions:
REMARK  status: ('A' for Active; 'I' for Inactive)
REMARK    1  A    between atoms: C14_19  and  O3_3 
REMARK    2  A    between atoms: C17_22  and  O3_3 
REMARK    3  A    between atoms: C18_23  and  O4_4 
REMARK    4  A    between atoms: C6_11  and  C7_12 
REMARK    5  A    between atoms: C17_22  and  C18_23 
ROOT
HETATM    1  C7  UNK     1      23.917  -8.075  38.633  1.00  0.00    -0.035 A 
HETATM    2  C12 UNK     1      23.331  -7.578  39.803  1.00  0.00     0.014 A 
HETATM    3  C13 UNK     1      23.136  -8.216  37.481  1.00  0.00     0.014 A 
HETATM    4  C14 UNK     1      21.209  -7.370  38.668  1.00  0.00     0.069 A 
HETATM    5  C15 UNK     1      21.981  -7.227  39.820  1.00  0.00     0.037 A 
HETATM    6  C16 UNK     1      21.787  -7.865  37.498  1.00  0.00     0.037 A 
ENDROOT
BRANCH   1   7
HETATM    7  C6  UNK     1      25.315  -8.441  38.616  1.00  0.00     0.031 C 
HETATM    8  C3  UNK     1      26.375  -7.634  38.621  1.00  0.00     0.067 A 
HETATM    9  C4  UNK     1      27.790  -8.086  38.603  1.00  0.00     0.197 A 
HETATM   10  C5  UNK     1      26.316  -6.150  38.649  1.00  0.00     0.197 A 
HETATM   11  C1  UNK     1      28.571  -6.840  38.619  1.00  0.00     0.029 A 
HETATM   12  O1  UNK     1      28.217  -9.219  38.579  1.00  0.00    -0.286 OA
HETATM   13  C2  UNK     1      27.725  -5.728  38.645  1.00  0.00     0.029 A 
HETATM   14  C8  UNK     1      29.946  -6.705  38.610  1.00  0.00     0.016 A 
HETATM   15  C9  UNK     1      28.221  -4.439  38.666  1.00  0.00     0.016 A 
HETATM   16  C11 UNK     1      29.611  -4.285  38.658  1.00  0.00     0.001 A 
HETATM   17  C10 UNK     1      30.464  -5.406  38.630  1.00  0.00     0.001 A 
HETATM   18  O2  UNK     1      25.337  -5.436  38.670  1.00  0.00    -0.286 OA
ENDBRANCH   1   7
BRANCH   4  19
HETATM   19  O3  UNK     1      19.893  -7.025  38.684  1.00  0.00    -0.341 OA
BRANCH  19  20
HETATM   20  C17 UNK     1      19.029  -7.713  37.780  1.00  0.00     0.285 C 
BRANCH  20  21
HETATM   21  C18 UNK     1      18.376  -6.730  36.851  1.00  0.00     0.164 C 
HETATM   22  O5  UNK     1      18.883  -6.246  35.850  1.00  0.00    -0.648 OA
BRANCH  21  23
HETATM   23  O4  UNK     1      17.120  -6.444  37.278  1.00  0.00    -0.775 OA
HETATM   24  H12 UNK     1      16.685  -5.771  36.711  1.00  0.00     0.167 HD
ENDBRANCH  21  23
ENDBRANCH  20  21
ENDBRANCH  19  20
ENDBRANCH   4  19
TORSDOF 5
ENDMDL
MODEL 8
REMARK VINA RESULT:      -7.6     14.983     18.448
REMARK  5 active torsions:
REMARK  status: ('A' for Active; 'I' for Inactive)
REMARK    1  A    between atoms: C14_19  and  O3_3 
REMARK    2  A    between atoms: C17_22  and  O3_3 
REMARK    3  A    between atoms: C18_23  and  O4_4 
REMARK    4  A    between atoms: C6_11  and  C7_12 
REMARK    5  A    between atoms: C17_22  and  C18_23 
ROOT
HETATM    1  C7  UNK     1      19.389  -1.588  14.152  1.00  0.00    -0.035 A 
HETATM    2  C12 UNK     1      18.302  -2.448  14.347  1.00  0.00     0.014 A 
HETATM    3  C13 UNK     1      20.543  -2.073  13.527  1.00  0.00     0.014 A 
HETATM    4  C14 UNK     1      19.522  -4.252  13.302  1.00  0.00     0.069 A 
HETATM    5  C15 UNK     1      18.369  -3.776  13.924  1.00  0.00     0.037 A 
HETATM    6  C16 UNK     1      20.610  -3.400  13.103  1.00  0.00     0.037 A 
ENDROOT
BRANCH   1   7
HETATM    7  C6  UNK     1      19.321  -0.213  14.592  1.00  0.00     0.031 C 
HETATM    8  C3  UNK     1      19.249   0.247  15.840  1.00  0.00     0.067 A 
HETATM    9  C4  UNK     1      19.182   1.682  16.217  1.00  0.00     0.197 A 
HETATM   10  C5  UNK     1      19.228  -0.600  17.061  1.00  0.00     0.197 A 
HETATM   11  C1  UNK     1      19.118   1.671  17.685  1.00  0.00     0.029 A 
HETATM   12  O1  UNK     1      19.178   2.650  15.489  1.00  0.00    -0.286 OA
HETATM   13  C2  UNK     1      19.144   0.360  18.170  1.00  0.00     0.029 A 
HETATM   14  C8  UNK     1      19.042   2.758  18.536  1.00  0.00     0.016 A 
HETATM   15  C9  UNK     1      19.097   0.087  19.524  1.00  0.00     0.016 A 
HETATM   16  C11 UNK     1      19.020   1.176  20.398  1.00  0.00     0.001 A 
HETATM   17  C10 UNK     1      18.993   2.497  19.909  1.00  0.00     0.001 A 
HETATM   18  O2  UNK     1      19.269  -1.809  17.139  1.00  0.00    -0.286 OA
ENDBRANCH   1   7
BRANCH   4  19
HETATM   19  O3  UNK     1      19.587  -5.546  12.887  1.00  0.00    -0.341 OA
BRANCH  19  20
HETATM   20  C17 UNK     1      19.728  -6.546  13.896  1.00  0.00     0.285 C 
BRANCH  20  21
HETATM   21  C18 UNK     1      21.178  -6.906  14.056  1.00  0.00     0.164 C 
HETATM   22  O5  UNK     1      21.812  -7.660  13.333  1.00  0.00    -0.648 OA
BRANCH  21  23
HETATM   23  O4  UNK     1      21.703  -6.270  15.134  1.00  0.00    -0.775 OA
HETATM   24  H12 UNK     1      21.311  -5.379  15.259  1.00  0.00     0.167 HD
ENDBRANCH  21  23
ENDBRANCH  20  21
ENDBRANCH  19  20
ENDBRANCH   4  19
TORSDOF 5
ENDMDL
MODEL 9
REMARK VINA RESULT:      -7.5      2.123      8.377
REMARK  5 active torsions:
REMARK  status: ('A' for Active; 'I' for Inactive)
REMARK    1  A    between atoms: C14_19  and  O3_3 
REMARK    2  A    between atoms: C17_22  and  O3_3 
REMARK    3  A    between atoms: C18_23  and  O4_4 
REMARK    4  A    between atoms: C6_11  and  C7_12 
REMARK    5  A    between atoms: C17_22  and  C18_23 
ROOT
HETATM    1  C7  UNK     1      17.834   6.709  34.009  1.00  0.00    -0.035 A 
HETATM    2  C12 UNK     1      16.572   7.271  33.787  1.00  0.00     0.014 A 
HETATM    3  C13 UNK     1      18.947   7.547  34.124  1.00  0.00     0.014 A 
HETATM    4  C14 UNK     1      17.540   9.484  33.797  1.00  0.00     0.069 A 
HETATM    5  C15 UNK     1      16.425   8.654  33.681  1.00  0.00     0.037 A 
HETATM    6  C16 UNK     1      18.802   8.930  34.019  1.00  0.00     0.037 A 
ENDROOT
BRANCH   1   7
HETATM    7  C6  UNK     1      17.986   5.275  34.117  1.00  0.00     0.031 C 
HETATM    8  C3  UNK     1      18.187   4.395  33.138  1.00  0.00     0.067 A 
HETATM    9  C4  UNK     1      18.335   2.929  33.327  1.00  0.00     0.197 A 
HETATM   10  C5  UNK     1      18.301   4.735  31.696  1.00  0.00     0.197 A 
HETATM   11  C1  UNK     1      18.537   2.404  31.969  1.00  0.00     0.029 A 
HETATM   12  O1  UNK     1      18.298   2.297  34.360  1.00  0.00    -0.286 OA
HETATM   13  C2  UNK     1      18.517   3.441  31.032  1.00  0.00     0.029 A 
HETATM   14  C8  UNK     1      18.726   1.088  31.591  1.00  0.00     0.016 A 
HETATM   15  C9  UNK     1      18.688   3.202  29.682  1.00  0.00     0.016 A 
HETATM   16  C11 UNK     1      18.880   1.875  29.283  1.00  0.00     0.001 A 
HETATM   17  C10 UNK     1      18.899   0.830  30.228  1.00  0.00     0.001 A 
HETATM   18  O2  UNK     1      18.233   5.825  31.173  1.00  0.00    -0.286 OA
ENDBRANCH   1   7
BRANCH   4  19
HETATM   19  O3  UNK     1      17.397  10.833  33.696  1.00  0.00    -0.341 OA
BRANCH  19  20
HETATM   20  C17 UNK     1      18.515  11.636  34.073  1.00  0.00     0.285 C 
BRANCH  20  21
HETATM   21  C18 UNK     1      18.063  12.743  34.984  1.00  0.00     0.164 C 
HETATM   22  O5  UNK     1      16.908  12.975  35.308  1.00  0.00    -0.648 OA
BRANCH  21  23
HETATM   23  O4  UNK     1      19.130  13.467  35.407  1.00  0.00    -0.775 OA
HETATM   24  H12 UNK     1      19.929  12.909  35.520  1.00  0.00     0.167 HD
ENDBRANCH  21  23
ENDBRANCH  20  21
ENDBRANCH  19  20
ENDBRANCH   4  19
TORSDOF 5
ENDMDL
MODEL 10
REMARK VINA RESULT:      -7.5     22.541     24.511
REMARK  5 active torsions:
REMARK  status: ('A' for Active; 'I' for Inactive)
REMARK    1  A    between atoms: C14_19  and  O3_3 
REMARK    2  A    between atoms: C17_22  and  O3_3 
REMARK    3  A    between atoms: C18_23  and  O4_4 
REMARK    4  A    between atoms: C6_11  and  C7_12 
REMARK    5  A    between atoms: C17_22  and  C18_23 
ROOT
HETATM    1  C7  UNK     1       6.381   4.832  10.708  1.00  0.00    -0.035 A 
HETATM    2  C12 UNK     1       5.980   3.495  10.603  1.00  0.00     0.014 A 
HETATM    3  C13 UNK     1       6.363   5.457  11.959  1.00  0.00     0.014 A 
HETATM    4  C14 UNK     1       5.550   3.423  12.979  1.00  0.00     0.069 A 
HETATM    5  C15 UNK     1       5.565   2.793  11.735  1.00  0.00     0.037 A 
HETATM    6  C16 UNK     1       5.949   4.756  13.091  1.00  0.00     0.037 A 
ENDROOT
BRANCH   1   7
HETATM    7  C6  UNK     1       6.810   5.559   9.535  1.00  0.00     0.031 C 
HETATM    8  C3  UNK     1       8.039   5.655   9.032  1.00  0.00     0.067 A 
HETATM    9  C4  UNK     1       8.404   6.425   7.815  1.00  0.00     0.197 A 
HETATM   10  C5  UNK     1       9.247   5.005   9.603  1.00  0.00     0.197 A 
HETATM   11  C1  UNK     1       9.854   6.221   7.675  1.00  0.00     0.029 A 
HETATM   12  O1  UNK     1       7.683   7.078   7.094  1.00  0.00    -0.286 OA
HETATM   13  C2  UNK     1      10.338   5.406   8.702  1.00  0.00     0.029 A 
HETATM   14  C8  UNK     1      10.688   6.728   6.698  1.00  0.00     0.016 A 
HETATM   15  C9  UNK     1      11.674   5.065   8.789  1.00  0.00     0.016 A 
HETATM   16  C11 UNK     1      12.532   5.571   7.807  1.00  0.00     0.001 A 
HETATM   17  C10 UNK     1      12.044   6.393   6.772  1.00  0.00     0.001 A 
HETATM   18  O2  UNK     1       9.329   4.302  10.587  1.00  0.00    -0.286 OA
ENDBRANCH   1   7
BRANCH   4  19
HETATM   19  O3  UNK     1       5.146   2.738  14.084  1.00  0.00    -0.341 OA
BRANCH  19  20
HETATM   20  C17 UNK     1       5.640   3.189  15.345  1.00  0.00     0.285 C 
BRANCH  20  21
HETATM   21  C18 UNK     1       5.820   2.017  16.269  1.00  0.00     0.164 C 
HETATM   22  O5  UNK     1       5.336   0.906  16.118  1.00  0.00    -0.648 OA
BRANCH  21  23
HETATM   23  O4  UNK     1       6.610   2.365  17.316  1.00  0.00    -0.775 OA
HETATM   24  H12 UNK     1       6.116   2.875  17.994  1.00  0.00     0.167 HD
ENDBRANCH  21  23
ENDBRANCH  20  21
ENDBRANCH  19  20
ENDBRANCH   4  19
TORSDOF 5
ENDMDL
