MODEL 1
REMARK VINA RESULT:      -8.6      0.000      0.000
REMARK  3 active torsions:
REMARK  status: ('A' for Active; 'I' for Inactive)
REMARK    1  A    between atoms: C17_21  and  O2_2 
REMARK    2  A    between atoms: C5_9  and  O2_2 
REMARK    3  A    between atoms: C1_5  and  C2_6 
ROOT
HETATM    1  N1  UNK     1      17.586   6.658  31.634  1.00  0.00    -0.195 NA
HETATM    2  C17 UNK     1      18.609   4.418  32.539  1.00  0.00     0.299 C 
HETATM    3  C18 UNK     1      18.038   5.667  32.034  1.00  0.00     0.085 C 
ENDROOT
BRANCH   2   4
HETATM    4  O2  UNK     1      17.651   3.379  32.483  1.00  0.00    -0.331 OA
BRANCH   4   5
HETATM    5  C5  UNK     1      18.239   2.192  32.101  1.00  0.00     0.155 A 
HETATM    6  C1  UNK     1      18.515   1.197  32.964  1.00  0.00     0.123 A 
HETATM    7  O1  UNK     1      19.134   0.006  32.619  1.00  0.00    -0.306 OA
HETATM    8  C4  UNK     1      19.476  -0.197  31.307  1.00  0.00     0.090 A 
HETATM    9  C11 UNK     1      20.086  -1.411  30.990  1.00  0.00     0.038 A 
HETATM   10  C3  UNK     1      19.239   0.745  30.310  1.00  0.00     0.051 A 
HETATM   11  C15 UNK     1      20.458  -1.677  29.671  1.00  0.00     0.003 A 
HETATM   12  C14 UNK     1      20.220  -0.732  28.673  1.00  0.00     0.001 A 
HETATM   13  C9  UNK     1      19.610   0.483  28.988  1.00  0.00     0.018 A 
HETATM   14  C6  UNK     1      18.597   2.018  30.672  1.00  0.00     0.221 A 
HETATM   15  O3  UNK     1      18.370   2.887  29.841  1.00  0.00    -0.284 OA
BRANCH   6  16
HETATM   16  C2  UNK     1      18.200   1.287  34.401  1.00  0.00     0.001 A 
HETATM   17  C7  UNK     1      19.031   2.016  35.252  1.00  0.00     0.015 A 
HETATM   18  C12 UNK     1      18.733   2.102  36.612  1.00  0.00     0.007 A 
HETATM   19  C10 UNK     1      17.605   1.458  37.122  1.00  0.00    -0.062 A 
HETATM   20  C13 UNK     1      16.774   0.729  36.270  1.00  0.00     0.007 A 
HETATM   21  C16 UNK     1      17.287   1.550  38.576  1.00  0.00     0.048 C 
HETATM   22  C8  UNK     1      17.073   0.643  34.910  1.00  0.00     0.015 A 
ENDBRANCH   6  16
ENDBRANCH   4   5
ENDBRANCH   2   4
TORSDOF 3
ENDMDL
MODEL 2
REMARK VINA RESULT:      -7.9      2.308      4.609
REMARK  3 active torsions:
REMARK  status: ('A' for Active; 'I' for Inactive)
REMARK    1  A    between atoms: C17_21  and  O2_2 
REMARK    2  A    between atoms: C5_9  and  O2_2 
REMARK    3  A    between atoms: C1_5  and  C2_6 
ROOT
HETATM    1  N1  UNK     1      20.457  -1.780  29.486  1.00  0.00    -0.195 NA
HETATM    2  C17 UNK     1      20.005  -0.206  31.535  1.00  0.00     0.299 C 
HETATM    3  C18 UNK     1      20.257  -1.084  30.392  1.00  0.00     0.085 C 
ENDROOT
BRANCH   2   4
HETATM    4  O2  UNK     1      18.653   0.213  31.548  1.00  0.00    -0.331 OA
BRANCH   4   5
HETATM    5  C5  UNK     1      18.563   1.571  31.764  1.00  0.00     0.155 A 
HETATM    6  C1  UNK     1      18.284   2.107  32.966  1.00  0.00     0.123 A 
HETATM    7  O1  UNK     1      18.153   3.465  33.211  1.00  0.00    -0.306 OA
HETATM    8  C4  UNK     1      18.341   4.337  32.170  1.00  0.00     0.090 A 
HETATM    9  C11 UNK     1      18.215   5.698  32.451  1.00  0.00     0.038 A 
HETATM   10  C3  UNK     1      18.643   3.918  30.877  1.00  0.00     0.051 A 
HETATM   11  C15 UNK     1      18.393   6.636  31.433  1.00  0.00     0.003 A 
HETATM   12  C14 UNK     1      18.697   6.214  30.139  1.00  0.00     0.001 A 
HETATM   13  C9  UNK     1      18.823   4.854  29.855  1.00  0.00     0.018 A 
HETATM   14  C6  UNK     1      18.767   2.477  30.608  1.00  0.00     0.221 A 
HETATM   15  O3  UNK     1      19.024   2.048  29.491  1.00  0.00    -0.284 OA
BRANCH   6  16
HETATM   16  C2  UNK     1      18.059   1.282  34.167  1.00  0.00     0.001 A 
HETATM   17  C7  UNK     1      17.239   0.157  34.096  1.00  0.00     0.015 A 
HETATM   18  C12 UNK     1      17.026  -0.624  35.232  1.00  0.00     0.007 A 
HETATM   19  C10 UNK     1      17.634  -0.280  36.439  1.00  0.00    -0.062 A 
HETATM   20  C13 UNK     1      18.456   0.845  36.510  1.00  0.00     0.007 A 
HETATM   21  C16 UNK     1      17.408  -1.115  37.654  1.00  0.00     0.048 C 
HETATM   22  C8  UNK     1      18.668   1.626  35.374  1.00  0.00     0.015 A 
ENDBRANCH   6  16
ENDBRANCH   4   5
ENDBRANCH   2   4
TORSDOF 3
ENDMDL
MODEL 3
REMARK VINA RESULT:      -7.9      3.433      4.861
REMARK  3 active torsions:
REMARK  status: ('A' for Active; 'I' for Inactive)
REMARK    1  A    between atoms: C17_21  and  O2_2 
REMARK    2  A    between atoms: C5_9  and  O2_2 
REMARK    3  A    between atoms: C1_5  and  C2_6 
ROOT
HETATM    1  N1  UNK     1      21.025  -4.119  37.316  1.00  0.00    -0.195 NA
HETATM    2  C17 UNK     1      20.604  -2.129  35.659  1.00  0.00     0.299 C 
HETATM    3  C18 UNK     1      20.838  -3.239  36.583  1.00  0.00     0.085 C 
ENDROOT
BRANCH   2   4
HETATM    4  O2  UNK     1      19.425  -2.351  34.909  1.00  0.00    -0.331 OA
BRANCH   4   5
HETATM    5  C5  UNK     1      19.446  -1.625  33.738  1.00  0.00     0.155 A 
HETATM    6  C1  UNK     1      18.821  -0.442  33.595  1.00  0.00     0.123 A 
HETATM    7  O1  UNK     1      18.794   0.298  32.423  1.00  0.00    -0.306 OA
HETATM    8  C4  UNK     1      19.464  -0.186  31.330  1.00  0.00     0.090 A 
HETATM    9  C11 UNK     1      19.428   0.586  30.169  1.00  0.00     0.038 A 
HETATM   10  C3  UNK     1      20.159  -1.393  31.342  1.00  0.00     0.051 A 
HETATM   11  C15 UNK     1      20.091   0.147  29.021  1.00  0.00     0.003 A 
HETATM   12  C14 UNK     1      20.787  -1.062  29.036  1.00  0.00     0.001 A 
HETATM   13  C9  UNK     1      20.823  -1.837  30.196  1.00  0.00     0.018 A 
HETATM   14  C6  UNK     1      20.177  -2.190  32.578  1.00  0.00     0.221 A 
HETATM   15  O3  UNK     1      20.765  -3.261  32.648  1.00  0.00    -0.284 OA
BRANCH   6  16
HETATM   16  C2  UNK     1      18.065   0.190  34.691  1.00  0.00     0.001 A 
HETATM   17  C7  UNK     1      16.731  -0.155  34.908  1.00  0.00     0.015 A 
HETATM   18  C12 UNK     1      16.015   0.443  35.945  1.00  0.00     0.007 A 
HETATM   19  C10 UNK     1      16.633   1.386  36.766  1.00  0.00    -0.062 A 
HETATM   20  C13 UNK     1      17.967   1.732  36.550  1.00  0.00     0.007 A 
HETATM   21  C16 UNK     1      15.868   2.025  37.876  1.00  0.00     0.048 C 
HETATM   22  C8  UNK     1      18.683   1.134  35.512  1.00  0.00     0.015 A 
ENDBRANCH   6  16
ENDBRANCH   4   5
ENDBRANCH   2   4
TORSDOF 3
ENDMDL
MODEL 4
REMARK VINA RESULT:      -7.8     23.543     25.747
REMARK  3 active torsions:
REMARK  status: ('A' for Active; 'I' for Inactive)
REMARK    1  A    between atoms: C17_21  and  O2_2 
REMARK    2  A    between atoms: C5_9  and  O2_2 
REMARK    3  A    between atoms: C1_5  and  C2_6 
ROOT
HETATM    1  N1  UNK     1      16.393   4.776   9.477  1.00  0.00    -0.195 NA
HETATM    2  C17 UNK     1      13.864   5.405   9.771  1.00  0.00     0.299 C 
HETATM    3  C18 UNK     1      15.275   5.055   9.607  1.00  0.00     0.085 C 
ENDROOT
BRANCH   2   4
HETATM    4  O2  UNK     1      13.731   6.554  10.586  1.00  0.00    -0.331 OA
BRANCH   4   5
HETATM    5  C5  UNK     1      14.225   7.670   9.944  1.00  0.00     0.155 A 
HETATM    6  C1  UNK     1      13.647   8.205   8.853  1.00  0.00     0.123 A 
HETATM    7  O1  UNK     1      14.135   9.304   8.164  1.00  0.00    -0.306 OA
HETATM    8  C4  UNK     1      15.272   9.914   8.627  1.00  0.00     0.090 A 
HETATM    9  C11 UNK     1      15.731  11.025   7.920  1.00  0.00     0.038 A 
HETATM   10  C3  UNK     1      15.964   9.469   9.751  1.00  0.00     0.051 A 
HETATM   11  C15 UNK     1      16.884  11.689   8.341  1.00  0.00     0.003 A 
HETATM   12  C14 UNK     1      17.575  11.243   9.467  1.00  0.00     0.001 A 
HETATM   13  C9  UNK     1      17.119  10.130  10.176  1.00  0.00     0.018 A 
HETATM   14  C6  UNK     1      15.461   8.293  10.476  1.00  0.00     0.221 A 
HETATM   15  O3  UNK     1      16.030   7.851  11.466  1.00  0.00    -0.284 OA
BRANCH   6  16
HETATM   16  C2  UNK     1      12.422   7.647   8.252  1.00  0.00     0.001 A 
HETATM   17  C7  UNK     1      12.495   6.932   7.057  1.00  0.00     0.015 A 
HETATM   18  C12 UNK     1      11.336   6.403   6.489  1.00  0.00     0.007 A 
HETATM   19  C10 UNK     1      10.104   6.590   7.115  1.00  0.00    -0.062 A 
HETATM   20  C13 UNK     1      10.031   7.305   8.311  1.00  0.00     0.007 A 
HETATM   21  C16 UNK     1       8.865   6.025   6.508  1.00  0.00     0.048 C 
HETATM   22  C8  UNK     1      11.190   7.833   8.879  1.00  0.00     0.015 A 
ENDBRANCH   6  16
ENDBRANCH   4   5
ENDBRANCH   2   4
TORSDOF 3
ENDMDL
MODEL 5
REMARK VINA RESULT:      -7.6      5.704      9.924
REMARK  3 active torsions:
REMARK  status: ('A' for Active; 'I' for Inactive)
REMARK    1  A    between atoms: C17_21  and  O2_2 
REMARK    2  A    between atoms: C5_9  and  O2_2 
REMARK    3  A    between atoms: C1_5  and  C2_6 
ROOT
HETATM    1  N1  UNK     1      13.868   6.776  31.605  1.00  0.00    -0.195 NA
HETATM    2  C17 UNK     1      14.134   7.982  33.919  1.00  0.00     0.299 C 
HETATM    3  C18 UNK     1      13.986   7.310  32.628  1.00  0.00     0.085 C 
ENDROOT
BRANCH   2   4
HETATM    4  O2  UNK     1      15.467   7.877  34.381  1.00  0.00    -0.331 OA
BRANCH   4   5
HETATM    5  C5  UNK     1      16.122   9.085  34.268  1.00  0.00     0.155 A 
HETATM    6  C1  UNK     1      17.248   9.246  33.550  1.00  0.00     0.123 A 
HETATM    7  O1  UNK     1      17.949  10.436  33.441  1.00  0.00    -0.306 OA
HETATM    8  C4  UNK     1      17.461  11.543  34.087  1.00  0.00     0.090 A 
HETATM    9  C11 UNK     1      18.182  12.729  33.949  1.00  0.00     0.038 A 
HETATM   10  C3  UNK     1      16.301  11.518  34.857  1.00  0.00     0.051 A 
HETATM   11  C15 UNK     1      17.736  13.890  34.583  1.00  0.00     0.003 A 
HETATM   12  C14 UNK     1      16.573  13.864  35.353  1.00  0.00     0.001 A 
HETATM   13  C9  UNK     1      15.851  12.678  35.494  1.00  0.00     0.018 A 
HETATM   14  C6  UNK     1      15.561  10.253  34.989  1.00  0.00     0.221 A 
HETATM   15  O3  UNK     1      14.539  10.168  35.657  1.00  0.00    -0.284 OA
BRANCH   6  16
HETATM   16  C2  UNK     1      17.878   8.138  32.808  1.00  0.00     0.001 A 
HETATM   17  C7  UNK     1      19.019   7.518  33.317  1.00  0.00     0.015 A 
HETATM   18  C12 UNK     1      19.615   6.470  32.616  1.00  0.00     0.007 A 
HETATM   19  C10 UNK     1      19.071   6.042  31.405  1.00  0.00    -0.062 A 
HETATM   20  C13 UNK     1      17.929   6.661  30.896  1.00  0.00     0.007 A 
HETATM   21  C16 UNK     1      19.707   4.921  30.656  1.00  0.00     0.048 C 
HETATM   22  C8  UNK     1      17.333   7.710  31.598  1.00  0.00     0.015 A 
ENDBRANCH   6  16
ENDBRANCH   4   5
ENDBRANCH   2   4
TORSDOF 3
ENDMDL
MODEL 6
REMARK VINA RESULT:      -7.6      2.130      4.552
REMARK  3 active torsions:
REMARK  status: ('A' for Active; 'I' for Inactive)
REMARK    1  A    between atoms: C17_21  and  O2_2 
REMARK    2  A    between atoms: C5_9  and  O2_2 
REMARK    3  A    between atoms: C1_5  and  C2_6 
ROOT
HETATM    1  N1  UNK     1      17.926   1.135  37.627  1.00  0.00    -0.195 NA
HETATM    2  C17 UNK     1      18.844   1.992  35.324  1.00  0.00     0.299 C 
HETATM    3  C18 UNK     1      18.331   1.514  36.609  1.00  0.00     0.085 C 
ENDROOT
BRANCH   2   4
HETATM    4  O2  UNK     1      17.857   1.863  34.319  1.00  0.00    -0.331 OA
BRANCH   4   5
HETATM    5  C5  UNK     1      18.421   1.464  33.127  1.00  0.00     0.155 A 
HETATM    6  C1  UNK     1      18.684   2.314  32.117  1.00  0.00     0.123 A 
HETATM    7  O1  UNK     1      19.220   1.942  30.895  1.00  0.00    -0.306 OA
HETATM    8  C4  UNK     1      19.529   0.622  30.691  1.00  0.00     0.090 A 
HETATM    9  C11 UNK     1      20.078   0.281  29.455  1.00  0.00     0.038 A 
HETATM   10  C3  UNK     1      19.316  -0.361  31.654  1.00  0.00     0.051 A 
HETATM   11  C15 UNK     1      20.414  -1.047  29.187  1.00  0.00     0.003 A 
HETATM   12  C14 UNK     1      20.201  -2.031  30.153  1.00  0.00     0.001 A 
HETATM   13  C9  UNK     1      19.651  -1.692  31.390  1.00  0.00     0.018 A 
HETATM   14  C6  UNK     1      18.733   0.026  32.948  1.00  0.00     0.221 A 
HETATM   15  O3  UNK     1      18.517  -0.795  33.830  1.00  0.00    -0.284 OA
BRANCH   6  16
HETATM   16  C2  UNK     1      18.400   3.758  32.205  1.00  0.00     0.001 A 
HETATM   17  C7  UNK     1      17.975   4.312  33.412  1.00  0.00     0.015 A 
HETATM   18  C12 UNK     1      17.706   5.679  33.496  1.00  0.00     0.007 A 
HETATM   19  C10 UNK     1      17.862   6.491  32.372  1.00  0.00    -0.062 A 
HETATM   20  C13 UNK     1      18.287   5.936  31.165  1.00  0.00     0.007 A 
HETATM   21  C16 UNK     1      17.575   7.951  32.462  1.00  0.00     0.048 C 
HETATM   22  C8  UNK     1      18.556   4.570  31.082  1.00  0.00     0.015 A 
ENDBRANCH   6  16
ENDBRANCH   4   5
ENDBRANCH   2   4
TORSDOF 3
ENDMDL
MODEL 7
REMARK VINA RESULT:      -7.5     13.919     17.913
REMARK  3 active torsions:
REMARK  status: ('A' for Active; 'I' for Inactive)
REMARK    1  A    between atoms: C17_21  and  O2_2 
REMARK    2  A    between atoms: C5_9  and  O2_2 
REMARK    3  A    between atoms: C1_5  and  C2_6 
ROOT
HETATM    1  N1  UNK     1      20.552  -2.384  11.719  1.00  0.00    -0.195 NA
HETATM    2  C17 UNK     1      20.654  -0.638  13.674  1.00  0.00     0.299 C 
HETATM    3  C18 UNK     1      20.596  -1.612  12.584  1.00  0.00     0.085 C 
ENDROOT
BRANCH   2   4
HETATM    4  O2  UNK     1      19.349  -0.237  14.048  1.00  0.00    -0.331 OA
BRANCH   4   5
HETATM    5  C5  UNK     1      19.245  -0.125  15.418  1.00  0.00     0.155 A 
HETATM    6  C1  UNK     1      19.128  -1.187  16.235  1.00  0.00     0.123 A 
HETATM    7  O1  UNK     1      18.988  -1.109  17.611  1.00  0.00    -0.306 OA
HETATM    8  C4  UNK     1      18.988   0.130  18.199  1.00  0.00     0.090 A 
HETATM    9  C11 UNK     1      18.858   0.175  19.587  1.00  0.00     0.038 A 
HETATM   10  C3  UNK     1      19.111   1.311  17.472  1.00  0.00     0.051 A 
HETATM   11  C15 UNK     1      18.851   1.407  20.244  1.00  0.00     0.003 A 
HETATM   12  C14 UNK     1      18.975   2.589  19.514  1.00  0.00     0.001 A 
HETATM   13  C9  UNK     1      19.104   2.546  18.126  1.00  0.00     0.018 A 
HETATM   14  C6  UNK     1      19.243   1.235  16.009  1.00  0.00     0.221 A 
HETATM   15  O3  UNK     1      19.347   2.239  15.316  1.00  0.00    -0.284 OA
BRANCH   6  16
HETATM   16  C2  UNK     1      19.113  -2.573  15.733  1.00  0.00     0.001 A 
HETATM   17  C7  UNK     1      20.251  -3.370  15.852  1.00  0.00     0.015 A 
HETATM   18  C12 UNK     1      20.237  -4.681  15.377  1.00  0.00     0.007 A 
HETATM   19  C10 UNK     1      19.085  -5.196  14.783  1.00  0.00    -0.062 A 
HETATM   20  C13 UNK     1      17.946  -4.400  14.665  1.00  0.00     0.007 A 
HETATM   21  C16 UNK     1      19.069  -6.599  14.277  1.00  0.00     0.048 C 
HETATM   22  C8  UNK     1      17.960  -3.088  15.140  1.00  0.00     0.015 A 
ENDBRANCH   6  16
ENDBRANCH   4   5
ENDBRANCH   2   4
TORSDOF 3
ENDMDL
MODEL 8
REMARK VINA RESULT:      -7.1     24.004     25.924
REMARK  3 active torsions:
REMARK  status: ('A' for Active; 'I' for Inactive)
REMARK    1  A    between atoms: C17_21  and  O2_2 
REMARK    2  A    between atoms: C5_9  and  O2_2 
REMARK    3  A    between atoms: C1_5  and  C2_6 
ROOT
HETATM    1  N1  UNK     1      13.267  12.466  10.844  1.00  0.00    -0.195 NA
HETATM    2  C17 UNK     1      11.323  10.715  10.648  1.00  0.00     0.299 C 
HETATM    3  C18 UNK     1      12.407  11.691  10.758  1.00  0.00     0.085 C 
ENDROOT
BRANCH   2   4
HETATM    4  O2  UNK     1      11.818   9.403  10.834  1.00  0.00    -0.331 OA
BRANCH   4   5
HETATM    5  C5  UNK     1      11.704   8.668   9.673  1.00  0.00     0.155 A 
HETATM    6  C1  UNK     1      12.737   8.445   8.840  1.00  0.00     0.123 A 
HETATM    7  O1  UNK     1      12.649   7.740   7.650  1.00  0.00    -0.306 OA
HETATM    8  C4  UNK     1      11.438   7.207   7.294  1.00  0.00     0.090 A 
HETATM    9  C11 UNK     1      11.385   6.492   6.097  1.00  0.00     0.038 A 
HETATM   10  C3  UNK     1      10.290   7.355   8.069  1.00  0.00     0.051 A 
HETATM   11  C15 UNK     1      10.179   5.926   5.679  1.00  0.00     0.003 A 
HETATM   12  C14 UNK     1       9.031   6.074   6.457  1.00  0.00     0.001 A 
HETATM   13  C9  UNK     1       9.081   6.789   7.654  1.00  0.00     0.018 A 
HETATM   14  C6  UNK     1      10.373   8.116   9.324  1.00  0.00     0.221 A 
HETATM   15  O3  UNK     1       9.397   8.285  10.043  1.00  0.00    -0.284 OA
BRANCH   6  16
HETATM   16  C2  UNK     1      14.092   8.962   9.104  1.00  0.00     0.001 A 
HETATM   17  C7  UNK     1      14.877   8.382  10.100  1.00  0.00     0.015 A 
HETATM   18  C12 UNK     1      16.159   8.871  10.350  1.00  0.00     0.007 A 
HETATM   19  C10 UNK     1      16.656   9.940   9.605  1.00  0.00    -0.062 A 
HETATM   20  C13 UNK     1      15.871  10.520   8.608  1.00  0.00     0.007 A 
HETATM   21  C16 UNK     1      18.028  10.462   9.871  1.00  0.00     0.048 C 
HETATM   22  C8  UNK     1      14.588  10.032   8.359  1.00  0.00     0.015 A 
ENDBRANCH   6  16
ENDBRANCH   4   5
ENDBRANCH   2   4
TORSDOF 3
ENDMDL
MODEL 9
REMARK VINA RESULT:      -7.1     23.857     25.698
REMARK  3 active torsions:
REMARK  status: ('A' for Active; 'I' for Inactive)
REMARK    1  A    between atoms: C17_21  and  O2_2 
REMARK    2  A    between atoms: C5_9  and  O2_2 
REMARK    3  A    between atoms: C1_5  and  C2_6 
ROOT
HETATM    1  N1  UNK     1      16.441   6.142  10.090  1.00  0.00    -0.195 NA
HETATM    2  C17 UNK     1      14.340   5.319   8.750  1.00  0.00     0.299 C 
HETATM    3  C18 UNK     1      15.512   5.778   9.497  1.00  0.00     0.085 C 
ENDROOT
BRANCH   2   4
HETATM    4  O2  UNK     1      13.914   6.314   7.839  1.00  0.00    -0.331 OA
BRANCH   4   5
HETATM    5  C5  UNK     1      12.695   6.835   8.218  1.00  0.00     0.155 A 
HETATM    6  C1  UNK     1      12.570   7.973   8.925  1.00  0.00     0.123 A 
HETATM    7  O1  UNK     1      11.364   8.507   9.350  1.00  0.00    -0.306 OA
HETATM    8  C4  UNK     1      10.206   7.852   9.017  1.00  0.00     0.090 A 
HETATM    9  C11 UNK     1       9.008   8.420   9.449  1.00  0.00     0.038 A 
HETATM   10  C3  UNK     1      10.191   6.670   8.282  1.00  0.00     0.051 A 
HETATM   11  C15 UNK     1       7.795   7.801   9.142  1.00  0.00     0.003 A 
HETATM   12  C14 UNK     1       7.782   6.617   8.405  1.00  0.00     0.001 A 
HETATM   13  C9  UNK     1       8.980   6.046   7.973  1.00  0.00     0.018 A 
HETATM   14  C6  UNK     1      11.470   6.090   7.842  1.00  0.00     0.221 A 
HETATM   15  O3  UNK     1      11.520   5.050   7.199  1.00  0.00    -0.284 OA
BRANCH   6  16
HETATM   16  C2  UNK     1      13.734   8.773   9.348  1.00  0.00     0.001 A 
HETATM   17  C7  UNK     1      14.071   8.854  10.698  1.00  0.00     0.015 A 
HETATM   18  C12 UNK     1      15.172   9.611  11.099  1.00  0.00     0.007 A 
HETATM   19  C10 UNK     1      15.936  10.288  10.148  1.00  0.00    -0.062 A 
HETATM   20  C13 UNK     1      15.600  10.206   8.797  1.00  0.00     0.007 A 
HETATM   21  C16 UNK     1      17.114  11.096  10.576  1.00  0.00     0.048 C 
HETATM   22  C8  UNK     1      14.498   9.450   8.397  1.00  0.00     0.015 A 
ENDBRANCH   6  16
ENDBRANCH   4   5
ENDBRANCH   2   4
TORSDOF 3
ENDMDL
MODEL 10
REMARK VINA RESULT:      -7.1      4.115      4.988
REMARK  3 active torsions:
REMARK  status: ('A' for Active; 'I' for Inactive)
REMARK    1  A    between atoms: C17_21  and  O2_2 
REMARK    2  A    between atoms: C5_9  and  O2_2 
REMARK    3  A    between atoms: C1_5  and  C2_6 
ROOT
HETATM    1  N1  UNK     1      15.280   0.544  35.701  1.00  0.00    -0.195 NA
HETATM    2  C17 UNK     1      17.147  -1.299  35.747  1.00  0.00     0.299 C 
HETATM    3  C18 UNK     1      16.106  -0.271  35.721  1.00  0.00     0.085 C 
ENDROOT
BRANCH   2   4
HETATM    4  O2  UNK     1      18.425  -0.712  35.589  1.00  0.00    -0.331 OA
BRANCH   4   5
HETATM    5  C5  UNK     1      18.984  -1.073  34.382  1.00  0.00     0.155 A 
HETATM    6  C1  UNK     1      19.726  -2.183  34.219  1.00  0.00     0.123 A 
HETATM    7  O1  UNK     1      20.330  -2.558  33.029  1.00  0.00    -0.306 OA
HETATM    8  C4  UNK     1      20.149  -1.765  31.926  1.00  0.00     0.090 A 
HETATM    9  C11 UNK     1      20.759  -2.175  30.741  1.00  0.00     0.038 A 
HETATM   10  C3  UNK     1      19.397  -0.593  31.953  1.00  0.00     0.051 A 
HETATM   11  C15 UNK     1      20.613  -1.409  29.583  1.00  0.00     0.003 A 
HETATM   12  C14 UNK     1      19.858  -0.236  29.612  1.00  0.00     0.001 A 
HETATM   13  C9  UNK     1      19.248   0.177  30.797  1.00  0.00     0.018 A 
HETATM   14  C6  UNK     1      18.767  -0.181  33.218  1.00  0.00     0.221 A 
HETATM   15  O3  UNK     1      18.101   0.841  33.305  1.00  0.00    -0.284 OA
BRANCH   6  16
HETATM   16  C2  UNK     1      19.998  -3.122  35.323  1.00  0.00     0.001 A 
HETATM   17  C7  UNK     1      20.506  -2.647  36.532  1.00  0.00     0.015 A 
HETATM   18  C12 UNK     1      20.764  -3.535  37.577  1.00  0.00     0.007 A 
HETATM   19  C10 UNK     1      20.513  -4.898  37.412  1.00  0.00    -0.062 A 
HETATM   20  C13 UNK     1      20.005  -5.372  36.203  1.00  0.00     0.007 A 
HETATM   21  C16 UNK     1      20.788  -5.847  38.529  1.00  0.00     0.048 C 
HETATM   22  C8  UNK     1      19.748  -4.484  35.158  1.00  0.00     0.015 A 
ENDBRANCH   6  16
ENDBRANCH   4   5
ENDBRANCH   2   4
TORSDOF 3
ENDMDL
