MODEL 1
REMARK VINA RESULT:      -8.6      0.000      0.000
REMARK  2 active torsions:
REMARK  status: ('A' for Active; 'I' for Inactive)
REMARK       I    between atoms: C6_13  and  N1_6 
REMARK    1  A    between atoms: C18_25  and  N2_7 
REMARK    2  A    between atoms: C6_13  and  C9_16 
ROOT
HETATM    1  O2  UNK     1      18.396   4.459  31.123  1.00  0.00    -0.274 OA
HETATM    2  O3  UNK     1      18.324   6.659  30.513  1.00  0.00    -0.259 OA
HETATM    3  C9  UNK     1      18.166   6.192  32.832  1.00  0.00     0.108 A 
HETATM    4  C12 UNK     1      18.139   5.271  33.802  1.00  0.00     0.037 A 
HETATM    5  C13 UNK     1      18.242   3.858  33.474  1.00  0.00     0.001 A 
HETATM    6  C14 UNK     1      18.299   5.818  31.405  1.00  0.00     0.304 A 
HETATM    7  C15 UNK     1      18.369   3.484  32.141  1.00  0.00     0.089 A 
HETATM    8  C16 UNK     1      18.218   2.863  34.454  1.00  0.00     0.050 A 
HETATM    9  C17 UNK     1      18.472   2.147  31.759  1.00  0.00     0.041 A 
HETATM   10  C18 UNK     1      18.320   1.517  34.087  1.00  0.00     0.103 A 
HETATM   11  C19 UNK     1      18.447   1.162  32.743  1.00  0.00     0.039 A 
ENDROOT
BRANCH   3  12
HETATM   12  C6  UNK     1      18.055   7.602  33.265  1.00  0.00     0.264 C 
HETATM   13  O1  UNK     1      19.103   8.231  33.400  1.00  0.00    -0.267 OA
HETATM   14  N1  UNK     1      16.775   8.081  33.500  1.00  0.00    -0.308 N 
HETATM   15  C1  UNK     1      15.477   7.354  33.349  1.00  0.00     0.093 C 
HETATM   16  C4  UNK     1      16.477   9.398  33.930  1.00  0.00     0.044 A 
HETATM   17  C2  UNK     1      14.422   8.192  34.101  1.00  0.00     0.066 C 
HETATM   18  C5  UNK     1      15.095   7.210  31.871  1.00  0.00     0.033 C 
HETATM   19  C3  UNK     1      15.118   9.507  34.240  1.00  0.00    -0.029 A 
HETATM   20  C7  UNK     1      14.571  10.698  34.692  1.00  0.00     0.009 A 
HETATM   21  C10 UNK     1      15.409  11.805  34.822  1.00  0.00     0.001 A 
HETATM   22  C11 UNK     1      16.772  11.702  34.515  1.00  0.00     0.002 A 
HETATM   23  C8  UNK     1      17.318  10.493  34.070  1.00  0.00     0.030 A 
ENDBRANCH   3  12
BRANCH  10  24
HETATM   24  N2  UNK     1      18.297   0.509  35.087  1.00  0.00    -0.116 N 
HETATM   25  O4  UNK     1      17.191   0.035  35.438  1.00  0.00    -0.532 OA
HETATM   26  O5  UNK     1      19.383   0.127  35.584  1.00  0.00    -0.532 OA
ENDBRANCH  10  24
TORSDOF 2
ENDMDL
MODEL 2
REMARK VINA RESULT:      -8.6      7.881     12.816
REMARK  2 active torsions:
REMARK  status: ('A' for Active; 'I' for Inactive)
REMARK       I    between atoms: C6_13  and  N1_6 
REMARK    1  A    between atoms: C18_25  and  N2_7 
REMARK    2  A    between atoms: C6_13  and  C9_16 
ROOT
HETATM    1  O2  UNK     1      18.520  -1.438  35.708  1.00  0.00    -0.274 OA
HETATM    2  O3  UNK     1      18.501  -2.304  37.822  1.00  0.00    -0.259 OA
HETATM    3  C9  UNK     1      19.967  -3.328  36.267  1.00  0.00     0.108 A 
HETATM    4  C12 UNK     1      20.453  -3.360  35.020  1.00  0.00     0.037 A 
HETATM    5  C13 UNK     1      19.985  -2.407  34.027  1.00  0.00     0.001 A 
HETATM    6  C14 UNK     1      18.948  -2.337  36.681  1.00  0.00     0.304 A 
HETATM    7  C15 UNK     1      19.028  -1.467  34.394  1.00  0.00     0.089 A 
HETATM    8  C16 UNK     1      20.463  -2.404  32.714  1.00  0.00     0.050 A 
HETATM    9  C17 UNK     1      18.538  -0.526  33.490  1.00  0.00     0.041 A 
HETATM   10  C18 UNK     1      19.981  -1.467  31.796  1.00  0.00     0.103 A 
HETATM   11  C19 UNK     1      19.021  -0.531  32.184  1.00  0.00     0.039 A 
ENDROOT
BRANCH   3  12
HETATM   12  C6  UNK     1      20.506  -4.337  37.205  1.00  0.00     0.264 C 
HETATM   13  O1  UNK     1      21.357  -3.958  38.007  1.00  0.00    -0.267 OA
HETATM   14  N1  UNK     1      20.013  -5.627  37.079  1.00  0.00    -0.308 N 
HETATM   15  C1  UNK     1      18.981  -6.130  36.121  1.00  0.00     0.093 C 
HETATM   16  C4  UNK     1      20.420  -6.724  37.881  1.00  0.00     0.044 A 
HETATM   17  C2  UNK     1      19.093  -7.669  36.133  1.00  0.00     0.066 C 
HETATM   18  C5  UNK     1      17.575  -5.691  36.547  1.00  0.00     0.033 C 
HETATM   19  C3  UNK     1      19.868  -7.910  37.388  1.00  0.00    -0.029 A 
HETATM   20  C7  UNK     1      20.118  -9.132  37.995  1.00  0.00     0.009 A 
HETATM   21  C10 UNK     1      20.932  -9.155  39.127  1.00  0.00     0.001 A 
HETATM   22  C11 UNK     1      21.489  -7.970  39.624  1.00  0.00     0.002 A 
HETATM   23  C8  UNK     1      21.240  -6.743  39.000  1.00  0.00     0.030 A 
ENDBRANCH   3  12
BRANCH  10  24
HETATM   24  N2  UNK     1      20.472  -1.467  30.463  1.00  0.00    -0.116 N 
HETATM   25  O4  UNK     1      20.599  -0.371  29.868  1.00  0.00    -0.532 OA
HETATM   26  O5  UNK     1      20.760  -2.563  29.927  1.00  0.00    -0.532 OA
ENDBRANCH  10  24
TORSDOF 2
ENDMDL
MODEL 3
REMARK VINA RESULT:      -8.4      7.362     13.231
REMARK  2 active torsions:
REMARK  status: ('A' for Active; 'I' for Inactive)
REMARK       I    between atoms: C6_13  and  N1_6 
REMARK    1  A    between atoms: C18_25  and  N2_7 
REMARK    2  A    between atoms: C6_13  and  C9_16 
ROOT
HETATM    1  O2  UNK     1      19.660  -2.593  34.623  1.00  0.00    -0.274 OA
HETATM    2  O3  UNK     1      20.638  -4.642  34.370  1.00  0.00    -0.259 OA
HETATM    3  C9  UNK     1      19.971  -4.046  36.564  1.00  0.00     0.108 A 
HETATM    4  C12 UNK     1      19.411  -3.136  37.370  1.00  0.00     0.037 A 
HETATM    5  C13 UNK     1      18.933  -1.873  36.828  1.00  0.00     0.001 A 
HETATM    6  C14 UNK     1      20.126  -3.810  35.111  1.00  0.00     0.304 A 
HETATM    7  C15 UNK     1      19.069  -1.631  35.466  1.00  0.00     0.089 A 
HETATM    8  C16 UNK     1      18.344  -0.894  37.632  1.00  0.00     0.050 A 
HETATM    9  C17 UNK     1      18.633  -0.442  34.884  1.00  0.00     0.041 A 
HETATM   10  C18 UNK     1      17.901   0.304  37.063  1.00  0.00     0.103 A 
HETATM   11  C19 UNK     1      18.046   0.529  35.692  1.00  0.00     0.039 A 
ENDROOT
BRANCH   3  12
HETATM   12  C6  UNK     1      20.424  -5.298  37.208  1.00  0.00     0.264 C 
HETATM   13  O1  UNK     1      21.426  -5.233  37.918  1.00  0.00    -0.267 OA
HETATM   14  N1  UNK     1      19.684  -6.439  36.937  1.00  0.00    -0.308 N 
HETATM   15  C1  UNK     1      18.462  -6.564  36.084  1.00  0.00     0.093 C 
HETATM   16  C4  UNK     1      19.975  -7.727  37.455  1.00  0.00     0.044 A 
HETATM   17  C2  UNK     1      18.282  -8.071  35.804  1.00  0.00     0.066 C 
HETATM   18  C5  UNK     1      17.230  -6.001  36.802  1.00  0.00     0.033 C 
HETATM   19  C3  UNK     1      19.151  -8.683  36.855  1.00  0.00    -0.029 A 
HETATM   20  C7  UNK     1      19.240 -10.027  37.186  1.00  0.00     0.009 A 
HETATM   21  C10 UNK     1      20.172 -10.411  38.150  1.00  0.00     0.001 A 
HETATM   22  C11 UNK     1      21.001  -9.457  38.754  1.00  0.00     0.002 A 
HETATM   23  C8  UNK     1      20.912  -8.105  38.406  1.00  0.00     0.030 A 
ENDBRANCH   3  12
BRANCH  10  24
HETATM   24  N2  UNK     1      17.301   1.296  37.883  1.00  0.00    -0.116 N 
HETATM   25  O4  UNK     1      17.803   1.533  39.007  1.00  0.00    -0.532 OA
HETATM   26  O5  UNK     1      16.289   1.900  37.456  1.00  0.00    -0.532 OA
ENDBRANCH  10  24
TORSDOF 2
ENDMDL
MODEL 4
REMARK VINA RESULT:      -8.4     18.573     21.268
REMARK  2 active torsions:
REMARK  status: ('A' for Active; 'I' for Inactive)
REMARK       I    between atoms: C6_13  and  N1_6 
REMARK    1  A    between atoms: C18_25  and  N2_7 
REMARK    2  A    between atoms: C6_13  and  C9_16 
ROOT
HETATM    1  O2  UNK     1      35.198  -6.903  36.048  1.00  0.00    -0.274 OA
HETATM    2  O3  UNK     1      34.101  -6.827  38.050  1.00  0.00    -0.259 OA
HETATM    3  C9  UNK     1      32.754  -6.848  36.100  1.00  0.00     0.108 A 
HETATM    4  C12 UNK     1      32.697  -6.880  34.763  1.00  0.00     0.037 A 
HETATM    5  C13 UNK     1      33.921  -6.928  33.979  1.00  0.00     0.001 A 
HETATM    6  C14 UNK     1      34.045  -6.857  36.826  1.00  0.00     0.304 A 
HETATM    7  C15 UNK     1      35.144  -6.939  34.640  1.00  0.00     0.089 A 
HETATM    8  C16 UNK     1      33.909  -6.963  32.582  1.00  0.00     0.050 A 
HETATM    9  C17 UNK     1      36.353  -6.983  33.947  1.00  0.00     0.041 A 
HETATM   10  C18 UNK     1      35.113  -7.008  31.873  1.00  0.00     0.103 A 
HETATM   11  C19 UNK     1      36.332  -7.018  32.556  1.00  0.00     0.039 A 
ENDROOT
BRANCH   3  12
HETATM   12  C6  UNK     1      31.456  -6.801  36.808  1.00  0.00     0.264 C 
HETATM   13  O1  UNK     1      30.902  -5.706  36.892  1.00  0.00    -0.267 OA
HETATM   14  N1  UNK     1      30.991  -7.998  37.331  1.00  0.00    -0.308 N 
HETATM   15  C1  UNK     1      31.629  -9.348  37.252  1.00  0.00     0.093 C 
HETATM   16  C4  UNK     1      29.777  -8.143  38.048  1.00  0.00     0.044 A 
HETATM   17  C2  UNK     1      30.922 -10.223  38.309  1.00  0.00     0.066 C 
HETATM   18  C5  UNK     1      31.461  -9.955  35.854  1.00  0.00     0.033 C 
HETATM   19  C3  UNK     1      29.686  -9.430  38.586  1.00  0.00    -0.029 A 
HETATM   20  C7  UNK     1      28.591  -9.825  39.339  1.00  0.00     0.009 A 
HETATM   21  C10 UNK     1      27.562  -8.907  39.544  1.00  0.00     0.001 A 
HETATM   22  C11 UNK     1      27.647  -7.615  39.010  1.00  0.00     0.002 A 
HETATM   23  C8  UNK     1      28.761  -7.221  38.260  1.00  0.00     0.030 A 
ENDBRANCH   3  12
BRANCH  10  24
HETATM   24  N2  UNK     1      35.096  -7.045  30.454  1.00  0.00    -0.116 N 
HETATM   25  O4  UNK     1      35.651  -6.115  29.821  1.00  0.00    -0.532 OA
HETATM   26  O5  UNK     1      34.528  -8.005  29.883  1.00  0.00    -0.532 OA
ENDBRANCH  10  24
TORSDOF 2
ENDMDL
MODEL 5
REMARK VINA RESULT:      -8.3     16.733     20.367
REMARK  2 active torsions:
REMARK  status: ('A' for Active; 'I' for Inactive)
REMARK       I    between atoms: C6_13  and  N1_6 
REMARK    1  A    between atoms: C18_25  and  N2_7 
REMARK    2  A    between atoms: C6_13  and  C9_16 
ROOT
HETATM    1  O2  UNK     1      19.290   0.946  15.420  1.00  0.00    -0.274 OA
HETATM    2  O3  UNK     1      19.115  -0.343  13.542  1.00  0.00    -0.259 OA
HETATM    3  C9  UNK     1      18.784  -1.438  15.617  1.00  0.00     0.108 A 
HETATM    4  C12 UNK     1      18.736  -1.345  16.952  1.00  0.00     0.037 A 
HETATM    5  C13 UNK     1      18.969  -0.068  17.606  1.00  0.00     0.001 A 
HETATM    6  C14 UNK     1      19.072  -0.262  14.765  1.00  0.00     0.304 A 
HETATM    7  C15 UNK     1      19.240   1.050  16.825  1.00  0.00     0.089 A 
HETATM    8  C16 UNK     1      18.930   0.075  18.995  1.00  0.00     0.050 A 
HETATM    9  C17 UNK     1      19.473   2.303  17.389  1.00  0.00     0.041 A 
HETATM   10  C18 UNK     1      19.161   1.325  19.577  1.00  0.00     0.103 A 
HETATM   11  C19 UNK     1      19.432   2.436  18.775  1.00  0.00     0.039 A 
ENDROOT
BRANCH   3  12
HETATM   12  C6  UNK     1      18.533  -2.779  15.046  1.00  0.00     0.264 C 
HETATM   13  O1  UNK     1      17.375  -3.043  14.724  1.00  0.00    -0.267 OA
HETATM   14  N1  UNK     1      19.627  -3.624  14.942  1.00  0.00    -0.308 N 
HETATM   15  C1  UNK     1      21.046  -3.345  15.320  1.00  0.00     0.093 C 
HETATM   16  C4  UNK     1      19.574  -4.946  14.431  1.00  0.00     0.044 A 
HETATM   17  C2  UNK     1      21.756  -4.714  15.377  1.00  0.00     0.066 C 
HETATM   18  C5  UNK     1      21.720  -2.434  14.287  1.00  0.00     0.033 C 
HETATM   19  C3  UNK     1      20.802  -5.585  14.625  1.00  0.00    -0.029 A 
HETATM   20  C7  UNK     1      21.010  -6.894  14.216  1.00  0.00     0.009 A 
HETATM   21  C10 UNK     1      19.962  -7.566  13.588  1.00  0.00     0.001 A 
HETATM   22  C11 UNK     1      18.729  -6.931  13.393  1.00  0.00     0.002 A 
HETATM   23  C8  UNK     1      18.524  -5.615  13.818  1.00  0.00     0.030 A 
ENDBRANCH   3  12
BRANCH  10  24
HETATM   24  N2  UNK     1      19.119   1.466  20.990  1.00  0.00    -0.116 N 
HETATM   25  O4  UNK     1      18.577   2.486  21.477  1.00  0.00    -0.532 OA
HETATM   26  O5  UNK     1      19.625   0.565  21.701  1.00  0.00    -0.532 OA
ENDBRANCH  10  24
TORSDOF 2
ENDMDL
MODEL 6
REMARK VINA RESULT:      -8.2     17.053     19.614
REMARK  2 active torsions:
REMARK  status: ('A' for Active; 'I' for Inactive)
REMARK       I    between atoms: C6_13  and  N1_6 
REMARK    1  A    between atoms: C18_25  and  N2_7 
REMARK    2  A    between atoms: C6_13  and  C9_16 
ROOT
HETATM    1  O2  UNK     1      32.720  -5.296  34.817  1.00  0.00    -0.274 OA
HETATM    2  O3  UNK     1      33.413  -6.526  33.022  1.00  0.00    -0.259 OA
HETATM    3  C9  UNK     1      31.386  -7.197  34.051  1.00  0.00     0.108 A 
HETATM    4  C12 UNK     1      30.481  -6.986  35.014  1.00  0.00     0.037 A 
HETATM    5  C13 UNK     1      30.654  -5.889  35.954  1.00  0.00     0.001 A 
HETATM    6  C14 UNK     1      32.583  -6.337  33.904  1.00  0.00     0.304 A 
HETATM    7  C15 UNK     1      31.770  -5.068  35.833  1.00  0.00     0.089 A 
HETATM    8  C16 UNK     1      29.736  -5.632  36.975  1.00  0.00     0.050 A 
HETATM    9  C17 UNK     1      31.994  -4.001  36.701  1.00  0.00     0.041 A 
HETATM   10  C18 UNK     1      29.947  -4.566  37.854  1.00  0.00     0.103 A 
HETATM   11  C19 UNK     1      31.074  -3.752  37.716  1.00  0.00     0.039 A 
ENDROOT
BRANCH   3  12
HETATM   12  C6  UNK     1      31.122  -8.335  33.144  1.00  0.00     0.264 C 
HETATM   13  O1  UNK     1      31.365  -9.462  33.574  1.00  0.00    -0.267 OA
HETATM   14  N1  UNK     1      30.641  -8.025  31.881  1.00  0.00    -0.308 N 
HETATM   15  C1  UNK     1      30.333  -6.674  31.319  1.00  0.00     0.093 C 
HETATM   16  C4  UNK     1      30.343  -8.982  30.878  1.00  0.00     0.044 A 
HETATM   17  C2  UNK     1      30.217  -6.858  29.791  1.00  0.00     0.066 C 
HETATM   18  C5  UNK     1      29.023  -6.125  31.894  1.00  0.00     0.033 C 
HETATM   19  C3  UNK     1      30.049  -8.339  29.673  1.00  0.00    -0.029 A 
HETATM   20  C7  UNK     1      29.728  -9.054  28.529  1.00  0.00     0.009 A 
HETATM   21  C10 UNK     1      29.691 -10.446  28.607  1.00  0.00     0.001 A 
HETATM   22  C11 UNK     1      29.987 -11.097  29.812  1.00  0.00     0.002 A 
HETATM   23  C8  UNK     1      30.320 -10.367  30.958  1.00  0.00     0.030 A 
ENDBRANCH   3  12
BRANCH  10  24
HETATM   24  N2  UNK     1      29.010  -4.307  38.889  1.00  0.00    -0.116 N 
HETATM   25  O4  UNK     1      27.820  -4.666  38.727  1.00  0.00    -0.532 OA
HETATM   26  O5  UNK     1      29.405  -3.730  39.930  1.00  0.00    -0.532 OA
ENDBRANCH  10  24
TORSDOF 2
ENDMDL
MODEL 7
REMARK VINA RESULT:      -8.2      1.777      2.860
REMARK  2 active torsions:
REMARK  status: ('A' for Active; 'I' for Inactive)
REMARK       I    between atoms: C6_13  and  N1_6 
REMARK    1  A    between atoms: C18_25  and  N2_7 
REMARK    2  A    between atoms: C6_13  and  C9_16 
ROOT
HETATM    1  O2  UNK     1      19.072   3.634  30.055  1.00  0.00    -0.274 OA
HETATM    2  O3  UNK     1      18.791   5.853  29.592  1.00  0.00    -0.259 OA
HETATM    3  C9  UNK     1      18.005   5.098  31.696  1.00  0.00     0.108 A 
HETATM    4  C12 UNK     1      17.846   4.076  32.546  1.00  0.00     0.037 A 
HETATM    5  C13 UNK     1      18.305   2.744  32.184  1.00  0.00     0.001 A 
HETATM    6  C14 UNK     1      18.643   4.919  30.372  1.00  0.00     0.304 A 
HETATM    7  C15 UNK     1      18.909   2.554  30.946  1.00  0.00     0.089 A 
HETATM    8  C16 UNK     1      18.160   1.649  33.039  1.00  0.00     0.050 A 
HETATM    9  C17 UNK     1      19.370   1.303  30.538  1.00  0.00     0.041 A 
HETATM   10  C18 UNK     1      18.617   0.388  32.644  1.00  0.00     0.103 A 
HETATM   11  C19 UNK     1      19.221   0.217  31.397  1.00  0.00     0.039 A 
ENDROOT
BRANCH   3  12
HETATM   12  C6  UNK     1      17.506   6.413  32.155  1.00  0.00     0.264 C 
HETATM   13  O1  UNK     1      16.349   6.708  31.859  1.00  0.00    -0.267 OA
HETATM   14  N1  UNK     1      18.399   7.202  32.864  1.00  0.00    -0.308 N 
HETATM   15  C1  UNK     1      19.809   6.884  33.246  1.00  0.00     0.093 C 
HETATM   16  C4  UNK     1      18.102   8.493  33.371  1.00  0.00     0.044 A 
HETATM   17  C2  UNK     1      20.458   8.221  33.659  1.00  0.00     0.066 C 
HETATM   18  C5  UNK     1      19.851   5.885  34.409  1.00  0.00     0.033 C 
HETATM   19  C3  UNK     1      19.260   9.088  33.879  1.00  0.00    -0.029 A 
HETATM   20  C7  UNK     1      19.239  10.360  34.431  1.00  0.00     0.009 A 
HETATM   21  C10 UNK     1      18.022  11.040  34.482  1.00  0.00     0.001 A 
HETATM   22  C11 UNK     1      16.858  10.449  33.973  1.00  0.00     0.002 A 
HETATM   23  C8  UNK     1      16.891   9.170  33.409  1.00  0.00     0.030 A 
ENDBRANCH   3  12
BRANCH  10  24
HETATM   24  N2  UNK     1      18.469  -0.722  33.517  1.00  0.00    -0.116 N 
HETATM   25  O4  UNK     1      19.458  -1.464  33.720  1.00  0.00    -0.532 OA
HETATM   26  O5  UNK     1      17.354  -0.922  34.054  1.00  0.00    -0.532 OA
ENDBRANCH  10  24
TORSDOF 2
ENDMDL
MODEL 8
REMARK VINA RESULT:      -8.1     16.740     19.165
REMARK  2 active torsions:
REMARK  status: ('A' for Active; 'I' for Inactive)
REMARK       I    between atoms: C6_13  and  N1_6 
REMARK    1  A    between atoms: C18_25  and  N2_7 
REMARK    2  A    between atoms: C6_13  and  C9_16 
ROOT
HETATM    1  O2  UNK     1      32.034  -4.424  35.989  1.00  0.00    -0.274 OA
HETATM    2  O3  UNK     1      33.424  -4.865  34.230  1.00  0.00    -0.259 OA
HETATM    3  C9  UNK     1      31.590  -6.337  34.531  1.00  0.00     0.108 A 
HETATM    4  C12 UNK     1      30.506  -6.664  35.244  1.00  0.00     0.037 A 
HETATM    5  C13 UNK     1      30.119  -5.866  36.396  1.00  0.00     0.001 A 
HETATM    6  C14 UNK     1      32.430  -5.168  34.881  1.00  0.00     0.304 A 
HETATM    7  C15 UNK     1      30.893  -4.763  36.743  1.00  0.00     0.089 A 
HETATM    8  C16 UNK     1      28.996  -6.170  37.170  1.00  0.00     0.050 A 
HETATM    9  C17 UNK     1      30.577  -3.958  37.836  1.00  0.00     0.041 A 
HETATM   10  C18 UNK     1      28.666  -5.372  38.269  1.00  0.00     0.103 A 
HETATM   11  C19 UNK     1      29.455  -4.269  38.600  1.00  0.00     0.039 A 
ENDROOT
BRANCH   3  12
HETATM   12  C6  UNK     1      31.901  -7.208  33.377  1.00  0.00     0.264 C 
HETATM   13  O1  UNK     1      32.648  -8.164  33.581  1.00  0.00    -0.267 OA
HETATM   14  N1  UNK     1      31.334  -6.855  32.162  1.00  0.00    -0.308 N 
HETATM   15  C1  UNK     1      30.423  -5.706  31.869  1.00  0.00     0.093 C 
HETATM   16  C4  UNK     1      31.529  -7.563  30.949  1.00  0.00     0.044 A 
HETATM   17  C2  UNK     1      30.413  -5.543  30.335  1.00  0.00     0.066 C 
HETATM   18  C5  UNK     1      29.007  -5.981  32.389  1.00  0.00     0.033 C 
HETATM   19  C3  UNK     1      30.968  -6.855  29.883  1.00  0.00    -0.029 A 
HETATM   20  C7  UNK     1      31.027  -7.334  28.583  1.00  0.00     0.009 A 
HETATM   21  C10 UNK     1      31.656  -8.558  28.356  1.00  0.00     0.001 A 
HETATM   22  C11 UNK     1      32.222  -9.272  29.420  1.00  0.00     0.002 A 
HETATM   23  C8  UNK     1      32.166  -8.776  30.727  1.00  0.00     0.030 A 
ENDBRANCH   3  12
BRANCH  10  24
HETATM   24  N2  UNK     1      27.522  -5.685  39.051  1.00  0.00    -0.116 N 
HETATM   25  O4  UNK     1      27.566  -6.681  39.810  1.00  0.00    -0.532 OA
HETATM   26  O5  UNK     1      26.508  -4.953  38.955  1.00  0.00    -0.532 OA
ENDBRANCH  10  24
TORSDOF 2
ENDMDL
MODEL 9
REMARK VINA RESULT:      -8.0     18.560     20.992
REMARK  2 active torsions:
REMARK  status: ('A' for Active; 'I' for Inactive)
REMARK       I    between atoms: C6_13  and  N1_6 
REMARK    1  A    between atoms: C18_25  and  N2_7 
REMARK    2  A    between atoms: C6_13  and  C9_16 
ROOT
HETATM    1  O2  UNK     1      35.111  -6.926  35.912  1.00  0.00    -0.274 OA
HETATM    2  O3  UNK     1      34.229  -7.417  37.961  1.00  0.00    -0.259 OA
HETATM    3  C9  UNK     1      32.934  -8.027  36.073  1.00  0.00     0.108 A 
HETATM    4  C12 UNK     1      32.819  -8.055  34.740  1.00  0.00     0.037 A 
HETATM    5  C13 UNK     1      33.872  -7.506  33.902  1.00  0.00     0.001 A 
HETATM    6  C14 UNK     1      34.120  -7.444  36.740  1.00  0.00     0.304 A 
HETATM    7  C15 UNK     1      34.996  -6.953  34.508  1.00  0.00     0.089 A 
HETATM    8  C16 UNK     1      33.794  -7.513  32.507  1.00  0.00     0.050 A 
HETATM    9  C17 UNK     1      36.040  -6.410  33.762  1.00  0.00     0.041 A 
HETATM   10  C18 UNK     1      34.834  -6.971  31.745  1.00  0.00     0.103 A 
HETATM   11  C19 UNK     1      35.954  -6.421  32.372  1.00  0.00     0.039 A 
ENDROOT
BRANCH   3  12
HETATM   12  C6  UNK     1      31.811  -8.612  36.838  1.00  0.00     0.264 C 
HETATM   13  O1  UNK     1      31.854  -9.820  37.062  1.00  0.00    -0.267 OA
HETATM   14  N1  UNK     1      30.800  -7.742  37.219  1.00  0.00    -0.308 N 
HETATM   15  C1  UNK     1      30.708  -6.270  36.970  1.00  0.00     0.093 C 
HETATM   16  C4  UNK     1      29.644  -8.124  37.946  1.00  0.00     0.044 A 
HETATM   17  C2  UNK     1      29.241  -5.877  37.241  1.00  0.00     0.066 C 
HETATM   18  C5  UNK     1      31.651  -5.496  37.898  1.00  0.00     0.033 C 
HETATM   19  C3  UNK     1      28.746  -7.056  38.015  1.00  0.00    -0.029 A 
HETATM   20  C7  UNK     1      27.530  -7.173  38.671  1.00  0.00     0.009 A 
HETATM   21  C10 UNK     1      27.219  -8.390  39.279  1.00  0.00     0.001 A 
HETATM   22  C11 UNK     1      28.115  -9.464  39.211  1.00  0.00     0.002 A 
HETATM   23  C8  UNK     1      29.335  -9.340  38.538  1.00  0.00     0.030 A 
ENDBRANCH   3  12
BRANCH  10  24
HETATM   24  N2  UNK     1      34.751  -6.982  30.327  1.00  0.00    -0.116 N 
HETATM   25  O4  UNK     1      35.508  -6.227  29.674  1.00  0.00    -0.532 OA
HETATM   26  O5  UNK     1      33.922  -7.747  29.778  1.00  0.00    -0.532 OA
ENDBRANCH  10  24
TORSDOF 2
ENDMDL
MODEL 10
REMARK VINA RESULT:      -8.0     16.681     20.518
REMARK  2 active torsions:
REMARK  status: ('A' for Active; 'I' for Inactive)
REMARK       I    between atoms: C6_13  and  N1_6 
REMARK    1  A    between atoms: C18_25  and  N2_7 
REMARK    2  A    between atoms: C6_13  and  C9_16 
ROOT
HETATM    1  O2  UNK     1      29.749  -9.603  38.136  1.00  0.00    -0.274 OA
HETATM    2  O3  UNK     1      31.780 -10.442  37.513  1.00  0.00    -0.259 OA
HETATM    3  C9  UNK     1      31.481  -8.102  37.283  1.00  0.00     0.108 A 
HETATM    4  C12 UNK     1      30.674  -7.044  37.426  1.00  0.00     0.037 A 
HETATM    5  C13 UNK     1      29.326  -7.216  37.945  1.00  0.00     0.001 A 
HETATM    6  C14 UNK     1      31.043  -9.471  37.642  1.00  0.00     0.304 A 
HETATM    7  C15 UNK     1      28.895  -8.492  38.289  1.00  0.00     0.089 A 
HETATM    8  C16 UNK     1      28.449  -6.141  38.110  1.00  0.00     0.050 A 
HETATM    9  C17 UNK     1      27.615  -8.725  38.792  1.00  0.00     0.041 A 
HETATM   10  C18 UNK     1      27.163  -6.358  38.613  1.00  0.00     0.103 A 
HETATM   11  C19 UNK     1      26.748  -7.648  38.953  1.00  0.00     0.039 A 
ENDROOT
BRANCH   3  12
HETATM   12  C6  UNK     1      32.832  -7.826  36.748  1.00  0.00     0.264 C 
HETATM   13  O1  UNK     1      33.740  -7.684  37.566  1.00  0.00    -0.267 OA
HETATM   14  N1  UNK     1      32.947  -7.733  35.369  1.00  0.00    -0.308 N 
HETATM   15  C1  UNK     1      31.873  -7.899  34.342  1.00  0.00     0.093 C 
HETATM   16  C4  UNK     1      34.157  -7.464  34.681  1.00  0.00     0.044 A 
HETATM   17  C2  UNK     1      32.437  -7.314  33.030  1.00  0.00     0.066 C 
HETATM   18  C5  UNK     1      31.511  -9.377  34.159  1.00  0.00     0.033 C 
HETATM   19  C3  UNK     1      33.902  -7.263  33.322  1.00  0.00    -0.029 A 
HETATM   20  C7  UNK     1      34.922  -6.977  32.427  1.00  0.00     0.009 A 
HETATM   21  C10 UNK     1      36.227  -6.903  32.913  1.00  0.00     0.001 A 
HETATM   22  C11 UNK     1      36.489  -7.102  34.275  1.00  0.00     0.002 A 
HETATM   23  C8  UNK     1      35.452  -7.379  35.172  1.00  0.00     0.030 A 
ENDBRANCH   3  12
BRANCH  10  24
HETATM   24  N2  UNK     1      26.275  -5.262  38.780  1.00  0.00    -0.116 N 
HETATM   25  O4  UNK     1      26.757  -4.128  39.012  1.00  0.00    -0.532 OA
HETATM   26  O5  UNK     1      25.041  -5.466  38.692  1.00  0.00    -0.532 OA
ENDBRANCH  10  24
TORSDOF 2
ENDMDL
