MODEL 1
REMARK VINA RESULT:     -10.3      0.000      0.000
REMARK  3 active torsions:
REMARK  status: ('A' for Active; 'I' for Inactive)
REMARK    1  A    between atoms: C3_12  and  N1_6 
REMARK       I    between atoms: C11_20  and  N2_7 
REMARK    2  A    between atoms: C9_18  and  N2_7 
REMARK    3  A    between atoms: C11_20  and  C12_21 
ROOT
HETATM    1  O2  UNK     1      14.926   7.232  31.894  1.00  0.00    -0.106 OA
HETATM    2  N3  UNK     1      15.453   8.386  32.448  1.00  0.00    -0.101 NA
HETATM    3  N4  UNK     1      15.811   6.170  31.974  1.00  0.00    -0.101 NA
HETATM    4  C3  UNK     1      17.641   8.858  33.524  1.00  0.00     0.064 A 
HETATM    5  C6  UNK     1      16.676   8.059  32.882  1.00  0.00     0.146 A 
HETATM    6  C7  UNK     1      18.832   8.183  33.845  1.00  0.00     0.034 A 
HETATM    7  C8  UNK     1      16.905   6.651  32.581  1.00  0.00     0.146 A 
HETATM    8  C9  UNK     1      18.100   6.020  32.916  1.00  0.00     0.069 A 
HETATM    9  C10 UNK     1      19.055   6.812  33.551  1.00  0.00     0.034 A 
ENDROOT
BRANCH   8  10
HETATM   10  N2  UNK     1      18.350   4.655  32.635  1.00  0.00    -0.321 N 
HETATM   11  C11 UNK     1      18.459   4.053  31.389  1.00  0.00     0.262 C 
HETATM   12  O4  UNK     1      18.362   4.579  30.281  1.00  0.00    -0.267 OA
HETATM   13  H11 UNK     1      18.478   4.084  33.467  1.00  0.00     0.169 HD
BRANCH  11  14
HETATM   14  C12 UNK     1      18.725   2.613  31.490  1.00  0.00     0.108 A 
HETATM   15  C14 UNK     1      19.298   2.041  30.425  1.00  0.00     0.037 A 
HETATM   16  C13 UNK     1      19.601   0.618  30.431  1.00  0.00    -0.001 A 
HETATM   17  C15 UNK     1      19.284  -0.133  31.559  1.00  0.00     0.089 A 
HETATM   18  C17 UNK     1      20.198  -0.022  29.342  1.00  0.00     0.014 A 
HETATM   19  O3  UNK     1      18.681   0.476  32.678  1.00  0.00    -0.274 OA
HETATM   20  C18 UNK     1      19.547  -1.499  31.629  1.00  0.00     0.038 A 
HETATM   21  C16 UNK     1      18.380   1.834  32.701  1.00  0.00     0.304 A 
HETATM   22  O5  UNK     1      17.854   2.355  33.679  1.00  0.00    -0.259 OA
HETATM   23  C20 UNK     1      20.143  -2.129  30.538  1.00  0.00     0.003 A 
HETATM   24  C19 UNK     1      20.468  -1.392  29.397  1.00  0.00     0.001 A 
ENDBRANCH  11  14
ENDBRANCH   8  10
BRANCH   4  25
HETATM   25  N1  UNK     1      17.463  10.211  33.830  1.00  0.00    -0.375 N 
HETATM   26  C1  UNK     1      16.291  10.639  34.601  1.00  0.00     0.149 C 
HETATM   27  C4  UNK     1      16.050  12.129  34.387  1.00  0.00     0.187 C 
HETATM   28  O1  UNK     1      17.227  12.875  34.691  1.00  0.00    -0.388 OA
HETATM   29  C5  UNK     1      18.292  12.515  33.812  1.00  0.00     0.187 C 
HETATM   30  C2  UNK     1      18.661  11.047  33.995  1.00  0.00     0.149 C 
ENDBRANCH   4  25
TORSDOF 3
ENDMDL
MODEL 2
REMARK VINA RESULT:     -10.3      0.998      1.797
REMARK  3 active torsions:
REMARK  status: ('A' for Active; 'I' for Inactive)
REMARK    1  A    between atoms: C3_12  and  N1_6 
REMARK       I    between atoms: C11_20  and  N2_7 
REMARK    2  A    between atoms: C9_18  and  N2_7 
REMARK    3  A    between atoms: C11_20  and  C12_21 
ROOT
HETATM    1  O2  UNK     1      15.023   7.530  31.310  1.00  0.00    -0.106 OA
HETATM    2  N3  UNK     1      15.539   8.547  32.094  1.00  0.00    -0.101 NA
HETATM    3  N4  UNK     1      15.930   6.499  31.138  1.00  0.00    -0.101 NA
HETATM    4  C3  UNK     1      17.742   8.826  33.207  1.00  0.00     0.064 A 
HETATM    5  C6  UNK     1      16.778   8.163  32.423  1.00  0.00     0.146 A 
HETATM    6  C7  UNK     1      18.953   8.126  33.350  1.00  0.00     0.034 A 
HETATM    7  C8  UNK     1      17.028   6.862  31.816  1.00  0.00     0.146 A 
HETATM    8  C9  UNK     1      18.243   6.202  31.982  1.00  0.00     0.069 A 
HETATM    9  C10 UNK     1      19.197   6.858  32.758  1.00  0.00     0.034 A 
ENDROOT
BRANCH   8  10
HETATM   10  N2  UNK     1      18.513   4.938  31.404  1.00  0.00    -0.321 N 
HETATM   11  C11 UNK     1      18.195   3.687  31.915  1.00  0.00     0.262 C 
HETATM   12  O4  UNK     1      17.617   3.423  32.968  1.00  0.00    -0.267 OA
HETATM   13  H11 UNK     1      18.978   4.994  30.500  1.00  0.00     0.169 HD
BRANCH  11  14
HETATM   14  C12 UNK     1      18.634   2.600  31.032  1.00  0.00     0.108 A 
HETATM   15  C14 UNK     1      19.024   1.470  31.634  1.00  0.00     0.037 A 
HETATM   16  C13 UNK     1      19.477   0.336  30.842  1.00  0.00    -0.001 A 
HETATM   17  C15 UNK     1      19.494   0.448  29.455  1.00  0.00     0.089 A 
HETATM   18  C17 UNK     1      19.894  -0.862  31.427  1.00  0.00     0.014 A 
HETATM   19  O3  UNK     1      19.081   1.640  28.828  1.00  0.00    -0.274 OA
HETATM   20  C18 UNK     1      19.916  -0.600  28.640  1.00  0.00     0.038 A 
HETATM   21  C16 UNK     1      18.644   2.741  29.559  1.00  0.00     0.304 A 
HETATM   22  O5  UNK     1      18.286   3.774  29.003  1.00  0.00    -0.259 OA
HETATM   23  C20 UNK     1      20.331  -1.791  29.232  1.00  0.00     0.003 A 
HETATM   24  C19 UNK     1      20.320  -1.922  30.622  1.00  0.00     0.001 A 
ENDBRANCH  11  14
ENDBRANCH   8  10
BRANCH   4  25
HETATM   25  N1  UNK     1      17.544  10.073  33.806  1.00  0.00    -0.375 N 
HETATM   26  C1  UNK     1      16.433  10.268  34.743  1.00  0.00     0.149 C 
HETATM   27  C4  UNK     1      16.120  11.755  34.870  1.00  0.00     0.187 C 
HETATM   28  O1  UNK     1      17.293  12.484  35.229  1.00  0.00    -0.388 OA
HETATM   29  C5  UNK     1      18.285  12.372  34.209  1.00  0.00     0.187 C 
HETATM   30  C2  UNK     1      18.721  10.921  34.047  1.00  0.00     0.149 C 
ENDBRANCH   4  25
TORSDOF 3
ENDMDL
MODEL 3
REMARK VINA RESULT:     -10.1      1.697      2.813
REMARK  3 active torsions:
REMARK  status: ('A' for Active; 'I' for Inactive)
REMARK    1  A    between atoms: C3_12  and  N1_6 
REMARK       I    between atoms: C11_20  and  N2_7 
REMARK    2  A    between atoms: C9_18  and  N2_7 
REMARK    3  A    between atoms: C11_20  and  C12_21 
ROOT
HETATM    1  O2  UNK     1      19.868   7.346  34.630  1.00  0.00    -0.106 OA
HETATM    2  N3  UNK     1      18.816   8.240  34.729  1.00  0.00    -0.101 NA
HETATM    3  N4  UNK     1      19.586   6.311  33.755  1.00  0.00    -0.101 NA
HETATM    4  C3  UNK     1      16.585   8.300  33.639  1.00  0.00     0.064 A 
HETATM    5  C6  UNK     1      17.862   7.774  33.915  1.00  0.00     0.146 A 
HETATM    6  C7  UNK     1      15.832   7.545  32.723  1.00  0.00     0.034 A 
HETATM    7  C8  UNK     1      18.350   6.548  33.296  1.00  0.00     0.146 A 
HETATM    8  C9  UNK     1      17.571   5.829  32.392  1.00  0.00     0.069 A 
HETATM    9  C10 UNK     1      16.307   6.350  32.120  1.00  0.00     0.034 A 
ENDROOT
BRANCH   8  10
HETATM   10  N2  UNK     1      18.019   4.635  31.777  1.00  0.00    -0.321 N 
HETATM   11  C11 UNK     1      18.086   3.367  32.337  1.00  0.00     0.262 C 
HETATM   12  O4  UNK     1      17.772   3.023  33.475  1.00  0.00    -0.267 OA
HETATM   13  H11 UNK     1      18.297   4.756  30.805  1.00  0.00     0.169 HD
BRANCH  11  14
HETATM   14  C12 UNK     1      18.603   2.370  31.391  1.00  0.00     0.108 A 
HETATM   15  C14 UNK     1      18.912   1.173  31.905  1.00  0.00     0.037 A 
HETATM   16  C13 UNK     1      19.432   0.120  31.046  1.00  0.00    -0.001 A 
HETATM   17  C15 UNK     1      19.601   0.379  29.689  1.00  0.00     0.089 A 
HETATM   18  C17 UNK     1      19.768  -1.144  31.538  1.00  0.00     0.014 A 
HETATM   19  O3  UNK     1      19.273   1.641  29.156  1.00  0.00    -0.274 OA
HETATM   20  C18 UNK     1      20.095  -0.585  28.814  1.00  0.00     0.038 A 
HETATM   21  C16 UNK     1      18.774   2.668  29.952  1.00  0.00     0.304 A 
HETATM   22  O5  UNK     1      18.492   3.764  29.478  1.00  0.00    -0.259 OA
HETATM   23  C20 UNK     1      20.428  -1.843  29.313  1.00  0.00     0.003 A 
HETATM   24  C19 UNK     1      20.265  -2.123  30.671  1.00  0.00     0.001 A 
ENDBRANCH  11  14
ENDBRANCH   8  10
BRANCH   4  25
HETATM   25  N1  UNK     1      16.078   9.471  34.211  1.00  0.00    -0.375 N 
HETATM   26  C1  UNK     1      16.679  10.767  33.880  1.00  0.00     0.149 C 
HETATM   27  C4  UNK     1      16.320  11.790  34.952  1.00  0.00     0.187 C 
HETATM   28  O1  UNK     1      14.905  11.855  35.129  1.00  0.00    -0.388 OA
HETATM   29  C5  UNK     1      14.399  10.602  35.589  1.00  0.00     0.187 C 
HETATM   30  C2  UNK     1      14.649   9.513  34.552  1.00  0.00     0.149 C 
ENDBRANCH   4  25
TORSDOF 3
ENDMDL
MODEL 4
REMARK VINA RESULT:     -10.0     16.483     21.277
REMARK  3 active torsions:
REMARK  status: ('A' for Active; 'I' for Inactive)
REMARK    1  A    between atoms: C3_12  and  N1_6 
REMARK       I    between atoms: C11_20  and  N2_7 
REMARK    2  A    between atoms: C9_18  and  N2_7 
REMARK    3  A    between atoms: C11_20  and  C12_21 
ROOT
HETATM    1  O2  UNK     1      18.637  -1.916  11.051  1.00  0.00    -0.106 OA
HETATM    2  N3  UNK     1      18.903  -3.255  10.827  1.00  0.00    -0.101 NA
HETATM    3  N4  UNK     1      18.851  -1.561  12.371  1.00  0.00    -0.101 NA
HETATM    4  C3  UNK     1      19.673  -5.067  12.340  1.00  0.00     0.064 A 
HETATM    5  C6  UNK     1      19.288  -3.755  12.007  1.00  0.00     0.146 A 
HETATM    6  C7  UNK     1      20.020  -5.245  13.692  1.00  0.00     0.034 A 
HETATM    7  C8  UNK     1      19.255  -2.679  12.989  1.00  0.00     0.146 A 
HETATM    8  C9  UNK     1      19.606  -2.897  14.319  1.00  0.00     0.069 A 
HETATM    9  C10 UNK     1      19.988  -4.196  14.649  1.00  0.00     0.034 A 
ENDROOT
BRANCH   8  10
HETATM   10  N2  UNK     1      19.583  -1.871  15.295  1.00  0.00    -0.321 N 
HETATM   11  C11 UNK     1      18.551  -1.556  16.168  1.00  0.00     0.262 C 
HETATM   12  O4  UNK     1      17.452  -2.100  16.273  1.00  0.00    -0.267 OA
HETATM   13  H11 UNK     1      20.447  -1.336  15.346  1.00  0.00     0.169 HD
BRANCH  11  14
HETATM   14  C12 UNK     1      18.889  -0.425  17.042  1.00  0.00     0.108 A 
HETATM   15  C14 UNK     1      18.916  -0.681  18.355  1.00  0.00     0.037 A 
HETATM   16  C13 UNK     1      19.241   0.376  19.301  1.00  0.00    -0.001 A 
HETATM   17  C15 UNK     1      19.523   1.650  18.816  1.00  0.00     0.089 A 
HETATM   18  C17 UNK     1      19.281   0.155  20.680  1.00  0.00     0.014 A 
HETATM   19  O3  UNK     1      19.493   1.911  17.432  1.00  0.00    -0.274 OA
HETATM   20  C18 UNK     1      19.840   2.705  19.668  1.00  0.00     0.038 A 
HETATM   21  C16 UNK     1      19.185   0.921  16.504  1.00  0.00     0.304 A 
HETATM   22  O5  UNK     1      19.162   1.159  15.301  1.00  0.00    -0.259 OA
HETATM   23  C20 UNK     1      19.877   2.476  21.043  1.00  0.00     0.003 A 
HETATM   24  C19 UNK     1      19.598   1.204  21.547  1.00  0.00     0.001 A 
ENDBRANCH  11  14
ENDBRANCH   8  10
BRANCH   4  25
HETATM   25  N1  UNK     1      19.717  -6.128  11.431  1.00  0.00    -0.375 N 
HETATM   26  C1  UNK     1      20.928  -6.950  11.323  1.00  0.00     0.149 C 
HETATM   27  C4  UNK     1      20.937  -7.681   9.985  1.00  0.00     0.187 C 
HETATM   28  O1  UNK     1      19.733  -8.428   9.815  1.00  0.00    -0.388 OA
HETATM   29  C5  UNK     1      18.602  -7.558   9.784  1.00  0.00     0.187 C 
HETATM   30  C2  UNK     1      18.461  -6.821  11.112  1.00  0.00     0.149 C 
ENDBRANCH   4  25
TORSDOF 3
ENDMDL
MODEL 5
REMARK VINA RESULT:      -9.7      2.000      9.604
REMARK  3 active torsions:
REMARK  status: ('A' for Active; 'I' for Inactive)
REMARK    1  A    between atoms: C3_12  and  N1_6 
REMARK       I    between atoms: C11_20  and  N2_7 
REMARK    2  A    between atoms: C9_18  and  N2_7 
REMARK    3  A    between atoms: C11_20  and  C12_21 
ROOT
HETATM    1  O2  UNK     1      18.014   1.850  34.248  1.00  0.00    -0.106 OA
HETATM    2  N3  UNK     1      18.447   1.203  33.104  1.00  0.00    -0.101 NA
HETATM    3  N4  UNK     1      17.836   3.206  34.038  1.00  0.00    -0.101 NA
HETATM    4  C3  UNK     1      18.942   2.034  30.817  1.00  0.00     0.064 A 
HETATM    5  C6  UNK     1      18.546   2.148  32.162  1.00  0.00     0.146 A 
HETATM    6  C7  UNK     1      18.931   3.246  30.103  1.00  0.00     0.034 A 
HETATM    7  C8  UNK     1      18.157   3.422  32.755  1.00  0.00     0.146 A 
HETATM    8  C9  UNK     1      18.160   4.601  32.013  1.00  0.00     0.069 A 
HETATM    9  C10 UNK     1      18.552   4.487  30.681  1.00  0.00     0.034 A 
ENDROOT
BRANCH   8  10
HETATM   10  N2  UNK     1      17.788   5.852  32.563  1.00  0.00    -0.321 N 
HETATM   11  C11 UNK     1      18.505   6.626  33.466  1.00  0.00     0.262 C 
HETATM   12  O4  UNK     1      19.601   6.386  33.969  1.00  0.00    -0.267 OA
HETATM   13  H11 UNK     1      16.897   6.201  32.218  1.00  0.00     0.169 HD
BRANCH  11  14
HETATM   14  C12 UNK     1      17.802   7.869  33.810  1.00  0.00     0.108 A 
HETATM   15  C14 UNK     1      18.520   8.995  33.732  1.00  0.00     0.037 A 
HETATM   16  C13 UNK     1      17.910  10.276  34.055  1.00  0.00    -0.001 A 
HETATM   17  C15 UNK     1      16.574  10.308  34.442  1.00  0.00     0.089 A 
HETATM   18  C17 UNK     1      18.622  11.478  33.988  1.00  0.00     0.014 A 
HETATM   19  O3  UNK     1      15.824   9.118  34.521  1.00  0.00    -0.274 OA
HETATM   20  C18 UNK     1      15.932  11.501  34.765  1.00  0.00     0.038 A 
HETATM   21  C16 UNK     1      16.380   7.878  34.220  1.00  0.00     0.304 A 
HETATM   22  O5  UNK     1      15.718   6.848  34.291  1.00  0.00    -0.259 OA
HETATM   23  C20 UNK     1      16.649  12.694  34.696  1.00  0.00     0.003 A 
HETATM   24  C19 UNK     1      17.991  12.683  34.309  1.00  0.00     0.001 A 
ENDBRANCH  11  14
ENDBRANCH   8  10
BRANCH   4  25
HETATM   25  N1  UNK     1      19.323   0.834  30.209  1.00  0.00    -0.375 N 
HETATM   26  C1  UNK     1      19.344   0.728  28.746  1.00  0.00     0.149 C 
HETATM   27  C4  UNK     1      19.295  -0.739  28.334  1.00  0.00     0.187 C 
HETATM   28  O1  UNK     1      20.345  -1.470  28.966  1.00  0.00    -0.388 OA
HETATM   29  C5  UNK     1      20.188  -1.450  30.384  1.00  0.00     0.187 C 
HETATM   30  C2  UNK     1      20.288  -0.023  30.911  1.00  0.00     0.149 C 
ENDBRANCH   4  25
TORSDOF 3
ENDMDL
MODEL 6
REMARK VINA RESULT:      -9.7      5.044     10.978
REMARK  3 active torsions:
REMARK  status: ('A' for Active; 'I' for Inactive)
REMARK    1  A    between atoms: C3_12  and  N1_6 
REMARK       I    between atoms: C11_20  and  N2_7 
REMARK    2  A    between atoms: C9_18  and  N2_7 
REMARK    3  A    between atoms: C11_20  and  C12_21 
ROOT
HETATM    1  O2  UNK     1      20.909  -3.331  33.044  1.00  0.00    -0.106 OA
HETATM    2  N3  UNK     1      20.636  -4.053  34.193  1.00  0.00    -0.101 NA
HETATM    3  N4  UNK     1      20.416  -2.040  33.117  1.00  0.00    -0.101 NA
HETATM    4  C3  UNK     1      19.451  -3.447  36.289  1.00  0.00     0.064 A 
HETATM    5  C6  UNK     1      19.967  -3.221  34.999  1.00  0.00     0.146 A 
HETATM    6  C7  UNK     1      18.794  -2.339  36.854  1.00  0.00     0.034 A 
HETATM    7  C8  UNK     1      19.826  -1.941  34.316  1.00  0.00     0.146 A 
HETATM    8  C9  UNK     1      19.168  -0.867  34.911  1.00  0.00     0.069 A 
HETATM    9  C10 UNK     1      18.657  -1.091  36.188  1.00  0.00     0.034 A 
ENDROOT
BRANCH   8  10
HETATM   10  N2  UNK     1      19.016   0.387  34.271  1.00  0.00    -0.321 N 
HETATM   11  C11 UNK     1      17.833   1.060  33.997  1.00  0.00     0.262 C 
HETATM   12  O4  UNK     1      16.682   0.707  34.252  1.00  0.00    -0.267 OA
HETATM   13  H11 UNK     1      19.898   0.824  34.015  1.00  0.00     0.169 HD
BRANCH  11  14
HETATM   14  C12 UNK     1      18.068   2.341  33.321  1.00  0.00     0.108 A 
HETATM   15  C14 UNK     1      18.023   3.434  34.092  1.00  0.00     0.037 A 
HETATM   16  C13 UNK     1      18.243   4.750  33.512  1.00  0.00    -0.001 A 
HETATM   17  C15 UNK     1      18.501   4.850  32.149  1.00  0.00     0.089 A 
HETATM   18  C17 UNK     1      18.205   5.918  34.279  1.00  0.00     0.014 A 
HETATM   19  O3  UNK     1      18.548   3.696  31.343  1.00  0.00    -0.274 OA
HETATM   20  C18 UNK     1      18.720   6.080  31.532  1.00  0.00     0.038 A 
HETATM   21  C16 UNK     1      18.340   2.424  31.869  1.00  0.00     0.304 A 
HETATM   22  O5  UNK     1      18.383   1.425  31.158  1.00  0.00    -0.259 OA
HETATM   23  C20 UNK     1      18.680   7.239  32.305  1.00  0.00     0.003 A 
HETATM   24  C19 UNK     1      18.423   7.159  33.675  1.00  0.00     0.001 A 
ENDBRANCH  11  14
ENDBRANCH   8  10
BRANCH   4  25
HETATM   25  N1  UNK     1      19.562  -4.658  36.979  1.00  0.00    -0.375 N 
HETATM   26  C1  UNK     1      18.808  -5.831  36.525  1.00  0.00     0.149 C 
HETATM   27  C4  UNK     1      18.689  -6.839  37.662  1.00  0.00     0.187 C 
HETATM   28  O1  UNK     1      19.979  -7.166  38.178  1.00  0.00    -0.388 OA
HETATM   29  C5  UNK     1      20.604  -6.010  38.735  1.00  0.00     0.187 C 
HETATM   30  C2  UNK     1      20.831  -4.955  37.658  1.00  0.00     0.149 C 
ENDBRANCH   4  25
TORSDOF 3
ENDMDL
MODEL 7
REMARK VINA RESULT:      -9.7     16.888     21.398
REMARK  3 active torsions:
REMARK  status: ('A' for Active; 'I' for Inactive)
REMARK    1  A    between atoms: C3_12  and  N1_6 
REMARK       I    between atoms: C11_20  and  N2_7 
REMARK    2  A    between atoms: C9_18  and  N2_7 
REMARK    3  A    between atoms: C11_20  and  C12_21 
ROOT
HETATM    1  O2  UNK     1      20.912  -5.144  13.967  1.00  0.00    -0.106 OA
HETATM    2  N3  UNK     1      20.652  -5.183  12.608  1.00  0.00    -0.101 NA
HETATM    3  N4  UNK     1      20.589  -3.916  14.519  1.00  0.00    -0.101 NA
HETATM    4  C3  UNK     1      19.737  -3.483  11.046  1.00  0.00     0.064 A 
HETATM    5  C6  UNK     1      20.163  -3.978  12.293  1.00  0.00     0.146 A 
HETATM    6  C7  UNK     1      19.275  -2.155  11.076  1.00  0.00     0.034 A 
HETATM    7  C8  UNK     1      20.123  -3.172  13.507  1.00  0.00     0.146 A 
HETATM    8  C9  UNK     1      19.657  -1.859  13.494  1.00  0.00     0.069 A 
HETATM    9  C10 UNK     1      19.236  -1.369  12.259  1.00  0.00     0.034 A 
ENDROOT
BRANCH   8  10
HETATM   10  N2  UNK     1      19.608  -1.054  14.657  1.00  0.00    -0.321 N 
HETATM   11  C11 UNK     1      18.723  -1.157  15.722  1.00  0.00     0.262 C 
HETATM   12  O4  UNK     1      17.808  -1.965  15.873  1.00  0.00    -0.267 OA
HETATM   13  H11 UNK     1      20.331  -0.339  14.690  1.00  0.00     0.169 HD
BRANCH  11  14
HETATM   14  C12 UNK     1      18.978  -0.145  16.755  1.00  0.00     0.108 A 
HETATM   15  C14 UNK     1      18.998  -0.583  18.019  1.00  0.00     0.037 A 
HETATM   16  C13 UNK     1      19.242   0.346  19.112  1.00  0.00    -0.001 A 
HETATM   17  C15 UNK     1      19.455   1.689  18.820  1.00  0.00     0.089 A 
HETATM   18  C17 UNK     1      19.271  -0.066  20.448  1.00  0.00     0.014 A 
HETATM   19  O3  UNK     1      19.434   2.143  17.486  1.00  0.00    -0.274 OA
HETATM   20  C18 UNK     1      19.694   2.629  19.820  1.00  0.00     0.038 A 
HETATM   21  C16 UNK     1      19.202   1.279  16.420  1.00  0.00     0.304 A 
HETATM   22  O5  UNK     1      19.185   1.684  15.262  1.00  0.00    -0.259 OA
HETATM   23  C20 UNK     1      19.721   2.209  21.149  1.00  0.00     0.003 A 
HETATM   24  C19 UNK     1      19.510   0.865  21.462  1.00  0.00     0.001 A 
ENDBRANCH  11  14
ENDBRANCH   8  10
BRANCH   4  25
HETATM   25  N1  UNK     1      19.760  -4.220   9.859  1.00  0.00    -0.375 N 
HETATM   26  C1  UNK     1      18.632  -5.092   9.517  1.00  0.00     0.149 C 
HETATM   27  C4  UNK     1      19.075  -6.131   8.492  1.00  0.00     0.187 C 
HETATM   28  O1  UNK     1      19.658  -5.495   7.356  1.00  0.00    -0.388 OA
HETATM   29  C5  UNK     1      20.835  -4.779   7.730  1.00  0.00     0.187 C 
HETATM   30  C2  UNK     1      20.490  -3.663   8.711  1.00  0.00     0.149 C 
ENDBRANCH   4  25
TORSDOF 3
ENDMDL
MODEL 8
REMARK VINA RESULT:      -9.6      7.704     13.216
REMARK  3 active torsions:
REMARK  status: ('A' for Active; 'I' for Inactive)
REMARK    1  A    between atoms: C3_12  and  N1_6 
REMARK       I    between atoms: C11_20  and  N2_7 
REMARK    2  A    between atoms: C9_18  and  N2_7 
REMARK    3  A    between atoms: C11_20  and  C12_21 
ROOT
HETATM    1  O2  UNK     1      21.088  -7.823  33.831  1.00  0.00    -0.106 OA
HETATM    2  N3  UNK     1      20.907  -8.256  35.133  1.00  0.00    -0.101 NA
HETATM    3  N4  UNK     1      20.729  -6.495  33.675  1.00  0.00    -0.101 NA
HETATM    4  C3  UNK     1      20.078  -7.096  37.166  1.00  0.00     0.064 A 
HETATM    5  C6  UNK     1      20.433  -7.203  35.808  1.00  0.00     0.146 A 
HETATM    6  C7  UNK     1      19.609  -5.826  37.545  1.00  0.00     0.034 A 
HETATM    7  C8  UNK     1      20.319  -6.083  34.882  1.00  0.00     0.146 A 
HETATM    8  C9  UNK     1      19.849  -4.839  35.298  1.00  0.00     0.069 A 
HETATM    9  C10 UNK     1      19.498  -4.734  36.642  1.00  0.00     0.034 A 
ENDROOT
BRANCH   8  10
HETATM   10  N2  UNK     1      19.727  -3.735  34.421  1.00  0.00    -0.321 N 
HETATM   11  C11 UNK     1      20.406  -2.525  34.482  1.00  0.00     0.262 C 
HETATM   12  O4  UNK     1      21.247  -2.169  35.306  1.00  0.00    -0.267 OA
HETATM   13  H11 UNK     1      19.071  -3.889  33.658  1.00  0.00     0.169 HD
BRANCH  11  14
HETATM   14  C12 UNK     1      20.019  -1.616  33.396  1.00  0.00     0.108 A 
HETATM   15  C14 UNK     1      20.449  -1.943  32.171  1.00  0.00     0.037 A 
HETATM   16  C13 UNK     1      20.116  -1.103  31.031  1.00  0.00    -0.001 A 
HETATM   17  C15 UNK     1      19.347   0.038  31.236  1.00  0.00     0.089 A 
HETATM   18  C17 UNK     1      20.543  -1.404  29.734  1.00  0.00     0.014 A 
HETATM   19  O3  UNK     1      18.898   0.375  32.528  1.00  0.00    -0.274 OA
HETATM   20  C18 UNK     1      18.995   0.885  30.187  1.00  0.00     0.038 A 
HETATM   21  C16 UNK     1      19.201  -0.408  33.638  1.00  0.00     0.304 A 
HETATM   22  O5  UNK     1      18.805  -0.106  34.760  1.00  0.00    -0.259 OA
HETATM   23  C20 UNK     1      19.426   0.577  28.898  1.00  0.00     0.003 A 
HETATM   24  C19 UNK     1      20.197  -0.564  28.672  1.00  0.00     0.001 A 
ENDBRANCH  11  14
ENDBRANCH   8  10
BRANCH   4  25
HETATM   25  N1  UNK     1      20.170  -8.144  38.086  1.00  0.00    -0.375 N 
HETATM   26  C1  UNK     1      20.872  -7.941  39.359  1.00  0.00     0.149 C 
HETATM   27  C4  UNK     1      21.270  -9.289  39.948  1.00  0.00     0.187 C 
HETATM   28  O1  UNK     1      20.132 -10.141  40.064  1.00  0.00    -0.388 OA
HETATM   29  C5  UNK     1      19.579 -10.418  38.777  1.00  0.00     0.187 C 
HETATM   30  C2  UNK     1      19.084  -9.133  38.122  1.00  0.00     0.149 C 
ENDBRANCH   4  25
TORSDOF 3
ENDMDL
MODEL 9
REMARK VINA RESULT:      -9.6      5.027     10.795
REMARK  3 active torsions:
REMARK  status: ('A' for Active; 'I' for Inactive)
REMARK    1  A    between atoms: C3_12  and  N1_6 
REMARK       I    between atoms: C11_20  and  N2_7 
REMARK    2  A    between atoms: C9_18  and  N2_7 
REMARK    3  A    between atoms: C11_20  and  C12_21 
ROOT
HETATM    1  O2  UNK     1      18.230  -0.761  38.213  1.00  0.00    -0.106 OA
HETATM    2  N3  UNK     1      18.650  -2.078  38.162  1.00  0.00    -0.101 NA
HETATM    3  N4  UNK     1      18.382  -0.122  36.995  1.00  0.00    -0.101 NA
HETATM    4  C3  UNK     1      19.599  -3.443  36.317  1.00  0.00     0.064 A 
HETATM    5  C6  UNK     1      19.072  -2.280  36.908  1.00  0.00     0.146 A 
HETATM    6  C7  UNK     1      19.944  -3.301  34.961  1.00  0.00     0.034 A 
HETATM    7  C8  UNK     1      18.902  -1.037  36.165  1.00  0.00     0.146 A 
HETATM    8  C9  UNK     1      19.257  -0.937  34.822  1.00  0.00     0.069 A 
HETATM    9  C10 UNK     1      19.779  -2.089  34.238  1.00  0.00     0.034 A 
ENDROOT
BRANCH   8  10
HETATM   10  N2  UNK     1      19.104   0.257  34.077  1.00  0.00    -0.321 N 
HETATM   11  C11 UNK     1      17.930   0.955  33.826  1.00  0.00     0.262 C 
HETATM   12  O4  UNK     1      16.790   0.680  34.198  1.00  0.00    -0.267 OA
HETATM   13  H11 UNK     1      19.979   0.628  33.715  1.00  0.00     0.169 HD
BRANCH  11  14
HETATM   14  C12 UNK     1      18.161   2.156  33.014  1.00  0.00     0.108 A 
HETATM   15  C14 UNK     1      18.023   3.329  33.642  1.00  0.00     0.037 A 
HETATM   16  C13 UNK     1      18.232   4.575  32.920  1.00  0.00    -0.001 A 
HETATM   17  C15 UNK     1      18.577   4.523  31.573  1.00  0.00     0.089 A 
HETATM   18  C17 UNK     1      18.099   5.823  33.534  1.00  0.00     0.014 A 
HETATM   19  O3  UNK     1      18.721   3.284  30.919  1.00  0.00    -0.274 OA
HETATM   20  C18 UNK     1      18.790   5.679  30.825  1.00  0.00     0.038 A 
HETATM   21  C16 UNK     1      18.527   2.076  31.582  1.00  0.00     0.304 A 
HETATM   22  O5  UNK     1      18.654   1.002  31.004  1.00  0.00    -0.259 OA
HETATM   23  C20 UNK     1      18.654   6.919  31.446  1.00  0.00     0.003 A 
HETATM   24  C19 UNK     1      18.310   6.992  32.797  1.00  0.00     0.001 A 
ENDBRANCH  11  14
ENDBRANCH   8  10
BRANCH   4  25
HETATM   25  N1  UNK     1      19.780  -4.655  36.992  1.00  0.00    -0.375 N 
HETATM   26  C1  UNK     1      19.037  -5.847  36.568  1.00  0.00     0.149 C 
HETATM   27  C4  UNK     1      19.005  -6.864  37.702  1.00  0.00     0.187 C 
HETATM   28  O1  UNK     1      20.328  -7.156  38.150  1.00  0.00    -0.388 OA
HETATM   29  C5  UNK     1      20.947  -5.985  38.684  1.00  0.00     0.187 C 
HETATM   30  C2  UNK     1      21.090  -4.919  37.604  1.00  0.00     0.149 C 
ENDBRANCH   4  25
TORSDOF 3
ENDMDL
MODEL 10
REMARK VINA RESULT:      -9.6      6.224      9.892
REMARK  3 active torsions:
REMARK  status: ('A' for Active; 'I' for Inactive)
REMARK    1  A    between atoms: C3_12  and  N1_6 
REMARK       I    between atoms: C11_20  and  N2_7 
REMARK    2  A    between atoms: C9_18  and  N2_7 
REMARK    3  A    between atoms: C11_20  and  C12_21 
ROOT
HETATM    1  O2  UNK     1      17.119  -0.076  35.182  1.00  0.00    -0.106 OA
HETATM    2  N3  UNK     1      17.487   0.440  33.951  1.00  0.00    -0.101 NA
HETATM    3  N4  UNK     1      17.826  -1.224  35.492  1.00  0.00    -0.101 NA
HETATM    4  C3  UNK     1      19.143  -0.320  32.264  1.00  0.00     0.064 A 
HETATM    5  C6  UNK     1      18.430  -0.382  33.476  1.00  0.00     0.146 A 
HETATM    6  C7  UNK     1      20.073  -1.360  32.084  1.00  0.00     0.034 A 
HETATM    7  C8  UNK     1      18.646  -1.440  34.455  1.00  0.00     0.146 A 
HETATM    8  C9  UNK     1      19.578  -2.453  34.238  1.00  0.00     0.069 A 
HETATM    9  C10 UNK     1      20.283  -2.392  33.038  1.00  0.00     0.034 A 
ENDROOT
BRANCH   8  10
HETATM   10  N2  UNK     1      19.807  -3.494  35.171  1.00  0.00    -0.321 N 
HETATM   11  C11 UNK     1      20.261  -3.375  36.477  1.00  0.00     0.262 C 
HETATM   12  O4  UNK     1      20.554  -2.349  37.089  1.00  0.00    -0.267 OA
HETATM   13  H11 UNK     1      19.585  -4.420  34.812  1.00  0.00     0.169 HD
BRANCH  11  14
HETATM   14  C12 UNK     1      20.377  -4.678  37.144  1.00  0.00     0.108 A 
HETATM   15  C14 UNK     1      21.526  -4.912  37.789  1.00  0.00     0.037 A 
HETATM   16  C13 UNK     1      21.734  -6.176  38.480  1.00  0.00    -0.001 A 
HETATM   17  C15 UNK     1      20.721  -7.130  38.458  1.00  0.00     0.089 A 
HETATM   18  C17 UNK     1      22.917  -6.463  39.166  1.00  0.00     0.014 A 
HETATM   19  O3  UNK     1      19.514  -6.876  37.778  1.00  0.00    -0.274 OA
HETATM   20  C18 UNK     1      20.858  -8.359  39.099  1.00  0.00     0.038 A 
HETATM   21  C16 UNK     1      19.287  -5.678  37.107  1.00  0.00     0.304 A 
HETATM   22  O5  UNK     1      18.232  -5.467  36.517  1.00  0.00    -0.259 OA
HETATM   23  C20 UNK     1      22.042  -8.638  39.780  1.00  0.00     0.003 A 
HETATM   24  C19 UNK     1      23.069  -7.693  39.814  1.00  0.00     0.001 A 
ENDBRANCH  11  14
ENDBRANCH   8  10
BRANCH   4  25
HETATM   25  N1  UNK     1      18.967   0.675  31.299  1.00  0.00    -0.375 N 
HETATM   26  C1  UNK     1      18.861   2.080  31.706  1.00  0.00     0.149 C 
HETATM   27  C4  UNK     1      18.195   2.889  30.599  1.00  0.00     0.187 C 
HETATM   28  O1  UNK     1      18.889   2.713  29.365  1.00  0.00    -0.388 OA
HETATM   29  C5  UNK     1      18.835   1.349  28.948  1.00  0.00     0.187 C 
HETATM   30  C2  UNK     1      19.537   0.453  29.962  1.00  0.00     0.149 C 
ENDBRANCH   4  25
TORSDOF 3
ENDMDL
