MODEL 1
REMARK VINA RESULT:      -8.6      0.000      0.000
REMARK  4 active torsions:
REMARK  status: ('A' for Active; 'I' for Inactive)
REMARK    1  A    between atoms: C11_17  and  O1_1 
REMARK    2  A    between atoms: C18_24  and  O1_1 
REMARK    3  A    between atoms: C17_23  and  C6_12 
REMARK    4  A    between atoms: C10_16  and  C18_24 
ROOT
HETATM    1  O2  UNK     1      31.978  -5.513  37.156  1.00  0.00    -0.293 OA
HETATM    2  N1  UNK     1      28.093  -6.727  34.735  1.00  0.00    -0.362 N 
HETATM    3  C1  UNK     1      28.674  -6.288  38.435  1.00  0.00    -0.036 C 
HETATM    4  C2  UNK     1      28.098  -6.973  37.180  1.00  0.00     0.067 C 
HETATM    5  C3  UNK     1      30.200  -6.454  38.444  1.00  0.00     0.092 C 
HETATM    6  C4  UNK     1      30.097  -6.179  35.873  1.00  0.00     0.024 C 
HETATM    7  C5  UNK     1      28.821  -6.620  35.905  1.00  0.00     0.021 C 
HETATM    8  C6  UNK     1      30.784  -5.841  34.550  1.00  0.00     0.104 C 
HETATM    9  C7  UNK     1      30.845  -5.992  37.153  1.00  0.00     0.159 C 
HETATM   10  C8  UNK     1      28.295  -4.793  38.463  1.00  0.00     0.015 C 
HETATM   11  C9  UNK     1      28.084  -6.954  39.690  1.00  0.00     0.015 C 
HETATM   12  C10 UNK     1      29.803  -5.817  33.376  1.00  0.00     0.052 C 
HETATM   13  C14 UNK     1      28.539  -6.282  33.501  1.00  0.00     0.018 C 
HETATM   14  C19 UNK     1      27.523  -6.356  32.393  1.00  0.00     0.069 C 
HETATM   15  H17 UNK     1      27.138  -7.062  34.800  1.00  0.00     0.165 HD
ENDROOT
BRANCH   8  16
HETATM   16  C17 UNK     1      31.905  -6.811  34.272  1.00  0.00     0.029 A 
HETATM   17  C20 UNK     1      33.285  -6.280  34.133  1.00  0.00     0.194 A 
HETATM   18  O5  UNK     1      33.536  -5.086  34.239  1.00  0.00    -0.287 OA
HETATM   19  C22 UNK     1      34.343  -7.270  33.862  1.00  0.00     0.048 A 
HETATM   20  C23 UNK     1      33.998  -8.618  33.752  1.00  0.00     0.089 A 
HETATM   21  C24 UNK     1      35.673  -6.870  33.715  1.00  0.00     0.018 A 
HETATM   22  O3  UNK     1      32.709  -9.066  33.887  1.00  0.00    -0.321 OA
HETATM   23  C25 UNK     1      34.982  -9.572  33.495  1.00  0.00     0.038 A 
HETATM   24  C21 UNK     1      31.734  -8.133  34.141  1.00  0.00     0.154 A 
HETATM   25  C27 UNK     1      36.311  -9.175  33.349  1.00  0.00     0.003 A 
HETATM   26  C26 UNK     1      36.655  -7.826  33.458  1.00  0.00     0.001 A 
ENDBRANCH   8  16
BRANCH  12  27
HETATM   27  C18 UNK     1      30.284  -5.211  32.122  1.00  0.00     0.292 C 
HETATM   28  O4  UNK     1      29.976  -4.091  31.761  1.00  0.00    -0.259 OA
BRANCH  27  29
HETATM   29  O1  UNK     1      31.089  -6.104  31.498  1.00  0.00    -0.312 OA
BRANCH  29  30
HETATM   30  C11 UNK     1      30.522  -6.731  30.366  1.00  0.00     0.132 C 
HETATM   31  C12 UNK     1      30.261  -8.205  30.632  1.00  0.00     0.032 C 
HETATM   32  C15 UNK     1      30.161  -8.818  29.240  1.00  0.00     0.002 C 
HETATM   33  C16 UNK     1      30.969  -7.901  28.316  1.00  0.00     0.002 C 
HETATM   34  C13 UNK     1      31.491  -6.771  29.195  1.00  0.00     0.032 C 
ENDBRANCH  29  30
ENDBRANCH  27  29
ENDBRANCH  12  27
TORSDOF 4
ENDMDL
MODEL 2
REMARK VINA RESULT:      -8.6      2.661      4.303
REMARK  4 active torsions:
REMARK  status: ('A' for Active; 'I' for Inactive)
REMARK    1  A    between atoms: C11_17  and  O1_1 
REMARK    2  A    between atoms: C18_24  and  O1_1 
REMARK    3  A    between atoms: C17_23  and  C6_12 
REMARK    4  A    between atoms: C10_16  and  C18_24 
ROOT
HETATM    1  O2  UNK     1      34.197  -8.322  33.943  1.00  0.00    -0.293 OA
HETATM    2  N1  UNK     1      30.483  -5.411  33.541  1.00  0.00    -0.362 N 
HETATM    3  C1  UNK     1      33.036  -5.810  36.287  1.00  0.00    -0.036 C 
HETATM    4  C2  UNK     1      31.623  -5.594  35.710  1.00  0.00     0.067 C 
HETATM    5  C3  UNK     1      33.505  -7.233  35.953  1.00  0.00     0.092 C 
HETATM    6  C4  UNK     1      32.280  -6.947  33.691  1.00  0.00     0.024 C 
HETATM    7  C5  UNK     1      31.476  -6.032  34.274  1.00  0.00     0.021 C 
HETATM    8  C6  UNK     1      32.083  -7.358  32.233  1.00  0.00     0.104 C 
HETATM    9  C7  UNK     1      33.400  -7.550  34.475  1.00  0.00     0.159 C 
HETATM   10  C8  UNK     1      34.022  -4.770  35.717  1.00  0.00     0.015 C 
HETATM   11  C9  UNK     1      32.990  -5.637  37.815  1.00  0.00     0.015 C 
HETATM   12  C10 UNK     1      31.087  -6.452  31.504  1.00  0.00     0.052 C 
HETATM   13  C14 UNK     1      30.320  -5.562  32.173  1.00  0.00     0.018 C 
HETATM   14  C19 UNK     1      29.273  -4.674  31.556  1.00  0.00     0.069 C 
HETATM   15  H17 UNK     1      29.899  -4.730  34.014  1.00  0.00     0.165 HD
ENDROOT
BRANCH   8  16
HETATM   16  C17 UNK     1      31.639  -8.797  32.143  1.00  0.00     0.029 A 
HETATM   17  C20 UNK     1      32.409  -9.724  31.277  1.00  0.00     0.194 A 
HETATM   18  O5  UNK     1      33.387  -9.357  30.639  1.00  0.00    -0.287 OA
HETATM   19  C22 UNK     1      31.934 -11.119  31.226  1.00  0.00     0.048 A 
HETATM   20  C23 UNK     1      30.814 -11.481  31.975  1.00  0.00     0.089 A 
HETATM   21  C24 UNK     1      32.591 -12.068  30.439  1.00  0.00     0.018 A 
HETATM   22  O3  UNK     1      30.130 -10.592  32.763  1.00  0.00    -0.321 OA
HETATM   23  C25 UNK     1      30.345 -12.795  31.941  1.00  0.00     0.038 A 
HETATM   24  C21 UNK     1      30.585  -9.296  32.802  1.00  0.00     0.154 A 
HETATM   25  C27 UNK     1      31.001 -13.744  31.157  1.00  0.00     0.003 A 
HETATM   26  C26 UNK     1      32.121 -13.381  30.408  1.00  0.00     0.001 A 
ENDBRANCH   8  16
BRANCH  12  27
HETATM   27  C18 UNK     1      31.047  -6.558  30.035  1.00  0.00     0.292 C 
HETATM   28  O4  UNK     1      31.978  -6.242  29.318  1.00  0.00    -0.259 OA
BRANCH  27  29
HETATM   29  O1  UNK     1      29.837  -7.049  29.675  1.00  0.00    -0.312 OA
BRANCH  29  30
HETATM   30  C11 UNK     1      29.785  -8.451  29.510  1.00  0.00     0.132 C 
HETATM   31  C12 UNK     1      30.524  -8.880  28.252  1.00  0.00     0.032 C 
HETATM   32  C15 UNK     1      29.957 -10.261  27.945  1.00  0.00     0.002 C 
HETATM   33  C16 UNK     1      28.560 -10.292  28.573  1.00  0.00     0.002 C 
HETATM   34  C13 UNK     1      28.369  -8.938  29.246  1.00  0.00     0.032 C 
ENDBRANCH  29  30
ENDBRANCH  27  29
ENDBRANCH  12  27
TORSDOF 4
ENDMDL
MODEL 3
REMARK VINA RESULT:      -8.5      2.449      7.182
REMARK  4 active torsions:
REMARK  status: ('A' for Active; 'I' for Inactive)
REMARK    1  A    between atoms: C11_17  and  O1_1 
REMARK    2  A    between atoms: C18_24  and  O1_1 
REMARK    3  A    between atoms: C17_23  and  C6_12 
REMARK    4  A    between atoms: C10_16  and  C18_24 
ROOT
HETATM    1  O2  UNK     1      27.956  -7.005  32.240  1.00  0.00    -0.293 OA
HETATM    2  N1  UNK     1      31.201 -10.453  32.109  1.00  0.00    -0.362 N 
HETATM    3  C1  UNK     1      28.760  -9.244  29.502  1.00  0.00    -0.036 C 
HETATM    4  C2  UNK     1      29.550 -10.304  30.297  1.00  0.00     0.067 C 
HETATM    5  C3  UNK     1      27.753  -8.559  30.437  1.00  0.00     0.092 C 
HETATM    6  C4  UNK     1      29.558  -8.755  32.281  1.00  0.00     0.024 C 
HETATM    7  C5  UNK     1      30.086  -9.803  31.614  1.00  0.00     0.021 C 
HETATM    8  C6  UNK     1      30.139  -8.294  33.618  1.00  0.00     0.104 C 
HETATM    9  C7  UNK     1      28.401  -8.014  31.693  1.00  0.00     0.159 C 
HETATM   10  C8  UNK     1      29.715  -8.203  28.883  1.00  0.00     0.015 C 
HETATM   11  C9  UNK     1      27.999  -9.935  28.356  1.00  0.00     0.015 C 
HETATM   12  C10 UNK     1      31.475  -8.971  33.934  1.00  0.00     0.052 C 
HETATM   13  C14 UNK     1      31.925 -10.020  33.208  1.00  0.00     0.018 C 
HETATM   14  C19 UNK     1      33.192 -10.788  33.478  1.00  0.00     0.069 C 
HETATM   15  H17 UNK     1      31.569 -11.235  31.580  1.00  0.00     0.165 HD
ENDROOT
BRANCH   8  16
HETATM   16  C17 UNK     1      29.155  -8.536  34.735  1.00  0.00     0.029 A 
HETATM   17  C20 UNK     1      28.833  -7.413  35.651  1.00  0.00     0.194 A 
HETATM   18  O5  UNK     1      29.337  -6.305  35.526  1.00  0.00    -0.287 OA
HETATM   19  C22 UNK     1      27.865  -7.703  36.726  1.00  0.00     0.048 A 
HETATM   20  C23 UNK     1      27.321  -8.985  36.821  1.00  0.00     0.089 A 
HETATM   21  C24 UNK     1      27.496  -6.713  37.639  1.00  0.00     0.018 A 
HETATM   22  O3  UNK     1      27.647  -9.995  35.952  1.00  0.00    -0.321 OA
HETATM   23  C25 UNK     1      26.405  -9.282  37.830  1.00  0.00     0.038 A 
HETATM   24  C21 UNK     1      28.549  -9.710  34.955  1.00  0.00     0.154 A 
HETATM   25  C27 UNK     1      26.034  -8.294  38.742  1.00  0.00     0.003 A 
HETATM   26  C26 UNK     1      26.579  -7.013  38.647  1.00  0.00     0.001 A 
ENDBRANCH   8  16
BRANCH  12  27
HETATM   27  C18 UNK     1      32.270  -8.389  35.029  1.00  0.00     0.292 C 
HETATM   28  O4  UNK     1      32.103  -8.673  36.200  1.00  0.00    -0.259 OA
BRANCH  27  29
HETATM   29  O1  UNK     1      33.168  -7.527  34.493  1.00  0.00    -0.312 OA
BRANCH  29  30
HETATM   30  C11 UNK     1      33.354  -6.329  35.218  1.00  0.00     0.132 C 
HETATM   31  C12 UNK     1      32.358  -5.266  34.781  1.00  0.00     0.032 C 
HETATM   32  C15 UNK     1      32.993  -3.958  35.237  1.00  0.00     0.002 C 
HETATM   33  C16 UNK     1      34.501  -4.220  35.301  1.00  0.00     0.002 C 
HETATM   34  C13 UNK     1      34.692  -5.680  34.904  1.00  0.00     0.032 C 
ENDBRANCH  29  30
ENDBRANCH  27  29
ENDBRANCH  12  27
TORSDOF 4
ENDMDL
MODEL 4
REMARK VINA RESULT:      -8.5      2.881      7.530
REMARK  4 active torsions:
REMARK  status: ('A' for Active; 'I' for Inactive)
REMARK    1  A    between atoms: C11_17  and  O1_1 
REMARK    2  A    between atoms: C18_24  and  O1_1 
REMARK    3  A    between atoms: C17_23  and  C6_12 
REMARK    4  A    between atoms: C10_16  and  C18_24 
ROOT
HETATM    1  O2  UNK     1      29.321 -10.671  33.274  1.00  0.00    -0.293 OA
HETATM    2  N1  UNK     1      33.765  -9.364  34.263  1.00  0.00    -0.362 N 
HETATM    3  C1  UNK     1      32.420 -12.229  32.214  1.00  0.00    -0.036 C 
HETATM    4  C2  UNK     1      33.372 -11.554  33.221  1.00  0.00     0.067 C 
HETATM    5  C3  UNK     1      31.010 -12.297  32.820  1.00  0.00     0.092 C 
HETATM    6  C4  UNK     1      31.513  -9.987  33.872  1.00  0.00     0.024 C 
HETATM    7  C5  UNK     1      32.830 -10.276  33.811  1.00  0.00     0.021 C 
HETATM    8  C6  UNK     1      31.018  -8.678  34.487  1.00  0.00     0.104 C 
HETATM    9  C7  UNK     1      30.520 -10.949  33.306  1.00  0.00     0.159 C 
HETATM   10  C8  UNK     1      32.396 -11.453  30.881  1.00  0.00     0.015 C 
HETATM   11  C9  UNK     1      32.917 -13.657  31.926  1.00  0.00     0.015 C 
HETATM   12  C10 UNK     1      32.161  -7.696  34.757  1.00  0.00     0.052 C 
HETATM   13  C14 UNK     1      33.456  -8.077  34.671  1.00  0.00     0.018 C 
HETATM   14  C19 UNK     1      34.644  -7.204  34.976  1.00  0.00     0.069 C 
HETATM   15  H17 UNK     1      34.744  -9.618  34.200  1.00  0.00     0.165 HD
ENDROOT
BRANCH   8  16
HETATM   16  C17 UNK     1      30.251  -8.946  35.758  1.00  0.00     0.029 A 
HETATM   17  C20 UNK     1      28.834  -8.510  35.836  1.00  0.00     0.194 A 
HETATM   18  O5  UNK     1      28.275  -7.945  34.905  1.00  0.00    -0.287 OA
HETATM   19  C22 UNK     1      28.130  -8.796  37.099  1.00  0.00     0.048 A 
HETATM   20  C23 UNK     1      28.818  -9.443  38.127  1.00  0.00     0.089 A 
HETATM   21  C24 UNK     1      26.794  -8.425  37.271  1.00  0.00     0.018 A 
HETATM   22  O3  UNK     1      30.129  -9.829  38.013  1.00  0.00    -0.321 OA
HETATM   23  C25 UNK     1      28.172  -9.723  39.332  1.00  0.00     0.038 A 
HETATM   24  C21 UNK     1      30.772  -9.557  36.830  1.00  0.00     0.154 A 
HETATM   25  C27 UNK     1      26.838  -9.355  39.505  1.00  0.00     0.003 A 
HETATM   26  C26 UNK     1      26.151  -8.707  38.477  1.00  0.00     0.001 A 
ENDBRANCH   8  16
BRANCH  12  27
HETATM   27  C18 UNK     1      31.782  -6.304  35.058  1.00  0.00     0.292 C 
HETATM   28  O4  UNK     1      31.463  -5.500  34.203  1.00  0.00    -0.259 OA
BRANCH  27  29
HETATM   29  O1  UNK     1      31.857  -6.121  36.398  1.00  0.00    -0.312 OA
BRANCH  29  30
HETATM   30  C11 UNK     1      30.689  -5.598  36.996  1.00  0.00     0.132 C 
HETATM   31  C12 UNK     1      30.868  -4.132  37.354  1.00  0.00     0.032 C 
HETATM   32  C15 UNK     1      29.796  -3.875  38.406  1.00  0.00     0.002 C 
HETATM   33  C16 UNK     1      29.512  -5.232  39.058  1.00  0.00     0.002 C 
HETATM   34  C13 UNK     1      30.410  -6.238  38.347  1.00  0.00     0.032 C 
ENDBRANCH  29  30
ENDBRANCH  27  29
ENDBRANCH  12  27
TORSDOF 4
ENDMDL
MODEL 5
REMARK VINA RESULT:      -8.5      2.073      6.782
REMARK  4 active torsions:
REMARK  status: ('A' for Active; 'I' for Inactive)
REMARK    1  A    between atoms: C11_17  and  O1_1 
REMARK    2  A    between atoms: C18_24  and  O1_1 
REMARK    3  A    between atoms: C17_23  and  C6_12 
REMARK    4  A    between atoms: C10_16  and  C18_24 
ROOT
HETATM    1  O2  UNK     1      29.548  -5.762  31.686  1.00  0.00    -0.293 OA
HETATM    2  N1  UNK     1      32.243  -9.654  31.856  1.00  0.00    -0.362 N 
HETATM    3  C1  UNK     1      29.338  -8.743  29.631  1.00  0.00    -0.036 C 
HETATM    4  C2  UNK     1      30.191  -9.685  30.504  1.00  0.00     0.067 C 
HETATM    5  C3  UNK     1      28.700  -7.668  30.522  1.00  0.00     0.092 C 
HETATM    6  C4  UNK     1      30.902  -7.701  31.883  1.00  0.00     0.024 C 
HETATM    7  C5  UNK     1      31.114  -8.965  31.456  1.00  0.00     0.021 C 
HETATM    8  C6  UNK     1      31.866  -7.022  32.854  1.00  0.00     0.104 C 
HETATM    9  C7  UNK     1      29.717  -6.942  31.378  1.00  0.00     0.159 C 
HETATM   10  C8  UNK     1      30.200  -8.089  28.531  1.00  0.00     0.015 C 
HETATM   11  C9  UNK     1      28.227  -9.558  28.945  1.00  0.00     0.015 C 
HETATM   12  C10 UNK     1      33.156  -7.824  33.046  1.00  0.00     0.052 C 
HETATM   13  C14 UNK     1      33.278  -9.089  32.583  1.00  0.00     0.018 C 
HETATM   14  C19 UNK     1      34.478  -9.977  32.775  1.00  0.00     0.069 C 
HETATM   15  H17 UNK     1      32.367 -10.600  31.515  1.00  0.00     0.165 HD
ENDROOT
BRANCH   8  16
HETATM   16  C17 UNK     1      31.199  -6.783  34.185  1.00  0.00     0.029 A 
HETATM   17  C20 UNK     1      31.408  -5.477  34.859  1.00  0.00     0.194 A 
HETATM   18  O5  UNK     1      32.101  -4.595  34.368  1.00  0.00    -0.287 OA
HETATM   19  C22 UNK     1      30.733  -5.295  36.157  1.00  0.00     0.048 A 
HETATM   20  C23 UNK     1      29.955  -6.335  36.668  1.00  0.00     0.089 A 
HETATM   21  C24 UNK     1      30.867  -4.101  36.870  1.00  0.00     0.018 A 
HETATM   22  O3  UNK     1      29.788  -7.527  36.012  1.00  0.00    -0.321 OA
HETATM   23  C25 UNK     1      29.307  -6.185  37.895  1.00  0.00     0.038 A 
HETATM   24  C21 UNK     1      30.422  -7.683  34.803  1.00  0.00     0.154 A 
HETATM   25  C27 UNK     1      29.440  -4.993  38.607  1.00  0.00     0.003 A 
HETATM   26  C26 UNK     1      30.218  -3.954  38.096  1.00  0.00     0.001 A 
ENDBRANCH   8  16
BRANCH  12  27
HETATM   27  C18 UNK     1      34.275  -7.131  33.709  1.00  0.00     0.292 C 
HETATM   28  O4  UNK     1      34.884  -6.209  33.201  1.00  0.00    -0.259 OA
BRANCH  27  29
HETATM   29  O1  UNK     1      34.470  -7.700  34.923  1.00  0.00    -0.312 OA
BRANCH  29  30
HETATM   30  C11 UNK     1      33.793  -7.072  35.993  1.00  0.00     0.132 C 
HETATM   31  C12 UNK     1      34.747  -6.225  36.820  1.00  0.00     0.032 C 
HETATM   32  C15 UNK     1      34.029  -6.060  38.154  1.00  0.00     0.002 C 
HETATM   33  C16 UNK     1      33.094  -7.266  38.283  1.00  0.00     0.002 C 
HETATM   34  C13 UNK     1      33.279  -8.081  37.008  1.00  0.00     0.032 C 
ENDBRANCH  29  30
ENDBRANCH  27  29
ENDBRANCH  12  27
TORSDOF 4
ENDMDL
MODEL 6
REMARK VINA RESULT:      -8.4      2.143      5.136
REMARK  4 active torsions:
REMARK  status: ('A' for Active; 'I' for Inactive)
REMARK    1  A    between atoms: C11_17  and  O1_1 
REMARK    2  A    between atoms: C18_24  and  O1_1 
REMARK    3  A    between atoms: C17_23  and  C6_12 
REMARK    4  A    between atoms: C10_16  and  C18_24 
ROOT
HETATM    1  O2  UNK     1      27.693  -9.934  35.592  1.00  0.00    -0.293 OA
HETATM    2  N1  UNK     1      29.427  -6.359  38.169  1.00  0.00    -0.362 N 
HETATM    3  C1  UNK     1      26.246  -8.352  38.517  1.00  0.00    -0.036 C 
HETATM    4  C2  UNK     1      27.105  -7.072  38.534  1.00  0.00     0.067 C 
HETATM    5  C3  UNK     1      26.150  -8.876  37.077  1.00  0.00     0.092 C 
HETATM    6  C4  UNK     1      28.601  -8.097  36.788  1.00  0.00     0.024 C 
HETATM    7  C5  UNK     1      28.402  -7.198  37.775  1.00  0.00     0.021 C 
HETATM    8  C6  UNK     1      29.935  -8.177  36.048  1.00  0.00     0.104 C 
HETATM    9  C7  UNK     1      27.508  -9.051  36.429  1.00  0.00     0.159 C 
HETATM   10  C8  UNK     1      26.851  -9.428  39.443  1.00  0.00     0.015 C 
HETATM   11  C9  UNK     1      24.833  -8.020  39.031  1.00  0.00     0.015 C 
HETATM   12  C10 UNK     1      31.023  -7.335  36.720  1.00  0.00     0.052 C 
HETATM   13  C14 UNK     1      30.729  -6.455  37.704  1.00  0.00     0.018 C 
HETATM   14  C19 UNK     1      31.715  -5.542  38.382  1.00  0.00     0.069 C 
HETATM   15  H17 UNK     1      29.239  -5.697  38.913  1.00  0.00     0.165 HD
ENDROOT
BRANCH   8  16
HETATM   16  C17 UNK     1      29.769  -7.758  34.608  1.00  0.00     0.029 A 
HETATM   17  C20 UNK     1      30.130  -8.726  33.542  1.00  0.00     0.194 A 
HETATM   18  O5  UNK     1      30.555  -9.846  33.796  1.00  0.00    -0.287 OA
HETATM   19  C22 UNK     1      29.948  -8.267  32.153  1.00  0.00     0.048 A 
HETATM   20  C23 UNK     1      29.459  -6.981  31.922  1.00  0.00     0.089 A 
HETATM   21  C24 UNK     1      30.260  -9.104  31.079  1.00  0.00     0.018 A 
HETATM   22  O3  UNK     1      29.137  -6.117  32.938  1.00  0.00    -0.321 OA
HETATM   23  C25 UNK     1      29.280  -6.525  30.616  1.00  0.00     0.038 A 
HETATM   24  C21 UNK     1      29.311  -6.558  34.227  1.00  0.00     0.154 A 
HETATM   25  C27 UNK     1      29.589  -7.360  29.542  1.00  0.00     0.003 A 
HETATM   26  C26 UNK     1      30.079  -8.646  29.774  1.00  0.00     0.001 A 
ENDBRANCH   8  16
BRANCH  12  27
HETATM   27  C18 UNK     1      32.410  -7.571  36.282  1.00  0.00     0.292 C 
HETATM   28  O4  UNK     1      33.117  -8.444  36.748  1.00  0.00    -0.259 OA
BRANCH  27  29
HETATM   29  O1  UNK     1      32.711  -6.672  35.314  1.00  0.00    -0.312 OA
BRANCH  29  30
HETATM   30  C11 UNK     1      33.799  -7.026  34.486  1.00  0.00     0.132 C 
HETATM   31  C12 UNK     1      34.774  -5.869  34.340  1.00  0.00     0.032 C 
HETATM   32  C15 UNK     1      35.554  -6.202  33.075  1.00  0.00     0.002 C 
HETATM   33  C16 UNK     1      34.637  -7.097  32.236  1.00  0.00     0.002 C 
HETATM   34  C13 UNK     1      33.361  -7.275  33.052  1.00  0.00     0.032 C 
ENDBRANCH  29  30
ENDBRANCH  27  29
ENDBRANCH  12  27
TORSDOF 4
ENDMDL
MODEL 7
REMARK VINA RESULT:      -8.4      2.410      6.854
REMARK  4 active torsions:
REMARK  status: ('A' for Active; 'I' for Inactive)
REMARK    1  A    between atoms: C11_17  and  O1_1 
REMARK    2  A    between atoms: C18_24  and  O1_1 
REMARK    3  A    between atoms: C17_23  and  C6_12 
REMARK    4  A    between atoms: C10_16  and  C18_24 
ROOT
HETATM    1  O2  UNK     1      32.023  -5.360  33.766  1.00  0.00    -0.293 OA
HETATM    2  N1  UNK     1      32.711  -9.126  36.554  1.00  0.00    -0.362 N 
HETATM    3  C1  UNK     1      35.139  -6.620  35.127  1.00  0.00    -0.036 C 
HETATM    4  C2  UNK     1      34.659  -8.025  35.539  1.00  0.00     0.067 C 
HETATM    5  C3  UNK     1      34.281  -6.114  33.959  1.00  0.00     0.092 C 
HETATM    6  C4  UNK     1      32.287  -7.300  35.106  1.00  0.00     0.024 C 
HETATM    7  C5  UNK     1      33.164  -8.134  35.705  1.00  0.00     0.021 C 
HETATM    8  C6  UNK     1      30.780  -7.461  35.305  1.00  0.00     0.104 C 
HETATM    9  C7  UNK     1      32.797  -6.183  34.254  1.00  0.00     0.159 C 
HETATM   10  C8  UNK     1      35.055  -5.644  36.319  1.00  0.00     0.015 C 
HETATM   11  C9  UNK     1      36.609  -6.699  34.679  1.00  0.00     0.015 C 
HETATM   12  C10 UNK     1      30.444  -8.461  36.414  1.00  0.00     0.052 C 
HETATM   13  C14 UNK     1      31.392  -9.259  36.957  1.00  0.00     0.018 C 
HETATM   14  C19 UNK     1      31.150 -10.312  38.005  1.00  0.00     0.069 C 
HETATM   15  H17 UNK     1      33.399  -9.733  36.985  1.00  0.00     0.165 HD
ENDROOT
BRANCH   8  16
HETATM   16  C17 UNK     1      30.116  -7.872  34.015  1.00  0.00     0.029 A 
HETATM   17  C20 UNK     1      29.013  -7.031  33.485  1.00  0.00     0.194 A 
HETATM   18  O5  UNK     1      28.632  -6.020  34.060  1.00  0.00    -0.287 OA
HETATM   19  C22 UNK     1      28.399  -7.478  32.221  1.00  0.00     0.048 A 
HETATM   20  C23 UNK     1      28.875  -8.638  31.609  1.00  0.00     0.089 A 
HETATM   21  C24 UNK     1      27.354  -6.754  31.641  1.00  0.00     0.018 A 
HETATM   22  O3  UNK     1      29.897  -9.387  32.133  1.00  0.00    -0.321 OA
HETATM   23  C25 UNK     1      28.308  -9.080  30.413  1.00  0.00     0.038 A 
HETATM   24  C21 UNK     1      30.461  -8.958  33.311  1.00  0.00     0.154 A 
HETATM   25  C27 UNK     1      27.265  -8.359  29.832  1.00  0.00     0.003 A 
HETATM   26  C26 UNK     1      26.790  -7.199  30.445  1.00  0.00     0.001 A 
ENDBRANCH   8  16
BRANCH  12  27
HETATM   27  C18 UNK     1      29.054  -8.469  36.900  1.00  0.00     0.292 C 
HETATM   28  O4  UNK     1      28.144  -9.022  36.311  1.00  0.00    -0.259 OA
BRANCH  27  29
HETATM   29  O1  UNK     1      29.005  -7.779  38.065  1.00  0.00    -0.312 OA
BRANCH  29  30
HETATM   30  C11 UNK     1      28.958  -6.374  37.925  1.00  0.00     0.132 C 
HETATM   31  C12 UNK     1      30.138  -5.716  38.623  1.00  0.00     0.032 C 
HETATM   32  C15 UNK     1      29.687  -4.276  38.831  1.00  0.00     0.002 C 
HETATM   33  C16 UNK     1      28.156  -4.314  38.866  1.00  0.00     0.002 C 
HETATM   34  C13 UNK     1      27.765  -5.771  38.651  1.00  0.00     0.032 C 
ENDBRANCH  29  30
ENDBRANCH  27  29
ENDBRANCH  12  27
TORSDOF 4
ENDMDL
MODEL 8
REMARK VINA RESULT:      -8.4      2.058      5.342
REMARK  4 active torsions:
REMARK  status: ('A' for Active; 'I' for Inactive)
REMARK    1  A    between atoms: C11_17  and  O1_1 
REMARK    2  A    between atoms: C18_24  and  O1_1 
REMARK    3  A    between atoms: C17_23  and  C6_12 
REMARK    4  A    between atoms: C10_16  and  C18_24 
ROOT
HETATM    1  O2  UNK     1      28.661 -10.166  35.307  1.00  0.00    -0.293 OA
HETATM    2  N1  UNK     1      30.062  -5.656  35.664  1.00  0.00    -0.362 N 
HETATM    3  C1  UNK     1      27.693  -7.692  37.776  1.00  0.00    -0.036 C 
HETATM    4  C2  UNK     1      28.176  -6.429  37.036  1.00  0.00     0.067 C 
HETATM    5  C3  UNK     1      27.353  -8.780  36.747  1.00  0.00     0.092 C 
HETATM    6  C4  UNK     1      29.363  -7.901  35.374  1.00  0.00     0.024 C 
HETATM    7  C5  UNK     1      29.214  -6.702  35.976  1.00  0.00     0.021 C 
HETATM    8  C6  UNK     1      30.428  -8.120  34.301  1.00  0.00     0.104 C 
HETATM    9  C7  UNK     1      28.489  -9.043  35.780  1.00  0.00     0.159 C 
HETATM   10  C8  UNK     1      28.772  -8.196  38.757  1.00  0.00     0.015 C 
HETATM   11  C9  UNK     1      26.431  -7.351  38.588  1.00  0.00     0.015 C 
HETATM   12  C10 UNK     1      31.408  -6.947  34.207  1.00  0.00     0.052 C 
HETATM   13  C14 UNK     1      31.175  -5.779  34.848  1.00  0.00     0.018 C 
HETATM   14  C19 UNK     1      32.044  -4.553  34.769  1.00  0.00     0.069 C 
HETATM   15  H17 UNK     1      29.919  -4.771  36.137  1.00  0.00     0.165 HD
ENDROOT
BRANCH   8  16
HETATM   16  C17 UNK     1      29.786  -8.370  32.959  1.00  0.00     0.029 A 
HETATM   17  C20 UNK     1      30.290  -9.493  32.129  1.00  0.00     0.194 A 
HETATM   18  O5  UNK     1      31.204 -10.218  32.501  1.00  0.00    -0.287 OA
HETATM   19  C22 UNK     1      29.628  -9.693  30.827  1.00  0.00     0.048 A 
HETATM   20  C23 UNK     1      28.591  -8.837  30.456  1.00  0.00     0.089 A 
HETATM   21  C24 UNK     1      30.029 -10.724  29.974  1.00  0.00     0.018 A 
HETATM   22  O3  UNK     1      28.156  -7.809  31.253  1.00  0.00    -0.321 OA
HETATM   23  C25 UNK     1      27.950  -9.007  29.228  1.00  0.00     0.038 A 
HETATM   24  C21 UNK     1      28.781  -7.635  32.464  1.00  0.00     0.154 A 
HETATM   25  C27 UNK     1      28.349 -10.036  28.375  1.00  0.00     0.003 A 
HETATM   26  C26 UNK     1      29.387 -10.892  28.747  1.00  0.00     0.001 A 
ENDBRANCH   8  16
BRANCH  12  27
HETATM   27  C18 UNK     1      32.642  -7.174  33.435  1.00  0.00     0.292 C 
HETATM   28  O4  UNK     1      32.731  -6.961  32.241  1.00  0.00    -0.259 OA
BRANCH  27  29
HETATM   29  O1  UNK     1      33.594  -7.640  34.280  1.00  0.00    -0.312 OA
BRANCH  29  30
HETATM   30  C11 UNK     1      34.923  -7.474  33.831  1.00  0.00     0.132 C 
HETATM   31  C12 UNK     1      35.555  -8.814  33.489  1.00  0.00     0.032 C 
HETATM   32  C15 UNK     1      37.053  -8.537  33.536  1.00  0.00     0.002 C 
HETATM   33  C16 UNK     1      37.233  -7.345  34.481  1.00  0.00     0.002 C 
HETATM   34  C13 UNK     1      35.831  -6.951  34.933  1.00  0.00     0.032 C 
ENDBRANCH  29  30
ENDBRANCH  27  29
ENDBRANCH  12  27
TORSDOF 4
ENDMDL
MODEL 9
REMARK VINA RESULT:      -8.4      2.218      4.723
REMARK  4 active torsions:
REMARK  status: ('A' for Active; 'I' for Inactive)
REMARK    1  A    between atoms: C11_17  and  O1_1 
REMARK    2  A    between atoms: C18_24  and  O1_1 
REMARK    3  A    between atoms: C17_23  and  C6_12 
REMARK    4  A    between atoms: C10_16  and  C18_24 
ROOT
HETATM    1  O2  UNK     1      28.380 -10.204  35.388  1.00  0.00    -0.293 OA
HETATM    2  N1  UNK     1      29.984  -5.774  35.872  1.00  0.00    -0.362 N 
HETATM    3  C1  UNK     1      27.405  -7.705  37.829  1.00  0.00    -0.036 C 
HETATM    4  C2  UNK     1      27.990  -6.462  37.131  1.00  0.00     0.067 C 
HETATM    5  C3  UNK     1      27.067  -8.766  36.772  1.00  0.00     0.092 C 
HETATM    6  C4  UNK     1      29.190  -7.978  35.518  1.00  0.00     0.024 C 
HETATM    7  C5  UNK     1      29.069  -6.778  36.126  1.00  0.00     0.021 C 
HETATM    8  C6  UNK     1      30.300  -8.241  34.502  1.00  0.00     0.104 C 
HETATM    9  C7  UNK     1      28.239  -9.077  35.864  1.00  0.00     0.159 C 
HETATM   10  C8  UNK     1      28.402  -8.272  38.861  1.00  0.00     0.015 C 
HETATM   11  C9  UNK     1      26.120  -7.308  38.577  1.00  0.00     0.015 C 
HETATM   12  C10 UNK     1      31.341  -7.119  34.475  1.00  0.00     0.052 C 
HETATM   13  C14 UNK     1      31.133  -5.946  35.115  1.00  0.00     0.018 C 
HETATM   14  C19 UNK     1      32.065  -4.765  35.097  1.00  0.00     0.069 C 
HETATM   15  H17 UNK     1      29.860  -4.887  36.347  1.00  0.00     0.165 HD
ENDROOT
BRANCH   8  16
HETATM   16  C17 UNK     1      29.720  -8.446  33.124  1.00  0.00     0.029 A 
HETATM   17  C20 UNK     1      30.197  -9.597  32.318  1.00  0.00     0.194 A 
HETATM   18  O5  UNK     1      31.041 -10.379  32.735  1.00  0.00    -0.287 OA
HETATM   19  C22 UNK     1      29.598  -9.751  30.979  1.00  0.00     0.048 A 
HETATM   20  C23 UNK     1      28.640  -8.829  30.555  1.00  0.00     0.089 A 
HETATM   21  C24 UNK     1      29.981 -10.803  30.143  1.00  0.00     0.018 A 
HETATM   22  O3  UNK     1      28.227  -7.778  31.334  1.00  0.00    -0.321 OA
HETATM   23  C25 UNK     1      28.060  -8.955  29.292  1.00  0.00     0.038 A 
HETATM   24  C21 UNK     1      28.793  -7.647  32.578  1.00  0.00     0.154 A 
HETATM   25  C27 UNK     1      28.441 -10.005  28.457  1.00  0.00     0.003 A 
HETATM   26  C26 UNK     1      29.399 -10.926  28.881  1.00  0.00     0.001 A 
ENDBRANCH   8  16
BRANCH  12  27
HETATM   27  C18 UNK     1      32.602  -7.401  33.768  1.00  0.00     0.292 C 
HETATM   28  O4  UNK     1      33.479  -8.111  34.224  1.00  0.00    -0.259 OA
BRANCH  27  29
HETATM   29  O1  UNK     1      32.581  -6.749  32.581  1.00  0.00    -0.312 OA
BRANCH  29  30
HETATM   30  C11 UNK     1      32.848  -7.554  31.451  1.00  0.00     0.132 C 
HETATM   31  C12 UNK     1      34.259  -7.321  30.935  1.00  0.00     0.032 C 
HETATM   32  C15 UNK     1      34.213  -7.821  29.497  1.00  0.00     0.002 C 
HETATM   33  C16 UNK     1      32.751  -7.702  29.055  1.00  0.00     0.002 C 
HETATM   34  C13 UNK     1      31.989  -7.160  30.259  1.00  0.00     0.032 C 
ENDBRANCH  29  30
ENDBRANCH  27  29
ENDBRANCH  12  27
TORSDOF 4
ENDMDL
MODEL 10
REMARK VINA RESULT:      -8.3      2.074      6.022
REMARK  4 active torsions:
REMARK  status: ('A' for Active; 'I' for Inactive)
REMARK    1  A    between atoms: C11_17  and  O1_1 
REMARK    2  A    between atoms: C18_24  and  O1_1 
REMARK    3  A    between atoms: C17_23  and  C6_12 
REMARK    4  A    between atoms: C10_16  and  C18_24 
ROOT
HETATM    1  O2  UNK     1      33.057  -9.591  34.586  1.00  0.00    -0.293 OA
HETATM    2  N1  UNK     1      33.207  -7.196  30.503  1.00  0.00    -0.362 N 
HETATM    3  C1  UNK     1      35.647  -9.620  32.048  1.00  0.00    -0.036 C 
HETATM    4  C2  UNK     1      35.232  -8.348  31.283  1.00  0.00     0.067 C 
HETATM    5  C3  UNK     1      35.187  -9.503  33.508  1.00  0.00     0.092 C 
HETATM    6  C4  UNK     1      33.083  -8.305  32.593  1.00  0.00     0.024 C 
HETATM    7  C5  UNK     1      33.797  -7.942  31.505  1.00  0.00     0.021 C 
HETATM    8  C6  UNK     1      31.632  -7.860  32.771  1.00  0.00     0.104 C 
HETATM    9  C7  UNK     1      33.712  -9.178  33.630  1.00  0.00     0.159 C 
HETATM   10  C8  UNK     1      35.039 -10.875  31.390  1.00  0.00     0.015 C 
HETATM   11  C9  UNK     1      37.180  -9.756  32.010  1.00  0.00     0.015 C 
HETATM   12  C10 UNK     1      31.062  -7.218  31.503  1.00  0.00     0.052 C 
HETATM   13  C14 UNK     1      31.857  -6.887  30.460  1.00  0.00     0.018 C 
HETATM   14  C19 UNK     1      31.402  -6.199  29.201  1.00  0.00     0.069 C 
HETATM   15  H17 UNK     1      33.775  -6.943  29.703  1.00  0.00     0.165 HD
ENDROOT
BRANCH   8  16
HETATM   16  C17 UNK     1      31.507  -6.911  33.936  1.00  0.00     0.029 A 
HETATM   17  C20 UNK     1      30.528  -7.226  35.006  1.00  0.00     0.194 A 
HETATM   18  O5  UNK     1      29.825  -8.228  34.970  1.00  0.00    -0.287 OA
HETATM   19  C22 UNK     1      30.446  -6.266  36.122  1.00  0.00     0.048 A 
HETATM   20  C23 UNK     1      31.272  -5.142  36.111  1.00  0.00     0.089 A 
HETATM   21  C24 UNK     1      29.555  -6.474  37.178  1.00  0.00     0.018 A 
HETATM   22  O3  UNK     1      32.165  -4.888  35.101  1.00  0.00    -0.321 OA
HETATM   23  C25 UNK     1      31.212  -4.219  37.156  1.00  0.00     0.038 A 
HETATM   24  C21 UNK     1      32.231  -5.791  34.068  1.00  0.00     0.154 A 
HETATM   25  C27 UNK     1      30.323  -4.426  38.211  1.00  0.00     0.003 A 
HETATM   26  C26 UNK     1      29.497  -5.550  38.222  1.00  0.00     0.001 A 
ENDBRANCH   8  16
BRANCH  12  27
HETATM   27  C18 UNK     1      29.602  -7.032  31.453  1.00  0.00     0.292 C 
HETATM   28  O4  UNK     1      29.063  -5.945  31.545  1.00  0.00    -0.259 OA
BRANCH  27  29
HETATM   29  O1  UNK     1      29.022  -8.246  31.293  1.00  0.00    -0.312 OA
BRANCH  29  30
HETATM   30  C11 UNK     1      29.214  -8.838  30.025  1.00  0.00     0.132 C 
HETATM   31  C12 UNK     1      27.883  -9.121  29.347  1.00  0.00     0.032 C 
HETATM   32  C15 UNK     1      28.220 -10.177  28.302  1.00  0.00     0.002 C 
HETATM   33  C16 UNK     1      29.468 -10.899  28.817  1.00  0.00     0.002 C 
HETATM   34  C13 UNK     1      29.833 -10.223  30.134  1.00  0.00     0.032 C 
ENDBRANCH  29  30
ENDBRANCH  27  29
ENDBRANCH  12  27
TORSDOF 4
ENDMDL
