MODEL 1
REMARK VINA RESULT:      -8.8      0.000      0.000
REMARK  4 active torsions:
REMARK  status: ('A' for Active; 'I' for Inactive)
REMARK    1  A    between atoms: C6_14  and  O2_4 
REMARK    2  A    between atoms: C13_21  and  O3_5 
REMARK    3  A    between atoms: C3_11  and  N1_8 
REMARK       I    between atoms: C7_15  and  N1_8 
REMARK    4  A    between atoms: C2_10  and  C7_15 
ROOT
HETATM    1  O4  UNK     1      17.556   3.317  32.852  1.00  0.00    -0.267 OA
HETATM    2  N1  UNK     1      18.680   4.805  31.413  1.00  0.00    -0.320 N 
HETATM    3  C7  UNK     1      18.244   3.567  31.864  1.00  0.00     0.262 C 
HETATM    4  H2  UNK     1      19.268   4.839  30.584  1.00  0.00     0.169 HD
ENDROOT
BRANCH   3   5
HETATM    5  C2  UNK     1      18.701   2.471  31.000  1.00  0.00     0.108 A 
HETATM    6  C10 UNK     1      18.680   2.573  29.524  1.00  0.00     0.304 A 
HETATM    7  O1  UNK     1      19.139   1.467  28.813  1.00  0.00    -0.274 OA
HETATM    8  O5  UNK     1      18.278   3.579  28.950  1.00  0.00    -0.259 OA
HETATM    9  C4  UNK     1      19.601   0.306  29.463  1.00  0.00     0.089 A 
HETATM   10  C1  UNK     1      19.614   0.231  30.852  1.00  0.00     0.000 A 
HETATM   11  C12 UNK     1      20.043  -0.749  28.667  1.00  0.00     0.039 A 
HETATM   12  C5  UNK     1      19.140   1.370  31.623  1.00  0.00     0.037 A 
HETATM   13  C8  UNK     1      20.082  -0.937  31.460  1.00  0.00     0.033 A 
HETATM   14  C15 UNK     1      20.526  -2.004  30.674  1.00  0.00     0.011 A 
HETATM   15 Br1  UNK     1      21.156  -3.584  31.501  1.00  0.00    -0.051 Br
HETATM   16  C16 UNK     1      20.507  -1.910  29.281  1.00  0.00     0.022 A 
ENDBRANCH   3   5
BRANCH   2  17
HETATM   17  C3  UNK     1      18.428   6.072  31.994  1.00  0.00     0.070 A 
HETATM   18  C6  UNK     1      19.352   6.629  32.863  1.00  0.00     0.097 A 
HETATM   19  C11 UNK     1      19.091   7.878  33.428  1.00  0.00     0.077 A 
HETATM   20  C13 UNK     1      17.910   8.551  33.115  1.00  0.00     0.092 A 
HETATM   21  C14 UNK     1      16.990   7.976  32.238  1.00  0.00     0.069 A 
HETATM   22 Cl1  UNK     1      15.522   8.788  31.835  1.00  0.00    -0.081 Cl
HETATM   23  C9  UNK     1      17.251   6.728  31.674  1.00  0.00     0.059 A 
BRANCH  18  24
HETATM   24  O2  UNK     1      20.512   5.988  33.181  1.00  0.00    -0.354 OA
HETATM   25  C17 UNK     1      21.670   6.331  32.425  1.00  0.00     0.210 C 
ENDBRANCH  18  24
BRANCH  20  26
HETATM   26  O3  UNK     1      17.680   9.770  33.683  1.00  0.00    -0.354 OA
HETATM   27  C18 UNK     1      18.823  10.565  33.992  1.00  0.00     0.210 C 
ENDBRANCH  20  26
ENDBRANCH   2  17
TORSDOF 4
ENDMDL
MODEL 2
REMARK VINA RESULT:      -8.4      8.032     11.850
REMARK  4 active torsions:
REMARK  status: ('A' for Active; 'I' for Inactive)
REMARK    1  A    between atoms: C6_14  and  O2_4 
REMARK    2  A    between atoms: C13_21  and  O3_5 
REMARK    3  A    between atoms: C3_11  and  N1_8 
REMARK       I    between atoms: C7_15  and  N1_8 
REMARK    4  A    between atoms: C2_10  and  C7_15 
ROOT
HETATM    1  O4  UNK     1      20.563  -3.125  37.445  1.00  0.00    -0.267 OA
HETATM    2  N1  UNK     1      19.516  -4.709  36.052  1.00  0.00    -0.320 N 
HETATM    3  C7  UNK     1      19.951  -3.446  36.428  1.00  0.00     0.262 C 
HETATM    4  H2  UNK     1      18.997  -4.805  35.183  1.00  0.00     0.169 HD
ENDROOT
BRANCH   3   5
HETATM    5  C2  UNK     1      19.598  -2.422  35.438  1.00  0.00     0.108 A 
HETATM    6  C10 UNK     1      18.735  -1.267  35.775  1.00  0.00     0.304 A 
HETATM    7  O1  UNK     1      18.471  -0.363  34.749  1.00  0.00    -0.274 OA
HETATM    8  O5  UNK     1      18.272  -1.111  36.900  1.00  0.00    -0.259 OA
HETATM    9  C4  UNK     1      18.997  -0.535  33.454  1.00  0.00     0.089 A 
HETATM   10  C1  UNK     1      19.806  -1.626  33.158  1.00  0.00     0.000 A 
HETATM   11  C12 UNK     1      18.678   0.424  32.494  1.00  0.00     0.039 A 
HETATM   12  C5  UNK     1      20.100  -2.590  34.208  1.00  0.00     0.037 A 
HETATM   13  C8  UNK     1      20.309  -1.761  31.862  1.00  0.00     0.033 A 
HETATM   14  C15 UNK     1      19.997  -0.808  30.888  1.00  0.00     0.011 A 
HETATM   15 Br1  UNK     1      20.680  -0.996  29.135  1.00  0.00    -0.051 Br
HETATM   16  C16 UNK     1      19.184   0.282  31.204  1.00  0.00     0.022 A 
ENDBRANCH   3   5
BRANCH   2  17
HETATM   17  C3  UNK     1      19.682  -5.925  36.760  1.00  0.00     0.070 A 
HETATM   18  C6  UNK     1      18.571  -6.668  37.128  1.00  0.00     0.097 A 
HETATM   19  C11 UNK     1      18.749  -7.863  37.824  1.00  0.00     0.077 A 
HETATM   20  C13 UNK     1      20.035  -8.299  38.143  1.00  0.00     0.092 A 
HETATM   21  C14 UNK     1      21.143  -7.540  37.766  1.00  0.00     0.069 A 
HETATM   22 Cl1  UNK     1      22.745  -8.056  38.148  1.00  0.00    -0.081 Cl
HETATM   23  C9  UNK     1      20.965  -6.345  37.069  1.00  0.00     0.059 A 
BRANCH  18  24
HETATM   24  O2  UNK     1      17.306  -6.259  36.825  1.00  0.00    -0.354 OA
HETATM   25  C17 UNK     1      16.653  -6.921  35.746  1.00  0.00     0.210 C 
ENDBRANCH  18  24
BRANCH  20  26
HETATM   26  O3  UNK     1      20.180  -9.470  38.826  1.00  0.00    -0.354 OA
HETATM   27  C18 UNK     1      19.496 -10.610  38.308  1.00  0.00     0.210 C 
ENDBRANCH  20  26
ENDBRANCH   2  17
TORSDOF 4
ENDMDL
MODEL 3
REMARK VINA RESULT:      -8.4      3.008      3.953
REMARK  4 active torsions:
REMARK  status: ('A' for Active; 'I' for Inactive)
REMARK    1  A    between atoms: C6_14  and  O2_4 
REMARK    2  A    between atoms: C13_21  and  O3_5 
REMARK    3  A    between atoms: C3_11  and  N1_8 
REMARK       I    between atoms: C7_15  and  N1_8 
REMARK    4  A    between atoms: C2_10  and  C7_15 
ROOT
HETATM    1  O4  UNK     1      18.356   5.203  31.262  1.00  0.00    -0.267 OA
HETATM    2  N1  UNK     1      18.254   5.530  33.592  1.00  0.00    -0.320 N 
HETATM    3  C7  UNK     1      18.321   4.790  32.420  1.00  0.00     0.262 C 
HETATM    4  H2  UNK     1      18.207   5.031  34.478  1.00  0.00     0.169 HD
ENDROOT
BRANCH   3   5
HETATM    5  C2  UNK     1      18.352   3.345  32.678  1.00  0.00     0.108 A 
HETATM    6  C10 UNK     1      18.525   2.356  31.590  1.00  0.00     0.304 A 
HETATM    7  O1  UNK     1      18.538   1.014  31.961  1.00  0.00    -0.274 OA
HETATM    8  O5  UNK     1      18.651   2.697  30.419  1.00  0.00    -0.259 OA
HETATM    9  C4  UNK     1      18.393   0.613  33.303  1.00  0.00     0.089 A 
HETATM   10  C1  UNK     1      18.233   1.558  34.310  1.00  0.00     0.000 A 
HETATM   11  C12 UNK     1      18.420  -0.754  33.576  1.00  0.00     0.039 A 
HETATM   12  C5  UNK     1      18.215   2.969  33.956  1.00  0.00     0.037 A 
HETATM   13  C8  UNK     1      18.093   1.120  35.630  1.00  0.00     0.033 A 
HETATM   14  C15 UNK     1      18.117  -0.247  35.919  1.00  0.00     0.011 A 
HETATM   15 Br1  UNK     1      17.927  -0.835  37.706  1.00  0.00    -0.051 Br
HETATM   16  C16 UNK     1      18.280  -1.182  34.894  1.00  0.00     0.022 A 
ENDBRANCH   3   5
BRANCH   2  17
HETATM   17  C3  UNK     1      18.210   6.939  33.722  1.00  0.00     0.070 A 
HETATM   18  C6  UNK     1      17.013   7.614  33.535  1.00  0.00     0.097 A 
HETATM   19  C11 UNK     1      16.985   9.001  33.666  1.00  0.00     0.077 A 
HETATM   20  C13 UNK     1      18.153   9.696  33.982  1.00  0.00     0.092 A 
HETATM   21  C14 UNK     1      19.349   9.003  34.167  1.00  0.00     0.069 A 
HETATM   22 Cl1  UNK     1      20.808   9.838  34.558  1.00  0.00    -0.081 Cl
HETATM   23  C9  UNK     1      19.377   7.615  34.036  1.00  0.00     0.059 A 
BRANCH  18  24
HETATM   24  O2  UNK     1      15.862   6.953  33.226  1.00  0.00    -0.354 OA
HETATM   25  C17 UNK     1      15.294   7.209  31.944  1.00  0.00     0.210 C 
ENDBRANCH  18  24
BRANCH  20  26
HETATM   26  O3  UNK     1      18.096  11.054  34.103  1.00  0.00    -0.354 OA
HETATM   27  C18 UNK     1      16.811  11.630  34.324  1.00  0.00     0.210 C 
ENDBRANCH  20  26
ENDBRANCH   2  17
TORSDOF 4
ENDMDL
MODEL 4
REMARK VINA RESULT:      -8.3      8.156     10.471
REMARK  4 active torsions:
REMARK  status: ('A' for Active; 'I' for Inactive)
REMARK    1  A    between atoms: C6_14  and  O2_4 
REMARK    2  A    between atoms: C13_21  and  O3_5 
REMARK    3  A    between atoms: C3_11  and  N1_8 
REMARK       I    between atoms: C7_15  and  N1_8 
REMARK    4  A    between atoms: C2_10  and  C7_15 
ROOT
HETATM    1  O4  UNK     1      20.981  -4.363  37.899  1.00  0.00    -0.267 OA
HETATM    2  N1  UNK     1      19.312  -4.248  36.242  1.00  0.00    -0.320 N 
HETATM    3  C7  UNK     1      20.181  -4.879  37.122  1.00  0.00     0.262 C 
HETATM    4  H2  UNK     1      18.726  -4.824  35.643  1.00  0.00     0.169 HD
ENDROOT
BRANCH   3   5
HETATM    5  C2  UNK     1      20.068  -6.341  37.057  1.00  0.00     0.108 A 
HETATM    6  C10 UNK     1      18.788  -7.043  37.302  1.00  0.00     0.304 A 
HETATM    7  O1  UNK     1      18.809  -8.432  37.213  1.00  0.00    -0.274 OA
HETATM    8  O5  UNK     1      17.758  -6.435  37.572  1.00  0.00    -0.259 OA
HETATM    9  C4  UNK     1      19.988  -9.139  36.905  1.00  0.00     0.089 A 
HETATM   10  C1  UNK     1      21.180  -8.461  36.678  1.00  0.00     0.000 A 
HETATM   11  C12 UNK     1      19.909 -10.529  36.837  1.00  0.00     0.039 A 
HETATM   12  C5  UNK     1      21.192  -7.008  36.764  1.00  0.00     0.037 A 
HETATM   13  C8  UNK     1      22.328  -9.198  36.374  1.00  0.00     0.033 A 
HETATM   14  C15 UNK     1      22.264 -10.592  36.303  1.00  0.00     0.011 A 
HETATM   15 Br1  UNK     1      23.821 -11.585  35.893  1.00  0.00    -0.051 Br
HETATM   16  C16 UNK     1      21.058 -11.256  36.533  1.00  0.00     0.022 A 
ENDBRANCH   3   5
BRANCH   2  17
HETATM   17  C3  UNK     1      19.150  -2.856  36.039  1.00  0.00     0.070 A 
HETATM   18  C6  UNK     1      19.785  -2.234  34.975  1.00  0.00     0.097 A 
HETATM   19  C11 UNK     1      19.616  -0.862  34.787  1.00  0.00     0.077 A 
HETATM   20  C13 UNK     1      18.815  -0.132  35.665  1.00  0.00     0.092 A 
HETATM   21  C14 UNK     1      18.183  -0.773  36.731  1.00  0.00     0.069 A 
HETATM   22 Cl1  UNK     1      17.187   0.108  37.831  1.00  0.00    -0.081 Cl
HETATM   23  C9  UNK     1      18.352  -2.144  36.918  1.00  0.00     0.059 A 
BRANCH  18  24
HETATM   24  O2  UNK     1      20.572  -2.930  34.107  1.00  0.00    -0.354 OA
HETATM   25  C17 UNK     1      20.674  -2.424  32.778  1.00  0.00     0.210 C 
ENDBRANCH  18  24
BRANCH  20  26
HETATM   26  O3  UNK     1      18.669   1.208  35.459  1.00  0.00    -0.354 OA
HETATM   27  C18 UNK     1      18.112   1.613  34.209  1.00  0.00     0.210 C 
ENDBRANCH  20  26
ENDBRANCH   2  17
TORSDOF 4
ENDMDL
MODEL 5
REMARK VINA RESULT:      -8.3      1.612      2.321
REMARK  4 active torsions:
REMARK  status: ('A' for Active; 'I' for Inactive)
REMARK    1  A    between atoms: C6_14  and  O2_4 
REMARK    2  A    between atoms: C13_21  and  O3_5 
REMARK    3  A    between atoms: C3_11  and  N1_8 
REMARK       I    between atoms: C7_15  and  N1_8 
REMARK    4  A    between atoms: C2_10  and  C7_15 
ROOT
HETATM    1  O4  UNK     1      17.536   3.807  33.082  1.00  0.00    -0.267 OA
HETATM    2  N1  UNK     1      18.607   5.340  31.651  1.00  0.00    -0.320 N 
HETATM    3  C7  UNK     1      18.181   4.089  32.074  1.00  0.00     0.262 C 
HETATM    4  H2  UNK     1      19.158   5.402  30.798  1.00  0.00     0.169 HD
ENDROOT
BRANCH   3   5
HETATM    5  C2  UNK     1      18.590   3.024  31.149  1.00  0.00     0.108 A 
HETATM    6  C10 UNK     1      18.561   3.204  29.681  1.00  0.00     0.304 A 
HETATM    7  O1  UNK     1      18.971   2.121  28.909  1.00  0.00    -0.274 OA
HETATM    8  O5  UNK     1      18.193   4.254  29.164  1.00  0.00    -0.259 OA
HETATM    9  C4  UNK     1      19.394   0.911  29.492  1.00  0.00     0.089 A 
HETATM   10  C1  UNK     1      19.415   0.762  30.875  1.00  0.00     0.000 A 
HETATM   11  C12 UNK     1      19.789  -0.117  28.637  1.00  0.00     0.039 A 
HETATM   12  C5  UNK     1      18.991   1.876  31.710  1.00  0.00     0.037 A 
HETATM   13  C8  UNK     1      19.842  -0.454  31.416  1.00  0.00     0.033 A 
HETATM   14  C15 UNK     1      20.239  -1.493  30.571  1.00  0.00     0.011 A 
HETATM   15 Br1  UNK     1      20.815  -3.137  31.309  1.00  0.00    -0.051 Br
HETATM   16  C16 UNK     1      20.213  -1.326  29.185  1.00  0.00     0.022 A 
ENDBRANCH   3   5
BRANCH   2  17
HETATM   17  C3  UNK     1      18.394   6.586  32.290  1.00  0.00     0.070 A 
HETATM   18  C6  UNK     1      17.159   7.208  32.195  1.00  0.00     0.097 A 
HETATM   19  C11 UNK     1      16.962   8.435  32.829  1.00  0.00     0.077 A 
HETATM   20  C13 UNK     1      18.003   9.022  33.549  1.00  0.00     0.092 A 
HETATM   21  C14 UNK     1      19.240   8.383  33.635  1.00  0.00     0.069 A 
HETATM   22 Cl1  UNK     1      20.544   9.088  34.518  1.00  0.00    -0.081 Cl
HETATM   23  C9  UNK     1      19.436   7.156  33.001  1.00  0.00     0.059 A 
BRANCH  18  24
HETATM   24  O2  UNK     1      16.130   6.651  31.497  1.00  0.00    -0.354 OA
HETATM   25  C17 UNK     1      14.809   7.016  31.889  1.00  0.00     0.210 C 
ENDBRANCH  18  24
BRANCH  20  26
HETATM   26  O3  UNK     1      17.784  10.222  34.158  1.00  0.00    -0.354 OA
HETATM   27  C18 UNK     1      16.439  10.696  34.188  1.00  0.00     0.210 C 
ENDBRANCH  20  26
ENDBRANCH   2  17
TORSDOF 4
ENDMDL
MODEL 6
REMARK VINA RESULT:      -8.1     13.802     16.470
REMARK  4 active torsions:
REMARK  status: ('A' for Active; 'I' for Inactive)
REMARK    1  A    between atoms: C6_14  and  O2_4 
REMARK    2  A    between atoms: C13_21  and  O3_5 
REMARK    3  A    between atoms: C3_11  and  N1_8 
REMARK       I    between atoms: C7_15  and  N1_8 
REMARK    4  A    between atoms: C2_10  and  C7_15 
ROOT
HETATM    1  O4  UNK     1      17.003  -1.918  16.862  1.00  0.00    -0.267 OA
HETATM    2  N1  UNK     1      19.079  -0.813  16.751  1.00  0.00    -0.320 N 
HETATM    3  C7  UNK     1      18.087  -1.687  16.329  1.00  0.00     0.262 C 
HETATM    4  H2  UNK     1      19.936  -0.754  16.207  1.00  0.00     0.169 HD
ENDROOT
BRANCH   3   5
HETATM    5  C2  UNK     1      18.451  -2.381  15.088  1.00  0.00     0.108 A 
HETATM    6  C10 UNK     1      19.086  -1.677  13.951  1.00  0.00     0.304 A 
HETATM    7  O1  UNK     1      19.384  -2.443  12.828  1.00  0.00    -0.274 OA
HETATM    8  O5  UNK     1      19.339  -0.477  13.992  1.00  0.00    -0.259 OA
HETATM    9  C4  UNK     1      19.096  -3.821  12.771  1.00  0.00     0.089 A 
HETATM   10  C1  UNK     1      18.500  -4.464  13.851  1.00  0.00     0.000 A 
HETATM   11  C12 UNK     1      19.433  -4.504  11.604  1.00  0.00     0.039 A 
HETATM   12  C5  UNK     1      18.176  -3.690  15.039  1.00  0.00     0.037 A 
HETATM   13  C8  UNK     1      18.232  -5.832  13.756  1.00  0.00     0.033 A 
HETATM   14  C15 UNK     1      18.562  -6.530  12.592  1.00  0.00     0.011 A 
HETATM   15 Br1  UNK     1      18.196  -8.381  12.469  1.00  0.00    -0.051 Br
HETATM   16  C16 UNK     1      19.162  -5.868  11.518  1.00  0.00     0.022 A 
ENDBRANCH   3   5
BRANCH   2  17
HETATM   17  C3  UNK     1      19.068   0.016  17.899  1.00  0.00     0.070 A 
HETATM   18  C6  UNK     1      18.888   1.384  17.761  1.00  0.00     0.097 A 
HETATM   19  C11 UNK     1      18.880   2.188  18.900  1.00  0.00     0.077 A 
HETATM   20  C13 UNK     1      19.052   1.615  20.160  1.00  0.00     0.092 A 
HETATM   21  C14 UNK     1      19.232   0.238  20.282  1.00  0.00     0.069 A 
HETATM   22 Cl1  UNK     1      19.448  -0.497  21.828  1.00  0.00    -0.081 Cl
HETATM   23  C9  UNK     1      19.241  -0.567  19.143  1.00  0.00     0.059 A 
BRANCH  18  24
HETATM   24  O2  UNK     1      18.718   1.963  16.540  1.00  0.00    -0.354 OA
HETATM   25  C17 UNK     1      19.521   3.104  16.247  1.00  0.00     0.210 C 
ENDBRANCH  18  24
BRANCH  20  26
HETATM   26  O3  UNK     1      19.040   2.426  21.257  1.00  0.00    -0.354 OA
HETATM   27  C18 UNK     1      20.253   2.524  22.002  1.00  0.00     0.210 C 
ENDBRANCH  20  26
ENDBRANCH   2  17
TORSDOF 4
ENDMDL
MODEL 7
REMARK VINA RESULT:      -8.1      8.714     12.717
REMARK  4 active torsions:
REMARK  status: ('A' for Active; 'I' for Inactive)
REMARK    1  A    between atoms: C6_14  and  O2_4 
REMARK    2  A    between atoms: C13_21  and  O3_5 
REMARK    3  A    between atoms: C3_11  and  N1_8 
REMARK       I    between atoms: C7_15  and  N1_8 
REMARK    4  A    between atoms: C2_10  and  C7_15 
ROOT
HETATM    1  O4  UNK     1      21.223  -4.341  37.057  1.00  0.00    -0.267 OA
HETATM    2  N1  UNK     1      19.556  -5.397  35.771  1.00  0.00    -0.320 N 
HETATM    3  C7  UNK     1      20.284  -4.323  36.263  1.00  0.00     0.262 C 
HETATM    4  H2  UNK     1      18.786  -5.210  35.134  1.00  0.00     0.169 HD
ENDROOT
BRANCH   3   5
HETATM    5  C2  UNK     1      19.815  -3.042  35.721  1.00  0.00     0.108 A 
HETATM    6  C10 UNK     1      20.180  -2.582  34.362  1.00  0.00     0.304 A 
HETATM    7  O1  UNK     1      19.673  -1.349  33.961  1.00  0.00    -0.274 OA
HETATM    8  O5  UNK     1      20.894  -3.251  33.623  1.00  0.00    -0.259 OA
HETATM    9  C4  UNK     1      18.853  -0.573  34.804  1.00  0.00     0.089 A 
HETATM   10  C1  UNK     1      18.521  -1.024  36.077  1.00  0.00     0.000 A 
HETATM   11  C12 UNK     1      18.393   0.647  34.314  1.00  0.00     0.039 A 
HETATM   12  C5  UNK     1      19.035  -2.309  36.526  1.00  0.00     0.037 A 
HETATM   13  C8  UNK     1      17.704  -0.226  36.883  1.00  0.00     0.033 A 
HETATM   14  C15 UNK     1      17.236   1.001  36.405  1.00  0.00     0.011 A 
HETATM   15 Br1  UNK     1      16.132   2.078  37.500  1.00  0.00    -0.051 Br
HETATM   16  C16 UNK     1      17.579   1.437  35.124  1.00  0.00     0.022 A 
ENDBRANCH   3   5
BRANCH   2  17
HETATM   17  C3  UNK     1      19.732  -6.770  36.074  1.00  0.00     0.070 A 
HETATM   18  C6  UNK     1      18.626  -7.583  36.264  1.00  0.00     0.097 A 
HETATM   19  C11 UNK     1      18.814  -8.932  36.562  1.00  0.00     0.077 A 
HETATM   20  C13 UNK     1      20.105  -9.450  36.665  1.00  0.00     0.092 A 
HETATM   21  C14 UNK     1      21.208  -8.618  36.471  1.00  0.00     0.069 A 
HETATM   22 Cl1  UNK     1      22.816  -9.233  36.593  1.00  0.00    -0.081 Cl
HETATM   23  C9  UNK     1      21.020  -7.269  36.173  1.00  0.00     0.059 A 
BRANCH  18  24
HETATM   24  O2  UNK     1      17.357  -7.096  36.168  1.00  0.00    -0.354 OA
HETATM   25  C17 UNK     1      16.597  -7.489  35.027  1.00  0.00     0.210 C 
ENDBRANCH  18  24
BRANCH  20  26
HETATM   26  O3  UNK     1      20.260 -10.773  36.958  1.00  0.00    -0.354 OA
HETATM   27  C18 UNK     1      19.675 -11.238  38.173  1.00  0.00     0.210 C 
ENDBRANCH  20  26
ENDBRANCH   2  17
TORSDOF 4
ENDMDL
MODEL 8
REMARK VINA RESULT:      -8.1     15.171     19.401
REMARK  4 active torsions:
REMARK  status: ('A' for Active; 'I' for Inactive)
REMARK    1  A    between atoms: C6_14  and  O2_4 
REMARK    2  A    between atoms: C13_21  and  O3_5 
REMARK    3  A    between atoms: C3_11  and  N1_8 
REMARK       I    between atoms: C7_15  and  N1_8 
REMARK    4  A    between atoms: C2_10  and  C7_15 
ROOT
HETATM    1  O4  UNK     1      17.859  -3.556  15.455  1.00  0.00    -0.267 OA
HETATM    2  N1  UNK     1      19.947  -3.311  14.393  1.00  0.00    -0.320 N 
HETATM    3  C7  UNK     1      18.851  -2.901  15.139  1.00  0.00     0.262 C 
HETATM    4  H2  UNK     1      20.680  -2.635  14.198  1.00  0.00     0.169 HD
ENDROOT
BRANCH   3   5
HETATM    5  C2  UNK     1      18.965  -1.501  15.568  1.00  0.00     0.108 A 
HETATM    6  C10 UNK     1      19.123  -0.393  14.599  1.00  0.00     0.304 A 
HETATM    7  O1  UNK     1      19.222   0.891  15.128  1.00  0.00    -0.274 OA
HETATM    8  O5  UNK     1      19.167  -0.592  13.390  1.00  0.00    -0.259 OA
HETATM    9  C4  UNK     1      19.175   1.128  16.515  1.00  0.00     0.089 A 
HETATM   10  C1  UNK     1      19.025   0.073  17.409  1.00  0.00     0.000 A 
HETATM   11  C12 UNK     1      19.280   2.449  16.949  1.00  0.00     0.039 A 
HETATM   12  C5  UNK     1      18.919  -1.281  16.888  1.00  0.00     0.037 A 
HETATM   13  C8  UNK     1      18.981   0.350  18.778  1.00  0.00     0.033 A 
HETATM   14  C15 UNK     1      19.087   1.669  19.228  1.00  0.00     0.011 A 
HETATM   15 Br1  UNK     1      19.028   2.038  21.082  1.00  0.00    -0.051 Br
HETATM   16  C16 UNK     1      19.236   2.716  18.316  1.00  0.00     0.022 A 
ENDBRANCH   3   5
BRANCH   2  17
HETATM   17  C3  UNK     1      20.173  -4.587  13.822  1.00  0.00     0.070 A 
HETATM   18  C6  UNK     1      20.688  -5.612  14.601  1.00  0.00     0.097 A 
HETATM   19  C11 UNK     1      20.906  -6.863  14.026  1.00  0.00     0.077 A 
HETATM   20  C13 UNK     1      20.607  -7.073  12.680  1.00  0.00     0.092 A 
HETATM   21  C14 UNK     1      20.089  -6.032  11.909  1.00  0.00     0.069 A 
HETATM   22 Cl1  UNK     1      19.710  -6.265  10.242  1.00  0.00    -0.081 Cl
HETATM   23  C9  UNK     1      19.871  -4.781  12.485  1.00  0.00     0.059 A 
BRANCH  18  24
HETATM   24  O2  UNK     1      20.987  -5.426  15.918  1.00  0.00    -0.354 OA
HETATM   25  C17 UNK     1      22.319  -5.025  16.229  1.00  0.00     0.210 C 
ENDBRANCH  18  24
BRANCH  20  26
HETATM   26  O3  UNK     1      20.831  -8.306  12.143  1.00  0.00    -0.354 OA
HETATM   27  C18 UNK     1      21.884  -9.079  12.716  1.00  0.00     0.210 C 
ENDBRANCH  20  26
ENDBRANCH   2  17
TORSDOF 4
ENDMDL
MODEL 9
REMARK VINA RESULT:      -8.0     13.898     16.737
REMARK  4 active torsions:
REMARK  status: ('A' for Active; 'I' for Inactive)
REMARK    1  A    between atoms: C6_14  and  O2_4 
REMARK    2  A    between atoms: C13_21  and  O3_5 
REMARK    3  A    between atoms: C3_11  and  N1_8 
REMARK       I    between atoms: C7_15  and  N1_8 
REMARK    4  A    between atoms: C2_10  and  C7_15 
ROOT
HETATM    1  O4  UNK     1      27.139  -8.762  39.742  1.00  0.00    -0.267 OA
HETATM    2  N1  UNK     1      27.775  -7.151  38.147  1.00  0.00    -0.320 N 
HETATM    3  C7  UNK     1      26.898  -7.823  38.987  1.00  0.00     0.262 C 
HETATM    4  H2  UNK     1      27.409  -6.404  37.562  1.00  0.00     0.169 HD
ENDROOT
BRANCH   3   5
HETATM    5  C2  UNK     1      25.533  -7.287  38.905  1.00  0.00     0.108 A 
HETATM    6  C10 UNK     1      25.259  -5.832  38.911  1.00  0.00     0.304 A 
HETATM    7  O1  UNK     1      23.924  -5.447  38.830  1.00  0.00    -0.274 OA
HETATM    8  O5  UNK     1      26.160  -5.003  38.984  1.00  0.00    -0.259 OA
HETATM    9  C4  UNK     1      22.882  -6.391  38.746  1.00  0.00     0.089 A 
HETATM   10  C1  UNK     1      23.161  -7.754  38.741  1.00  0.00     0.000 A 
HETATM   11  C12 UNK     1      21.577  -5.909  38.667  1.00  0.00     0.039 A 
HETATM   12  C5  UNK     1      24.547  -8.189  38.826  1.00  0.00     0.037 A 
HETATM   13  C8  UNK     1      22.100  -8.659  38.656  1.00  0.00     0.033 A 
HETATM   14  C15 UNK     1      20.786  -8.190  38.578  1.00  0.00     0.011 A 
HETATM   15 Br1  UNK     1      19.354  -9.420  38.463  1.00  0.00    -0.051 Br
HETATM   16  C16 UNK     1      20.525  -6.819  38.582  1.00  0.00     0.022 A 
ENDBRANCH   3   5
BRANCH   2  17
HETATM   17  C3  UNK     1      29.158  -7.396  37.970  1.00  0.00     0.070 A 
HETATM   18  C6  UNK     1      30.088  -6.476  38.430  1.00  0.00     0.097 A 
HETATM   19  C11 UNK     1      31.447  -6.731  38.248  1.00  0.00     0.077 A 
HETATM   20  C13 UNK     1      31.858  -7.901  37.609  1.00  0.00     0.092 A 
HETATM   21  C14 UNK     1      30.910  -8.816  37.152  1.00  0.00     0.069 A 
HETATM   22 Cl1  UNK     1      31.391 -10.270  36.358  1.00  0.00    -0.081 Cl
HETATM   23  C9  UNK     1      29.551  -8.562  37.333  1.00  0.00     0.059 A 
BRANCH  18  24
HETATM   24  O2  UNK     1      29.706  -5.328  39.056  1.00  0.00    -0.354 OA
HETATM   25  C17 UNK     1      29.813  -4.117  38.310  1.00  0.00     0.210 C 
ENDBRANCH  18  24
BRANCH  20  26
HETATM   26  O3  UNK     1      33.193  -8.123  37.443  1.00  0.00    -0.354 OA
HETATM   27  C18 UNK     1      34.059  -7.000  37.593  1.00  0.00     0.210 C 
ENDBRANCH  20  26
ENDBRANCH   2  17
TORSDOF 4
ENDMDL
MODEL 10
REMARK VINA RESULT:      -8.0     13.953     16.344
REMARK  4 active torsions:
REMARK  status: ('A' for Active; 'I' for Inactive)
REMARK    1  A    between atoms: C6_14  and  O2_4 
REMARK    2  A    between atoms: C13_21  and  O3_5 
REMARK    3  A    between atoms: C3_11  and  N1_8 
REMARK       I    between atoms: C7_15  and  N1_8 
REMARK    4  A    between atoms: C2_10  and  C7_15 
ROOT
HETATM    1  O4  UNK     1      26.047  -9.035  39.494  1.00  0.00    -0.267 OA
HETATM    2  N1  UNK     1      24.976  -7.760  37.829  1.00  0.00    -0.320 N 
HETATM    3  C7  UNK     1      25.994  -8.086  38.715  1.00  0.00     0.262 C 
HETATM    4  H2  UNK     1      25.076  -6.920  37.265  1.00  0.00     0.169 HD
ENDROOT
BRANCH   3   5
HETATM    5  C2  UNK     1      27.108  -7.131  38.653  1.00  0.00     0.108 A 
HETATM    6  C10 UNK     1      26.901  -5.672  38.787  1.00  0.00     0.304 A 
HETATM    7  O1  UNK     1      28.035  -4.869  38.711  1.00  0.00    -0.274 OA
HETATM    8  O5  UNK     1      25.786  -5.189  38.956  1.00  0.00    -0.259 OA
HETATM    9  C4  UNK     1      29.320  -5.415  38.517  1.00  0.00     0.089 A 
HETATM   10  C1  UNK     1      29.493  -6.789  38.394  1.00  0.00     0.000 A 
HETATM   11  C12 UNK     1      30.395  -4.531  38.456  1.00  0.00     0.039 A 
HETATM   12  C5  UNK     1      28.326  -7.655  38.469  1.00  0.00     0.037 A 
HETATM   13  C8  UNK     1      30.783  -7.292  38.203  1.00  0.00     0.033 A 
HETATM   14  C15 UNK     1      31.871  -6.418  38.138  1.00  0.00     0.011 A 
HETATM   15 Br1  UNK     1      33.614  -7.103  37.878  1.00  0.00    -0.051 Br
HETATM   16  C16 UNK     1      31.678  -5.040  38.265  1.00  0.00     0.022 A 
ENDBRANCH   3   5
BRANCH   2  17
HETATM   17  C3  UNK     1      23.759  -8.454  37.620  1.00  0.00     0.070 A 
HETATM   18  C6  UNK     1      22.617  -8.067  38.303  1.00  0.00     0.097 A 
HETATM   19  C11 UNK     1      21.426  -8.759  38.087  1.00  0.00     0.077 A 
HETATM   20  C13 UNK     1      21.393  -9.828  37.191  1.00  0.00     0.092 A 
HETATM   21  C14 UNK     1      22.551 -10.205  36.511  1.00  0.00     0.069 A 
HETATM   22 Cl1  UNK     1      22.538 -11.523  35.398  1.00  0.00    -0.081 Cl
HETATM   23  C9  UNK     1      23.743  -9.513  36.727  1.00  0.00     0.059 A 
BRANCH  18  24
HETATM   24  O2  UNK     1      22.629  -7.026  39.182  1.00  0.00    -0.354 OA
HETATM   25  C17 UNK     1      22.198  -5.759  38.691  1.00  0.00     0.210 C 
ENDBRANCH  18  24
BRANCH  20  26
HETATM   26  O3  UNK     1      20.215 -10.488  37.000  1.00  0.00    -0.354 OA
HETATM   27  C18 UNK     1      19.017  -9.762  37.268  1.00  0.00     0.210 C 
ENDBRANCH  20  26
ENDBRANCH   2  17
TORSDOF 4
ENDMDL
