MODEL 1
REMARK VINA RESULT:      -8.7      0.000      0.000
REMARK  5 active torsions:
REMARK  status: ('A' for Active; 'I' for Inactive)
REMARK    1  A    between atoms: C1_8  and  N1_5 
REMARK    2  A    between atoms: C2_9  and  N1_5 
REMARK    3  A    between atoms: C3_10  and  N1_5 
REMARK    4  A    between atoms: C10_17  and  C14_21 
REMARK    5  A    between atoms: C15_22  and  C16_23 
ROOT
HETATM    1  O1  UNK     1      19.349   8.145  33.462  1.00  0.00    -0.274 OA
HETATM    2  O3  UNK     1      20.432   6.199  32.969  1.00  0.00    -0.259 OA
HETATM    3  C1  UNK     1      17.055  10.911  34.227  1.00  0.00     0.032 A 
HETATM    4  C4  UNK     1      16.941   8.148  33.777  1.00  0.00    -0.001 A 
HETATM    5  C5  UNK     1      18.150   8.831  33.736  1.00  0.00     0.091 A 
HETATM    6  C6  UNK     1      18.226  10.205  33.957  1.00  0.00     0.067 A 
HETATM    7  C7  UNK     1      15.831  10.241  34.273  1.00  0.00     0.030 A 
HETATM    8  C8  UNK     1      15.772   8.863  34.049  1.00  0.00     0.016 A 
HETATM    9  C9  UNK     1      16.936   6.713  33.539  1.00  0.00     0.036 A 
HETATM   10  C10 UNK     1      18.076   6.057  33.278  1.00  0.00     0.095 A 
HETATM   11  C13 UNK     1      19.379   6.774  33.221  1.00  0.00     0.303 A 
ENDROOT
BRANCH  10  12
HETATM   12  C14 UNK     1      18.035   4.644  33.056  1.00  0.00     0.209 A 
HETATM   13  O2  UNK     1      18.266   3.753  34.064  1.00  0.00    -0.268 OA
HETATM   14  C15 UNK     1      18.128   2.567  33.410  1.00  0.00     0.203 A 
HETATM   15  N3  UNK     1      17.843   2.700  32.136  1.00  0.00    -0.121 NA
HETATM   16  N2  UNK     1      17.782   4.061  31.902  1.00  0.00    -0.121 NA
BRANCH  14  17
HETATM   17  C16 UNK     1      18.312   1.387  34.204  1.00  0.00     0.019 A 
HETATM   18  C17 UNK     1      18.430   0.135  33.592  1.00  0.00     0.017 A 
HETATM   19  C19 UNK     1      18.610  -1.013  34.363  1.00  0.00     0.020 A 
HETATM   20  C21 UNK     1      18.676  -0.915  35.754  1.00  0.00     0.011 A 
HETATM   21 Br1  UNK     1      18.919  -2.470  36.800  1.00  0.00    -0.051 Br
HETATM   22  C20 UNK     1      18.559   0.330  36.371  1.00  0.00     0.020 A 
HETATM   23  C18 UNK     1      18.378   1.477  35.600  1.00  0.00     0.017 A 
ENDBRANCH  14  17
ENDBRANCH  10  12
BRANCH   3  24
HETATM   24  N1  UNK     1      17.107  12.301  34.455  1.00  0.00    -0.382 N 
BRANCH  24  25
HETATM   25  C2  UNK     1      18.352  13.026  34.294  1.00  0.00     0.118 C 
HETATM   26  C11 UNK     1      18.259  13.967  33.108  1.00  0.00     0.026 C 
ENDBRANCH  24  25
BRANCH  24  27
HETATM   27  C3  UNK     1      15.919  13.022  34.866  1.00  0.00     0.118 C 
HETATM   28  C12 UNK     1      16.014  13.393  36.333  1.00  0.00     0.026 C 
ENDBRANCH  24  27
ENDBRANCH   3  24
TORSDOF 5
ENDMDL
MODEL 2
REMARK VINA RESULT:      -8.4      4.131      6.533
REMARK  5 active torsions:
REMARK  status: ('A' for Active; 'I' for Inactive)
REMARK    1  A    between atoms: C1_8  and  N1_5 
REMARK    2  A    between atoms: C2_9  and  N1_5 
REMARK    3  A    between atoms: C3_10  and  N1_5 
REMARK    4  A    between atoms: C10_17  and  C14_21 
REMARK    5  A    between atoms: C15_22  and  C16_23 
ROOT
HETATM    1  O1  UNK     1      18.103   1.269  32.579  1.00  0.00    -0.274 OA
HETATM    2  O3  UNK     1      18.023  -0.945  33.123  1.00  0.00    -0.259 OA
HETATM    3  C1  UNK     1      18.302   4.930  32.355  1.00  0.00     0.032 A 
HETATM    4  C4  UNK     1      18.482   2.930  34.309  1.00  0.00    -0.001 A 
HETATM    5  C5  UNK     1      18.253   2.611  32.976  1.00  0.00     0.091 A 
HETATM    6  C6  UNK     1      18.160   3.592  31.991  1.00  0.00     0.067 A 
HETATM    7  C7  UNK     1      18.533   5.270  33.689  1.00  0.00     0.030 A 
HETATM    8  C8  UNK     1      18.623   4.274  34.665  1.00  0.00     0.016 A 
HETATM    9  C9  UNK     1      18.570   1.856  35.284  1.00  0.00     0.036 A 
HETATM   10  C10 UNK     1      18.427   0.576  34.910  1.00  0.00     0.095 A 
HETATM   11  C13 UNK     1      18.172   0.216  33.488  1.00  0.00     0.303 A 
ENDROOT
BRANCH  10  12
HETATM   12  C14 UNK     1      18.526  -0.457  35.894  1.00  0.00     0.209 A 
HETATM   13  O2  UNK     1      19.214  -1.613  35.654  1.00  0.00    -0.268 OA
HETATM   14  C15 UNK     1      19.043  -2.276  36.831  1.00  0.00     0.203 A 
HETATM   15  N3  UNK     1      18.329  -1.611  37.709  1.00  0.00    -0.121 NA
HETATM   16  N2  UNK     1      17.989  -0.419  37.097  1.00  0.00    -0.121 NA
BRANCH  14  17
HETATM   17  C16 UNK     1      19.658  -3.568  36.919  1.00  0.00     0.019 A 
HETATM   18  C17 UNK     1      20.854  -3.734  37.625  1.00  0.00     0.017 A 
HETATM   19  C19 UNK     1      21.453  -4.990  37.712  1.00  0.00     0.020 A 
HETATM   20  C21 UNK     1      20.858  -6.090  37.094  1.00  0.00     0.011 A 
HETATM   21 Br1  UNK     1      21.669  -7.793  37.211  1.00  0.00    -0.051 Br
HETATM   22  C20 UNK     1      19.665  -5.933  36.388  1.00  0.00     0.020 A 
HETATM   23  C18 UNK     1      19.068  -4.676  36.301  1.00  0.00     0.017 A 
ENDBRANCH  14  17
ENDBRANCH  10  12
BRANCH   3  24
HETATM   24  N1  UNK     1      18.213   5.941  31.376  1.00  0.00    -0.382 N 
BRANCH  24  25
HETATM   25  C2  UNK     1      18.891   5.792  30.103  1.00  0.00     0.118 C 
HETATM   26  C11 UNK     1      20.392   5.867  30.299  1.00  0.00     0.026 C 
ENDBRANCH  24  25
BRANCH  24  27
HETATM   27  C3  UNK     1      17.453   7.147  31.634  1.00  0.00     0.118 C 
HETATM   28  C12 UNK     1      16.050   6.795  32.087  1.00  0.00     0.026 C 
ENDBRANCH  24  27
ENDBRANCH   3  24
TORSDOF 5
ENDMDL
MODEL 3
REMARK VINA RESULT:      -8.4      3.991     11.310
REMARK  5 active torsions:
REMARK  status: ('A' for Active; 'I' for Inactive)
REMARK    1  A    between atoms: C1_8  and  N1_5 
REMARK    2  A    between atoms: C2_9  and  N1_5 
REMARK    3  A    between atoms: C3_10  and  N1_5 
REMARK    4  A    between atoms: C10_17  and  C14_21 
REMARK    5  A    between atoms: C15_22  and  C16_23 
ROOT
HETATM    1  O1  UNK     1      18.059  -0.373  36.583  1.00  0.00    -0.274 OA
HETATM    2  O3  UNK     1      17.168   1.721  36.421  1.00  0.00    -0.259 OA
HETATM    3  C1  UNK     1      19.681  -3.648  36.216  1.00  0.00     0.032 A 
HETATM    4  C4  UNK     1      19.295  -1.313  34.717  1.00  0.00    -0.001 A 
HETATM    5  C5  UNK     1      18.786  -1.430  36.004  1.00  0.00     0.091 A 
HETATM    6  C6  UNK     1      18.967  -2.584  36.764  1.00  0.00     0.067 A 
HETATM    7  C7  UNK     1      20.200  -3.549  34.924  1.00  0.00     0.030 A 
HETATM    8  C8  UNK     1      20.009  -2.385  34.175  1.00  0.00     0.016 A 
HETATM    9  C9  UNK     1      19.070  -0.080  33.981  1.00  0.00     0.036 A 
HETATM   10  C10 UNK     1      18.378   0.930  34.530  1.00  0.00     0.095 A 
HETATM   11  C13 UNK     1      17.817   0.819  35.904  1.00  0.00     0.303 A 
ENDROOT
BRANCH  10  12
HETATM   12  C14 UNK     1      18.181   2.132  33.780  1.00  0.00     0.209 A 
HETATM   13  O2  UNK     1      18.490   3.358  34.298  1.00  0.00    -0.268 OA
HETATM   14  C15 UNK     1      18.148   4.178  33.266  1.00  0.00     0.203 A 
HETATM   15  N3  UNK     1      17.678   3.539  32.221  1.00  0.00    -0.121 NA
HETATM   16  N2  UNK     1      17.698   2.198  32.556  1.00  0.00    -0.121 NA
BRANCH  14  17
HETATM   17  C16 UNK     1      18.354   5.581  33.484  1.00  0.00     0.019 A 
HETATM   18  C17 UNK     1      17.262   6.432  33.681  1.00  0.00     0.017 A 
HETATM   19  C19 UNK     1      17.462   7.796  33.894  1.00  0.00     0.020 A 
HETATM   20  C21 UNK     1      18.756   8.317  33.913  1.00  0.00     0.011 A 
HETATM   21 Br1  UNK     1      19.027  10.165  34.201  1.00  0.00    -0.051 Br
HETATM   22  C20 UNK     1      19.850   7.473  33.717  1.00  0.00     0.020 A 
HETATM   23  C18 UNK     1      19.650   6.110  33.504  1.00  0.00     0.017 A 
ENDBRANCH  14  17
ENDBRANCH  10  12
BRANCH   3  24
HETATM   24  N1  UNK     1      19.878  -4.826  36.966  1.00  0.00    -0.382 N 
BRANCH  24  25
HETATM   25  C2  UNK     1      21.057  -4.979  37.796  1.00  0.00     0.118 C 
HETATM   26  C11 UNK     1      20.898  -6.176  38.714  1.00  0.00     0.026 C 
ENDBRANCH  24  25
BRANCH  24  27
HETATM   27  C3  UNK     1      18.911  -5.904  36.908  1.00  0.00     0.118 C 
HETATM   28  C12 UNK     1      19.094  -6.701  35.630  1.00  0.00     0.026 C 
ENDBRANCH  24  27
ENDBRANCH   3  24
TORSDOF 5
ENDMDL
MODEL 4
REMARK VINA RESULT:      -8.2      1.215      1.813
REMARK  5 active torsions:
REMARK  status: ('A' for Active; 'I' for Inactive)
REMARK    1  A    between atoms: C1_8  and  N1_5 
REMARK    2  A    between atoms: C2_9  and  N1_5 
REMARK    3  A    between atoms: C3_10  and  N1_5 
REMARK    4  A    between atoms: C10_17  and  C14_21 
REMARK    5  A    between atoms: C15_22  and  C16_23 
ROOT
HETATM    1  O1  UNK     1      16.390   8.199  32.965  1.00  0.00    -0.274 OA
HETATM    2  O3  UNK     1      15.486   6.196  32.351  1.00  0.00    -0.259 OA
HETATM    3  C1  UNK     1      18.376  11.065  34.119  1.00  0.00     0.032 A 
HETATM    4  C4  UNK     1      18.677   8.301  33.772  1.00  0.00    -0.001 A 
HETATM    5  C5  UNK     1      17.481   8.937  33.461  1.00  0.00     0.091 A 
HETATM    6  C6  UNK     1      17.313  10.310  33.628  1.00  0.00     0.067 A 
HETATM    7  C7  UNK     1      19.586  10.445  34.437  1.00  0.00     0.030 A 
HETATM    8  C8  UNK     1      19.738   9.066  34.265  1.00  0.00     0.016 A 
HETATM    9  C9  UNK     1      18.784   6.865  33.571  1.00  0.00     0.036 A 
HETATM   10  C10 UNK     1      17.746   6.160  33.100  1.00  0.00     0.095 A 
HETATM   11  C13 UNK     1      16.454   6.822  32.769  1.00  0.00     0.303 A 
ENDROOT
BRANCH  10  12
HETATM   12  C14 UNK     1      17.887   4.749  32.907  1.00  0.00     0.209 A 
HETATM   13  O2  UNK     1      18.037   3.893  33.961  1.00  0.00    -0.268 OA
HETATM   14  C15 UNK     1      18.132   2.695  33.322  1.00  0.00     0.203 A 
HETATM   15  N3  UNK     1      18.049   2.789  32.015  1.00  0.00    -0.121 NA
HETATM   16  N2  UNK     1      17.889   4.135  31.742  1.00  0.00    -0.121 NA
BRANCH  14  17
HETATM   17  C16 UNK     1      18.301   1.546  34.163  1.00  0.00     0.019 A 
HETATM   18  C17 UNK     1      18.300   0.261  33.611  1.00  0.00     0.017 A 
HETATM   19  C19 UNK     1      18.466  -0.857  34.429  1.00  0.00     0.020 A 
HETATM   20  C21 UNK     1      18.636  -0.695  35.804  1.00  0.00     0.011 A 
HETATM   21 Br1  UNK     1      18.861  -2.210  36.912  1.00  0.00    -0.051 Br
HETATM   22  C20 UNK     1      18.638   0.583  36.361  1.00  0.00     0.020 A 
HETATM   23  C18 UNK     1      18.471   1.700  35.544  1.00  0.00     0.017 A 
ENDBRANCH  14  17
ENDBRANCH  10  12
BRANCH   3  24
HETATM   24  N1  UNK     1      18.230  12.457  34.296  1.00  0.00    -0.382 N 
BRANCH  24  25
HETATM   25  C2  UNK     1      18.528  13.370  33.210  1.00  0.00     0.118 C 
HETATM   26  C11 UNK     1      19.028  14.691  33.761  1.00  0.00     0.026 C 
ENDBRANCH  24  25
BRANCH  24  27
HETATM   27  C3  UNK     1      17.794  12.993  35.569  1.00  0.00     0.118 C 
HETATM   28  C12 UNK     1      16.279  13.011  35.637  1.00  0.00     0.026 C 
ENDBRANCH  24  27
ENDBRANCH   3  24
TORSDOF 5
ENDMDL
MODEL 5
REMARK VINA RESULT:      -8.2      4.284     10.005
REMARK  5 active torsions:
REMARK  status: ('A' for Active; 'I' for Inactive)
REMARK    1  A    between atoms: C1_8  and  N1_5 
REMARK    2  A    between atoms: C2_9  and  N1_5 
REMARK    3  A    between atoms: C3_10  and  N1_5 
REMARK    4  A    between atoms: C10_17  and  C14_21 
REMARK    5  A    between atoms: C15_22  and  C16_23 
ROOT
HETATM    1  O1  UNK     1      17.381   5.405  33.721  1.00  0.00    -0.274 OA
HETATM    2  O3  UNK     1      16.624   6.973  35.196  1.00  0.00    -0.259 OA
HETATM    3  C1  UNK     1      18.708   3.398  30.946  1.00  0.00     0.032 A 
HETATM    4  C4  UNK     1      18.291   6.095  31.578  1.00  0.00    -0.001 A 
HETATM    5  C5  UNK     1      17.950   5.088  32.473  1.00  0.00     0.091 A 
HETATM    6  C6  UNK     1      18.149   3.742  32.175  1.00  0.00     0.067 A 
HETATM    7  C7  UNK     1      19.058   4.395  30.034  1.00  0.00     0.030 A 
HETATM    8  C8  UNK     1      18.851   5.742  30.348  1.00  0.00     0.016 A 
HETATM    9  C9  UNK     1      18.057   7.480  31.955  1.00  0.00     0.036 A 
HETATM   10  C10 UNK     1      17.515   7.785  33.143  1.00  0.00     0.095 A 
HETATM   11  C13 UNK     1      17.135   6.720  34.110  1.00  0.00     0.303 A 
ENDROOT
BRANCH  10  12
HETATM   12  C14 UNK     1      17.306   9.158  33.485  1.00  0.00     0.209 A 
HETATM   13  O2  UNK     1      16.053   9.664  33.685  1.00  0.00    -0.268 OA
HETATM   14  C15 UNK     1      16.332  10.964  33.977  1.00  0.00     0.203 A 
HETATM   15  N3  UNK     1      17.615  11.241  33.963  1.00  0.00    -0.121 NA
HETATM   16  N2  UNK     1      18.255  10.059  33.640  1.00  0.00    -0.121 NA
BRANCH  14  17
HETATM   17  C16 UNK     1      15.202  11.803  34.250  1.00  0.00     0.019 A 
HETATM   18  C17 UNK     1      14.094  11.295  34.935  1.00  0.00     0.017 A 
HETATM   19  C19 UNK     1      12.995  12.112  35.202  1.00  0.00     0.020 A 
HETATM   20  C21 UNK     1      12.998  13.443  34.785  1.00  0.00     0.011 A 
HETATM   21 Br1  UNK     1      11.509  14.549  35.144  1.00  0.00    -0.051 Br
HETATM   22  C20 UNK     1      14.099  13.957  34.100  1.00  0.00     0.020 A 
HETATM   23  C18 UNK     1      15.198  13.140  33.834  1.00  0.00     0.017 A 
ENDBRANCH  14  17
ENDBRANCH  10  12
BRANCH   3  24
HETATM   24  N1  UNK     1      18.920   2.042  30.622  1.00  0.00    -0.382 N 
BRANCH  24  25
HETATM   25  C2  UNK     1      18.986   1.039  31.667  1.00  0.00     0.118 C 
HETATM   26  C11 UNK     1      19.740  -0.181  31.174  1.00  0.00     0.026 C 
ENDBRANCH  24  25
BRANCH  24  27
HETATM   27  C3  UNK     1      19.089   1.634  29.242  1.00  0.00     0.118 C 
HETATM   28  C12 UNK     1      17.738   1.528  28.559  1.00  0.00     0.026 C 
ENDBRANCH  24  27
ENDBRANCH   3  24
TORSDOF 5
ENDMDL
MODEL 6
REMARK VINA RESULT:      -8.2      6.599     10.069
REMARK  5 active torsions:
REMARK  status: ('A' for Active; 'I' for Inactive)
REMARK    1  A    between atoms: C1_8  and  N1_5 
REMARK    2  A    between atoms: C2_9  and  N1_5 
REMARK    3  A    between atoms: C3_10  and  N1_5 
REMARK    4  A    between atoms: C10_17  and  C14_21 
REMARK    5  A    between atoms: C15_22  and  C16_23 
ROOT
HETATM    1  O1  UNK     1      18.488  -0.376  34.772  1.00  0.00    -0.274 OA
HETATM    2  O3  UNK     1      18.356  -1.214  36.890  1.00  0.00    -0.259 OA
HETATM    3  C1  UNK     1      19.144   0.490  31.263  1.00  0.00     0.032 A 
HETATM    4  C4  UNK     1      19.902  -1.463  33.124  1.00  0.00    -0.001 A 
HETATM    5  C5  UNK     1      19.019  -0.447  33.471  1.00  0.00     0.091 A 
HETATM    6  C6  UNK     1      18.632   0.533  32.559  1.00  0.00     0.067 A 
HETATM    7  C7  UNK     1      20.031  -0.523  30.896  1.00  0.00     0.030 A 
HETATM    8  C8  UNK     1      20.410  -1.498  31.823  1.00  0.00     0.016 A 
HETATM    9  C9  UNK     1      20.261  -2.454  34.125  1.00  0.00     0.036 A 
HETATM   10  C10 UNK     1      19.757  -2.390  35.366  1.00  0.00     0.095 A 
HETATM   11  C13 UNK     1      18.818  -1.304  35.758  1.00  0.00     0.303 A 
ENDROOT
BRANCH  10  12
HETATM   12  C14 UNK     1      20.126  -3.385  36.324  1.00  0.00     0.209 A 
HETATM   13  O2  UNK     1      19.819  -4.704  36.143  1.00  0.00    -0.268 OA
HETATM   14  C15 UNK     1      20.348  -5.259  37.268  1.00  0.00     0.203 A 
HETATM   15  N3  UNK     1      20.923  -4.388  38.063  1.00  0.00    -0.121 NA
HETATM   16  N2  UNK     1      20.779  -3.159  37.447  1.00  0.00    -0.121 NA
BRANCH  14  17
HETATM   17  C16 UNK     1      20.196  -6.679  37.398  1.00  0.00     0.019 A 
HETATM   18  C17 UNK     1      19.568  -7.222  38.524  1.00  0.00     0.017 A 
HETATM   19  C19 UNK     1      19.419  -8.603  38.651  1.00  0.00     0.020 A 
HETATM   20  C21 UNK     1      19.896  -9.450  37.651  1.00  0.00     0.011 A 
HETATM   21 Br1  UNK     1      19.695 -11.321  37.823  1.00  0.00    -0.051 Br
HETATM   22  C20 UNK     1      20.524  -8.917  36.526  1.00  0.00     0.020 A 
HETATM   23  C18 UNK     1      20.674  -7.536  36.400  1.00  0.00     0.017 A 
ENDBRANCH  14  17
ENDBRANCH  10  12
BRANCH   3  24
HETATM   24  N1  UNK     1      18.766   1.471  30.323  1.00  0.00    -0.382 N 
BRANCH  24  25
HETATM   25  C2  UNK     1      18.143   2.705  30.759  1.00  0.00     0.118 C 
HETATM   26  C11 UNK     1      19.030   3.887  30.418  1.00  0.00     0.026 C 
ENDBRANCH  24  25
BRANCH  24  27
HETATM   27  C3  UNK     1      18.984   1.252  28.907  1.00  0.00     0.118 C 
HETATM   28  C12 UNK     1      17.674   1.373  28.152  1.00  0.00     0.026 C 
ENDBRANCH  24  27
ENDBRANCH   3  24
TORSDOF 5
ENDMDL
MODEL 7
REMARK VINA RESULT:      -8.0     14.752     18.388
REMARK  5 active torsions:
REMARK  status: ('A' for Active; 'I' for Inactive)
REMARK    1  A    between atoms: C1_8  and  N1_5 
REMARK    2  A    between atoms: C2_9  and  N1_5 
REMARK    3  A    between atoms: C3_10  and  N1_5 
REMARK    4  A    between atoms: C10_17  and  C14_21 
REMARK    5  A    between atoms: C15_22  and  C16_23 
ROOT
HETATM    1  O1  UNK     1      24.229  -9.694  36.587  1.00  0.00    -0.274 OA
HETATM    2  O3  UNK     1      26.239 -10.684  36.158  1.00  0.00    -0.259 OA
HETATM    3  C1  UNK     1      21.308  -7.816  37.785  1.00  0.00     0.032 A 
HETATM    4  C4  UNK     1      24.025  -8.098  38.405  1.00  0.00    -0.001 A 
HETATM    5  C5  UNK     1      23.452  -8.810  37.358  1.00  0.00     0.091 A 
HETATM    6  C6  UNK     1      22.102  -8.682  37.036  1.00  0.00     0.067 A 
HETATM    7  C7  UNK     1      21.866  -7.092  38.840  1.00  0.00     0.030 A 
HETATM    8  C8  UNK     1      23.222  -7.232  39.151  1.00  0.00     0.016 A 
HETATM    9  C9  UNK     1      25.441  -8.278  38.685  1.00  0.00     0.036 A 
HETATM   10  C10 UNK     1      26.184  -9.120  37.952  1.00  0.00     0.095 A 
HETATM   11  C13 UNK     1      25.585  -9.897  36.833  1.00  0.00     0.303 A 
ENDROOT
BRANCH  10  12
HETATM   12  C14 UNK     1      27.575  -9.267  38.250  1.00  0.00     0.209 A 
HETATM   13  O2  UNK     1      28.512  -8.412  37.743  1.00  0.00    -0.268 OA
HETATM   14  C15 UNK     1      29.656  -8.921  38.276  1.00  0.00     0.203 A 
HETATM   15  N3  UNK     1      29.459  -9.977  39.032  1.00  0.00    -0.121 NA
HETATM   16  N2  UNK     1      28.096 -10.205  39.016  1.00  0.00    -0.121 NA
BRANCH  14  17
HETATM   17  C16 UNK     1      30.868  -8.236  37.932  1.00  0.00     0.019 A 
HETATM   18  C17 UNK     1      31.078  -6.919  38.353  1.00  0.00     0.017 A 
HETATM   19  C19 UNK     1      32.257  -6.252  38.020  1.00  0.00     0.020 A 
HETATM   20  C21 UNK     1      33.235  -6.901  37.265  1.00  0.00     0.011 A 
HETATM   21 Br1  UNK     1      34.833  -5.998  36.814  1.00  0.00    -0.051 Br
HETATM   22  C20 UNK     1      33.033  -8.214  36.842  1.00  0.00     0.020 A 
HETATM   23  C18 UNK     1      31.853  -8.880  37.174  1.00  0.00     0.017 A 
ENDBRANCH  14  17
ENDBRANCH  10  12
BRANCH   3  24
HETATM   24  N1  UNK     1      19.940  -7.670  37.477  1.00  0.00    -0.382 N 
BRANCH  24  25
HETATM   25  C2  UNK     1      19.118  -8.835  37.213  1.00  0.00     0.118 C 
HETATM   26  C11 UNK     1      19.045  -9.713  38.448  1.00  0.00     0.026 C 
ENDBRANCH  24  25
BRANCH  24  27
HETATM   27  C3  UNK     1      19.340  -6.353  37.406  1.00  0.00     0.118 C 
HETATM   28  C12 UNK     1      18.016  -6.421  36.668  1.00  0.00     0.026 C 
ENDBRANCH  24  27
ENDBRANCH   3  24
TORSDOF 5
ENDMDL
MODEL 8
REMARK VINA RESULT:      -8.0      6.065      9.411
REMARK  5 active torsions:
REMARK  status: ('A' for Active; 'I' for Inactive)
REMARK    1  A    between atoms: C1_8  and  N1_5 
REMARK    2  A    between atoms: C2_9  and  N1_5 
REMARK    3  A    between atoms: C3_10  and  N1_5 
REMARK    4  A    between atoms: C10_17  and  C14_21 
REMARK    5  A    between atoms: C15_22  and  C16_23 
ROOT
HETATM    1  O1  UNK     1      20.258  -1.641  32.382  1.00  0.00    -0.274 OA
HETATM    2  O3  UNK     1      21.079  -3.626  33.151  1.00  0.00    -0.259 OA
HETATM    3  C1  UNK     1      18.661   1.604  31.743  1.00  0.00     0.032 A 
HETATM    4  C4  UNK     1      18.962  -0.211  33.855  1.00  0.00    -0.001 A 
HETATM    5  C5  UNK     1      19.524  -0.462  32.609  1.00  0.00     0.091 A 
HETATM    6  C6  UNK     1      19.384   0.429  31.547  1.00  0.00     0.067 A 
HETATM    7  C7  UNK     1      18.089   1.874  32.988  1.00  0.00     0.030 A 
HETATM    8  C8  UNK     1      18.238   0.969  34.043  1.00  0.00     0.016 A 
HETATM    9  C9  UNK     1      19.150  -1.184  34.920  1.00  0.00     0.036 A 
HETATM   10  C10 UNK     1      19.848  -2.308  34.706  1.00  0.00     0.095 A 
HETATM   11  C13 UNK     1      20.450  -2.598  33.376  1.00  0.00     0.303 A 
ENDROOT
BRANCH  10  12
HETATM   12  C14 UNK     1      20.020  -3.240  35.778  1.00  0.00     0.209 A 
HETATM   13  O2  UNK     1      19.887  -4.586  35.586  1.00  0.00    -0.268 OA
HETATM   14  C15 UNK     1      20.128  -5.061  36.839  1.00  0.00     0.203 A 
HETATM   15  N3  UNK     1      20.385  -4.119  37.717  1.00  0.00    -0.121 NA
HETATM   16  N2  UNK     1      20.314  -2.925  37.023  1.00  0.00    -0.121 NA
BRANCH  14  17
HETATM   17  C16 UNK     1      20.066  -6.485  36.994  1.00  0.00     0.019 A 
HETATM   18  C17 UNK     1      20.533  -7.327  35.980  1.00  0.00     0.017 A 
HETATM   19  C19 UNK     1      20.474  -8.712  36.131  1.00  0.00     0.020 A 
HETATM   20  C21 UNK     1      19.948  -9.264  37.299  1.00  0.00     0.011 A 
HETATM   21 Br1  UNK     1      19.867 -11.141  37.504  1.00  0.00    -0.051 Br
HETATM   22  C20 UNK     1      19.480  -8.431  38.315  1.00  0.00     0.020 A 
HETATM   23  C18 UNK     1      19.539  -7.046  38.163  1.00  0.00     0.017 A 
ENDBRANCH  14  17
ENDBRANCH  10  12
BRANCH   3  24
HETATM   24  N1  UNK     1      18.506   2.521  30.683  1.00  0.00    -0.382 N 
BRANCH  24  25
HETATM   25  C2  UNK     1      18.908   2.163  29.337  1.00  0.00     0.118 C 
HETATM   26  C11 UNK     1      17.702   1.713  28.535  1.00  0.00     0.026 C 
ENDBRANCH  24  25
BRANCH  24  27
HETATM   27  C3  UNK     1      17.955   3.839  30.928  1.00  0.00     0.118 C 
HETATM   28  C12 UNK     1      19.064   4.873  30.950  1.00  0.00     0.026 C 
ENDBRANCH  24  27
ENDBRANCH   3  24
TORSDOF 5
ENDMDL
MODEL 9
REMARK VINA RESULT:      -8.0      3.951     10.912
REMARK  5 active torsions:
REMARK  status: ('A' for Active; 'I' for Inactive)
REMARK    1  A    between atoms: C1_8  and  N1_5 
REMARK    2  A    between atoms: C2_9  and  N1_5 
REMARK    3  A    between atoms: C3_10  and  N1_5 
REMARK    4  A    between atoms: C10_17  and  C14_21 
REMARK    5  A    between atoms: C15_22  and  C16_23 
ROOT
HETATM    1  O1  UNK     1      19.541  -1.161  32.993  1.00  0.00    -0.274 OA
HETATM    2  O3  UNK     1      19.437   0.274  31.222  1.00  0.00    -0.259 OA
HETATM    3  C1  UNK     1      19.463  -2.963  36.193  1.00  0.00     0.032 A 
HETATM    4  C4  UNK     1      18.723  -0.461  35.170  1.00  0.00    -0.001 A 
HETATM    5  C5  UNK     1      19.306  -1.425  34.356  1.00  0.00     0.091 A 
HETATM    6  C6  UNK     1      19.681  -2.674  34.848  1.00  0.00     0.067 A 
HETATM    7  C7  UNK     1      18.878  -2.007  37.027  1.00  0.00     0.030 A 
HETATM    8  C8  UNK     1      18.508  -0.759  36.518  1.00  0.00     0.016 A 
HETATM    9  C9  UNK     1      18.355   0.820  34.590  1.00  0.00     0.036 A 
HETATM   10  C10 UNK     1      18.577   1.075  33.293  1.00  0.00     0.095 A 
HETATM   11  C13 UNK     1      19.209   0.059  32.408  1.00  0.00     0.303 A 
ENDROOT
BRANCH  10  12
HETATM   12  C14 UNK     1      18.196   2.344  32.753  1.00  0.00     0.209 A 
HETATM   13  O2  UNK     1      18.521   3.515  33.376  1.00  0.00    -0.268 OA
HETATM   14  C15 UNK     1      17.971   4.430  32.531  1.00  0.00     0.203 A 
HETATM   15  N3  UNK     1      17.369   3.893  31.496  1.00  0.00    -0.121 NA
HETATM   16  N2  UNK     1      17.515   2.526  31.640  1.00  0.00    -0.121 NA
BRANCH  14  17
HETATM   17  C16 UNK     1      18.135   5.806  32.901  1.00  0.00     0.019 A 
HETATM   18  C17 UNK     1      17.263   6.780  32.405  1.00  0.00     0.017 A 
HETATM   19  C19 UNK     1      17.422   8.118  32.765  1.00  0.00     0.020 A 
HETATM   20  C21 UNK     1      18.454   8.490  33.627  1.00  0.00     0.011 A 
HETATM   21 Br1  UNK     1      18.670  10.302  34.115  1.00  0.00    -0.051 Br
HETATM   22  C20 UNK     1      19.328   7.524  34.126  1.00  0.00     0.020 A 
HETATM   23  C18 UNK     1      19.169   6.186  33.764  1.00  0.00     0.017 A 
ENDBRANCH  14  17
ENDBRANCH  10  12
BRANCH   3  24
HETATM   24  N1  UNK     1      19.833  -4.220  36.714  1.00  0.00    -0.382 N 
BRANCH  24  25
HETATM   25  C2  UNK     1      20.513  -4.314  37.991  1.00  0.00     0.118 C 
HETATM   26  C11 UNK     1      21.663  -5.298  37.898  1.00  0.00     0.026 C 
ENDBRANCH  24  25
BRANCH  24  27
HETATM   27  C3  UNK     1      19.551  -5.433  35.973  1.00  0.00     0.118 C 
HETATM   28  C12 UNK     1      18.335  -6.129  36.554  1.00  0.00     0.026 C 
ENDBRANCH  24  27
ENDBRANCH   3  24
TORSDOF 5
ENDMDL
MODEL 10
REMARK VINA RESULT:      -7.8     15.275     17.677
REMARK  5 active torsions:
REMARK  status: ('A' for Active; 'I' for Inactive)
REMARK    1  A    between atoms: C1_8  and  N1_5 
REMARK    2  A    between atoms: C2_9  and  N1_5 
REMARK    3  A    between atoms: C3_10  and  N1_5 
REMARK    4  A    between atoms: C10_17  and  C14_21 
REMARK    5  A    between atoms: C15_22  and  C16_23 
ROOT
HETATM    1  O1  UNK     1      27.772  -8.742  37.323  1.00  0.00    -0.274 OA
HETATM    2  O3  UNK     1      25.814  -9.888  37.084  1.00  0.00    -0.259 OA
HETATM    3  C1  UNK     1      30.554  -6.449  38.025  1.00  0.00     0.032 A 
HETATM    4  C4  UNK     1      27.816  -6.662  38.576  1.00  0.00    -0.001 A 
HETATM    5  C5  UNK     1      28.473  -7.630  37.826  1.00  0.00     0.091 A 
HETATM    6  C6  UNK     1      29.835  -7.540  37.542  1.00  0.00     0.067 A 
HETATM    7  C7  UNK     1      29.911  -5.467  38.781  1.00  0.00     0.030 A 
HETATM    8  C8  UNK     1      28.545  -5.572  39.057  1.00  0.00     0.016 A 
HETATM    9  C9  UNK     1      26.394  -6.821  38.837  1.00  0.00     0.036 A 
HETATM   10  C10 UNK     1      25.723  -7.879  38.358  1.00  0.00     0.095 A 
HETATM   11  C13 UNK     1      26.408  -8.920  37.546  1.00  0.00     0.303 A 
ENDROOT
BRANCH  10  12
HETATM   12  C14 UNK     1      24.326  -8.007  38.639  1.00  0.00     0.209 A 
HETATM   13  O2  UNK     1      23.378  -7.798  37.678  1.00  0.00    -0.268 OA
HETATM   14  C15 UNK     1      22.233  -8.024  38.377  1.00  0.00     0.203 A 
HETATM   15  N3  UNK     1      22.439  -8.339  39.635  1.00  0.00    -0.121 NA
HETATM   16  N2  UNK     1      23.810  -8.329  39.808  1.00  0.00    -0.121 NA
BRANCH  14  17
HETATM   17  C16 UNK     1      21.010  -7.884  37.641  1.00  0.00     0.019 A 
HETATM   18  C17 UNK     1      21.017  -7.932  36.244  1.00  0.00     0.017 A 
HETATM   19  C19 UNK     1      19.828  -7.797  35.527  1.00  0.00     0.020 A 
HETATM   20  C21 UNK     1      18.623  -7.615  36.206  1.00  0.00     0.011 A 
HETATM   21 Br1  UNK     1      17.011  -7.431  35.236  1.00  0.00    -0.051 Br
HETATM   22  C20 UNK     1      18.607  -7.565  37.600  1.00  0.00     0.020 A 
HETATM   23  C18 UNK     1      19.797  -7.699  38.315  1.00  0.00     0.017 A 
ENDBRANCH  14  17
ENDBRANCH  10  12
BRANCH   3  24
HETATM   24  N1  UNK     1      31.933  -6.336  37.751  1.00  0.00    -0.382 N 
BRANCH  24  25
HETATM   25  C2  UNK     1      32.485  -5.087  37.262  1.00  0.00     0.118 C 
HETATM   26  C11 UNK     1      31.917  -4.766  35.894  1.00  0.00     0.026 C 
ENDBRANCH  24  25
BRANCH  24  27
HETATM   27  C3  UNK     1      32.814  -7.470  37.941  1.00  0.00     0.118 C 
HETATM   28  C12 UNK     1      34.234  -7.099  37.558  1.00  0.00     0.026 C 
ENDBRANCH  24  27
ENDBRANCH   3  24
TORSDOF 5
ENDMDL
