MODEL 1
REMARK VINA RESULT:      -9.3      0.000      0.000
REMARK  5 active torsions:
REMARK  status: ('A' for Active; 'I' for Inactive)
REMARK    1  A    between atoms: C5_12  and  N1_5 
REMARK    2  A    between atoms: C6_13  and  N2_6 
REMARK    3  A    between atoms: C15_22  and  N3_7 
REMARK       I    between atoms: C8_15  and  N3_7 
REMARK    4  A    between atoms: C5_12  and  C7_14 
REMARK    5  A    between atoms: C6_13  and  C8_15 
ROOT
HETATM    1  N1  UNK     1      19.432  -3.117  36.302  1.00  0.00     0.096 N 
HETATM    2  N2  UNK     1      18.279  -0.467  36.421  1.00  0.00     0.100 N 
HETATM    3  C1  UNK     1      19.224  -2.432  37.584  1.00  0.00     0.303 C 
HETATM    4  C2  UNK     1      19.655  -2.139  35.229  1.00  0.00     0.303 C 
HETATM    5  C3  UNK     1      18.055  -1.445  37.493  1.00  0.00     0.303 C 
HETATM    6  C4  UNK     1      18.485  -1.152  35.139  1.00  0.00     0.303 C 
ENDROOT
BRANCH   1   7
HETATM    7  C5  UNK     1      20.549  -4.055  36.388  1.00  0.00     0.312 C 
BRANCH   7   8
HETATM    8  C7  UNK     1      20.092  -5.449  36.648  1.00  0.00    -0.011 A 
HETATM    9  C10 UNK     1      19.061  -5.977  35.975  1.00  0.00     0.092 A 
HETATM   10  C13 UNK     1      18.574  -7.349  36.197  1.00  0.00     0.288 A 
HETATM   11  O1  UNK     1      19.239  -8.098  37.156  1.00  0.00    -0.275 OA
HETATM   12  O3  UNK     1      17.627  -7.800  35.562  1.00  0.00    -0.260 OA
HETATM   13  C11 UNK     1      20.327  -7.570  37.880  1.00  0.00     0.090 A 
HETATM   14  C9  UNK     1      20.776  -6.267  37.658  1.00  0.00     0.006 A 
HETATM   15  C14 UNK     1      20.920  -8.413  38.821  1.00  0.00     0.045 A 
HETATM   16  C12 UNK     1      21.864  -5.816  38.420  1.00  0.00     0.015 A 
HETATM   17  C17 UNK     1      22.469  -6.650  39.366  1.00  0.00     0.007 A 
HETATM   18  C16 UNK     1      21.998  -7.947  39.566  1.00  0.00    -0.059 A 
HETATM   19  C19 UNK     1      22.647  -8.830  40.576  1.00  0.00     0.048 C 
ENDBRANCH   7   8
ENDBRANCH   1   7
BRANCH   2  20
HETATM   20  C6  UNK     1      17.164   0.473  36.334  1.00  0.00     0.375 C 
BRANCH  20  21
HETATM   21  C8  UNK     1      17.113   1.072  34.934  1.00  0.00     0.252 C 
HETATM   22  O2  UNK     1      16.256   0.691  34.133  1.00  0.00    -0.271 OA
HETATM   23  N3  UNK     1      18.116   2.026  34.644  1.00  0.00    -0.321 N 
HETATM   24  C18 UNK     1      19.113   2.442  35.643  1.00  0.00     0.159 C 
BRANCH  23  25
HETATM   25  C15 UNK     1      18.275   2.566  33.308  1.00  0.00     0.036 A 
HETATM   26  C20 UNK     1      18.145   3.937  33.090  1.00  0.00     0.033 A 
HETATM   27  C22 UNK     1      18.298   4.456  31.804  1.00  0.00     0.044 A 
HETATM   28  C24 UNK     1      18.582   3.604  30.737  1.00  0.00     0.116 A 
HETATM   29  C23 UNK     1      18.714   2.232  30.956  1.00  0.00     0.044 A 
HETATM   30  F1  UNK     1      18.728   4.101  29.502  1.00  0.00    -0.206 F 
HETATM   31  C21 UNK     1      18.560   1.713  32.242  1.00  0.00     0.033 A 
ENDBRANCH  23  25
ENDBRANCH  20  21
ENDBRANCH   2  20
TORSDOF 5
ENDMDL
MODEL 2
REMARK VINA RESULT:      -9.3      8.367     14.679
REMARK  5 active torsions:
REMARK  status: ('A' for Active; 'I' for Inactive)
REMARK    1  A    between atoms: C5_12  and  N1_5 
REMARK    2  A    between atoms: C6_13  and  N2_6 
REMARK    3  A    between atoms: C15_22  and  N3_7 
REMARK       I    between atoms: C8_15  and  N3_7 
REMARK    4  A    between atoms: C5_12  and  C7_14 
REMARK    5  A    between atoms: C6_13  and  C8_15 
ROOT
HETATM    1  N1  UNK     1      15.896   8.449  33.161  1.00  0.00     0.096 N 
HETATM    2  N2  UNK     1      17.307   5.951  32.795  1.00  0.00     0.100 N 
HETATM    3  C1  UNK     1      15.670   7.307  34.055  1.00  0.00     0.303 C 
HETATM    4  C2  UNK     1      16.289   7.983  31.825  1.00  0.00     0.303 C 
HETATM    5  C3  UNK     1      16.916   6.417  34.131  1.00  0.00     0.303 C 
HETATM    6  C4  UNK     1      17.535   7.093  31.902  1.00  0.00     0.303 C 
ENDROOT
BRANCH   1   7
HETATM    7  C5  UNK     1      14.707   9.295  33.087  1.00  0.00     0.312 C 
BRANCH   7   8
HETATM    8  C7  UNK     1      14.968  10.676  33.579  1.00  0.00    -0.011 A 
HETATM    9  C10 UNK     1      16.172  11.026  34.054  1.00  0.00     0.092 A 
HETATM   10  C13 UNK     1      16.477  12.378  34.552  1.00  0.00     0.288 A 
HETATM   11  O1  UNK     1      15.445  13.304  34.511  1.00  0.00    -0.275 OA
HETATM   12  O3  UNK     1      17.590  12.663  34.979  1.00  0.00    -0.260 OA
HETATM   13  C11 UNK     1      14.170  12.965  34.017  1.00  0.00     0.090 A 
HETATM   14  C9  UNK     1      13.896  11.679  33.549  1.00  0.00     0.006 A 
HETATM   15  C14 UNK     1      13.208  13.977  34.023  1.00  0.00     0.045 A 
HETATM   16  C12 UNK     1      12.602  11.422  33.074  1.00  0.00     0.015 A 
HETATM   17  C17 UNK     1      11.627  12.426  33.074  1.00  0.00     0.007 A 
HETATM   18  C16 UNK     1      11.930  13.701  33.548  1.00  0.00    -0.059 A 
HETATM   19  C19 UNK     1      10.887  14.767  33.545  1.00  0.00     0.048 C 
ENDBRANCH   7   8
ENDBRANCH   1   7
BRANCH   2  20
HETATM   20  C6  UNK     1      18.496   5.104  32.868  1.00  0.00     0.375 C 
BRANCH  20  21
HETATM   21  C8  UNK     1      18.260   3.829  32.068  1.00  0.00     0.252 C 
HETATM   22  O2  UNK     1      17.646   2.889  32.577  1.00  0.00    -0.271 OA
HETATM   23  N3  UNK     1      18.818   3.815  30.768  1.00  0.00    -0.321 N 
HETATM   24  C18 UNK     1      19.540   4.970  30.213  1.00  0.00     0.159 C 
BRANCH  23  25
HETATM   25  C15 UNK     1      18.795   2.615  29.954  1.00  0.00     0.036 A 
HETATM   26  C20 UNK     1      17.876   2.497  28.911  1.00  0.00     0.033 A 
HETATM   27  C22 UNK     1      17.856   1.342  28.129  1.00  0.00     0.044 A 
HETATM   28  C24 UNK     1      18.752   0.306  28.390  1.00  0.00     0.116 A 
HETATM   29  C23 UNK     1      19.671   0.425  29.433  1.00  0.00     0.044 A 
HETATM   30  F1  UNK     1      18.731  -0.803  27.640  1.00  0.00    -0.206 F 
HETATM   31  C21 UNK     1      19.693   1.580  30.215  1.00  0.00     0.033 A 
ENDBRANCH  23  25
ENDBRANCH  20  21
ENDBRANCH   2  20
TORSDOF 5
ENDMDL
MODEL 3
REMARK VINA RESULT:      -9.3      1.887      2.419
REMARK  5 active torsions:
REMARK  status: ('A' for Active; 'I' for Inactive)
REMARK    1  A    between atoms: C5_12  and  N1_5 
REMARK    2  A    between atoms: C6_13  and  N2_6 
REMARK    3  A    between atoms: C15_22  and  N3_7 
REMARK       I    between atoms: C8_15  and  N3_7 
REMARK    4  A    between atoms: C5_12  and  C7_14 
REMARK    5  A    between atoms: C6_13  and  C8_15 
ROOT
HETATM    1  N1  UNK     1      19.437  -2.523  35.732  1.00  0.00     0.096 N 
HETATM    2  N2  UNK     1      18.653  -0.011  34.533  1.00  0.00     0.100 N 
HETATM    3  C1  UNK     1      19.046  -1.373  36.557  1.00  0.00     0.303 C 
HETATM    4  C2  UNK     1      20.020  -2.069  34.464  1.00  0.00     0.303 C 
HETATM    5  C3  UNK     1      18.069  -0.466  35.801  1.00  0.00     0.303 C 
HETATM    6  C4  UNK     1      19.042  -1.161  33.708  1.00  0.00     0.303 C 
ENDROOT
BRANCH   1   7
HETATM    7  C5  UNK     1      20.371  -3.386  36.453  1.00  0.00     0.312 C 
BRANCH   7   8
HETATM    8  C7  UNK     1      19.748  -4.678  36.851  1.00  0.00    -0.011 A 
HETATM    9  C10 UNK     1      18.514  -5.008  36.445  1.00  0.00     0.092 A 
HETATM   10  C13 UNK     1      17.857  -6.274  36.813  1.00  0.00     0.288 A 
HETATM   11  O1  UNK     1      18.580  -7.139  37.619  1.00  0.00    -0.275 OA
HETATM   12  O3  UNK     1      16.726  -6.541  36.421  1.00  0.00    -0.260 OA
HETATM   13  C11 UNK     1      19.880  -6.820  38.062  1.00  0.00     0.090 A 
HETATM   14  C9  UNK     1      20.489  -5.616  37.705  1.00  0.00     0.006 A 
HETATM   15  C14 UNK     1      20.514  -7.766  38.870  1.00  0.00     0.045 A 
HETATM   16  C12 UNK     1      21.783  -5.374  38.187  1.00  0.00     0.015 A 
HETATM   17  C17 UNK     1      22.431  -6.313  38.998  1.00  0.00     0.007 A 
HETATM   18  C16 UNK     1      21.798  -7.507  39.338  1.00  0.00    -0.059 A 
HETATM   19  C19 UNK     1      22.495  -8.503  40.201  1.00  0.00     0.048 C 
ENDBRANCH   7   8
ENDBRANCH   1   7
BRANCH   2  20
HETATM   20  C6  UNK     1      17.721   0.853  33.812  1.00  0.00     0.375 C 
BRANCH  20  21
HETATM   21  C8  UNK     1      18.035   2.311  34.124  1.00  0.00     0.252 C 
HETATM   22  O2  UNK     1      18.080   2.692  35.297  1.00  0.00    -0.271 OA
HETATM   23  N3  UNK     1      18.221   3.148  32.999  1.00  0.00    -0.321 N 
HETATM   24  C18 UNK     1      18.156   2.635  31.623  1.00  0.00     0.159 C 
BRANCH  23  25
HETATM   25  C15 UNK     1      18.380   4.581  33.148  1.00  0.00     0.036 A 
HETATM   26  C20 UNK     1      17.454   5.450  32.570  1.00  0.00     0.033 A 
HETATM   27  C22 UNK     1      17.608   6.829  32.715  1.00  0.00     0.044 A 
HETATM   28  C24 UNK     1      18.688   7.339  33.436  1.00  0.00     0.116 A 
HETATM   29  C23 UNK     1      19.612   6.469  34.015  1.00  0.00     0.044 A 
HETATM   30  F1  UNK     1      18.836   8.663  33.574  1.00  0.00    -0.206 F 
HETATM   31  C21 UNK     1      19.459   5.090  33.871  1.00  0.00     0.033 A 
ENDBRANCH  23  25
ENDBRANCH  20  21
ENDBRANCH   2  20
TORSDOF 5
ENDMDL
MODEL 4
REMARK VINA RESULT:      -9.2      1.601      2.703
REMARK  5 active torsions:
REMARK  status: ('A' for Active; 'I' for Inactive)
REMARK    1  A    between atoms: C5_12  and  N1_5 
REMARK    2  A    between atoms: C6_13  and  N2_6 
REMARK    3  A    between atoms: C15_22  and  N3_7 
REMARK       I    between atoms: C8_15  and  N3_7 
REMARK    4  A    between atoms: C5_12  and  C7_14 
REMARK    5  A    between atoms: C6_13  and  C8_15 
ROOT
HETATM    1  N1  UNK     1      19.538  -3.715  36.433  1.00  0.00     0.096 N 
HETATM    2  N2  UNK     1      18.093  -1.235  36.076  1.00  0.00     0.100 N 
HETATM    3  C1  UNK     1      19.868  -2.790  35.342  1.00  0.00     0.303 C 
HETATM    4  C2  UNK     1      18.117  -3.602  36.789  1.00  0.00     0.303 C 
HETATM    5  C3  UNK     1      19.514  -1.348  35.722  1.00  0.00     0.303 C 
HETATM    6  C4  UNK     1      17.764  -2.159  37.169  1.00  0.00     0.303 C 
ENDROOT
BRANCH   1   7
HETATM    7  C5  UNK     1      19.873  -5.090  36.069  1.00  0.00     0.312 C 
BRANCH   7   8
HETATM    8  C7  UNK     1      20.650  -5.780  37.135  1.00  0.00    -0.011 A 
HETATM    9  C10 UNK     1      21.712  -5.196  37.707  1.00  0.00     0.092 A 
HETATM   10  C13 UNK     1      22.511  -5.839  38.764  1.00  0.00     0.288 A 
HETATM   11  O1  UNK     1      22.115  -7.108  39.159  1.00  0.00    -0.275 OA
HETATM   12  O3  UNK     1      23.476  -5.273  39.265  1.00  0.00    -0.260 OA
HETATM   13  C11 UNK     1      21.003  -7.748  38.576  1.00  0.00     0.090 A 
HETATM   14  C9  UNK     1      20.256  -7.125  37.574  1.00  0.00     0.006 A 
HETATM   15  C14 UNK     1      20.696  -9.024  39.050  1.00  0.00     0.045 A 
HETATM   16  C12 UNK     1      19.165  -7.829  37.045  1.00  0.00     0.015 A 
HETATM   17  C17 UNK     1      18.845  -9.109  37.511  1.00  0.00     0.007 A 
HETATM   18  C16 UNK     1      19.610  -9.705  38.512  1.00  0.00    -0.059 A 
HETATM   19  C19 UNK     1      19.263 -11.069  39.004  1.00  0.00     0.048 C 
ENDBRANCH   7   8
ENDBRANCH   1   7
BRANCH   2  20
HETATM   20  C6  UNK     1      17.756   0.139  36.440  1.00  0.00     0.375 C 
BRANCH  20  21
HETATM   21  C8  UNK     1      17.517   0.955  35.176  1.00  0.00     0.252 C 
HETATM   22  O2  UNK     1      16.647   0.606  34.375  1.00  0.00    -0.271 OA
HETATM   23  N3  UNK     1      18.372   2.068  34.999  1.00  0.00    -0.321 N 
HETATM   24  C18 UNK     1      19.393   2.436  35.992  1.00  0.00     0.159 C 
BRANCH  23  25
HETATM   25  C15 UNK     1      18.352   2.842  33.774  1.00  0.00     0.036 A 
HETATM   26  C20 UNK     1      18.403   2.195  32.539  1.00  0.00     0.033 A 
HETATM   27  C22 UNK     1      18.383   2.941  31.361  1.00  0.00     0.044 A 
HETATM   28  C24 UNK     1      18.313   4.333  31.416  1.00  0.00     0.116 A 
HETATM   29  C23 UNK     1      18.261   4.980  32.651  1.00  0.00     0.044 A 
HETATM   30  F1  UNK     1      18.296   5.049  30.285  1.00  0.00    -0.206 F 
HETATM   31  C21 UNK     1      18.281   4.235  33.831  1.00  0.00     0.033 A 
ENDBRANCH  23  25
ENDBRANCH  20  21
ENDBRANCH   2  20
TORSDOF 5
ENDMDL
MODEL 5
REMARK VINA RESULT:      -9.2      3.143      4.214
REMARK  5 active torsions:
REMARK  status: ('A' for Active; 'I' for Inactive)
REMARK    1  A    between atoms: C5_12  and  N1_5 
REMARK    2  A    between atoms: C6_13  and  N2_6 
REMARK    3  A    between atoms: C15_22  and  N3_7 
REMARK       I    between atoms: C8_15  and  N3_7 
REMARK    4  A    between atoms: C5_12  and  C7_14 
REMARK    5  A    between atoms: C6_13  and  C8_15 
ROOT
HETATM    1  N1  UNK     1      20.542  -6.011  36.982  1.00  0.00     0.096 N 
HETATM    2  N2  UNK     1      19.595  -3.331  36.450  1.00  0.00     0.100 N 
HETATM    3  C1  UNK     1      19.618  -5.734  35.875  1.00  0.00     0.303 C 
HETATM    4  C2  UNK     1      20.347  -5.042  38.068  1.00  0.00     0.303 C 
HETATM    5  C3  UNK     1      19.792  -4.300  35.364  1.00  0.00     0.303 C 
HETATM    6  C4  UNK     1      20.521  -3.607  37.556  1.00  0.00     0.303 C 
ENDROOT
BRANCH   1   7
HETATM    7  C5  UNK     1      20.374  -7.378  37.470  1.00  0.00     0.312 C 
BRANCH   7   8
HETATM    8  C7  UNK     1      21.385  -8.308  36.896  1.00  0.00    -0.011 A 
HETATM    9  C10 UNK     1      21.081  -9.118  35.873  1.00  0.00     0.092 A 
HETATM   10  C13 UNK     1      22.047 -10.054  35.273  1.00  0.00     0.288 A 
HETATM   11  O1  UNK     1      23.321 -10.069  35.820  1.00  0.00    -0.275 OA
HETATM   12  O3  UNK     1      21.732 -10.780  34.337  1.00  0.00    -0.260 OA
HETATM   13  C11 UNK     1      23.671  -9.229  36.896  1.00  0.00     0.090 A 
HETATM   14  C9  UNK     1      22.743  -8.347  37.454  1.00  0.00     0.006 A 
HETATM   15  C14 UNK     1      24.981  -9.329  37.366  1.00  0.00     0.045 A 
HETATM   16  C12 UNK     1      23.170  -7.546  38.522  1.00  0.00     0.015 A 
HETATM   17  C17 UNK     1      24.481  -7.635  39.005  1.00  0.00     0.007 A 
HETATM   18  C16 UNK     1      25.385  -8.525  38.427  1.00  0.00    -0.059 A 
HETATM   19  C19 UNK     1      26.780  -8.614  38.946  1.00  0.00     0.048 C 
ENDBRANCH   7   8
ENDBRANCH   1   7
BRANCH   2  20
HETATM   20  C6  UNK     1      19.762  -1.963  35.963  1.00  0.00     0.375 C 
BRANCH  20  21
HETATM   21  C8  UNK     1      20.186  -1.994  34.500  1.00  0.00     0.252 C 
HETATM   22  O2  UNK     1      21.290  -2.447  34.190  1.00  0.00    -0.271 OA
HETATM   23  N3  UNK     1      19.256  -1.446  33.586  1.00  0.00    -0.321 N 
HETATM   24  C18 UNK     1      17.951  -0.921  34.017  1.00  0.00     0.159 C 
BRANCH  23  25
HETATM   25  C15 UNK     1      19.590  -1.278  32.185  1.00  0.00     0.036 A 
HETATM   26  C20 UNK     1      20.095  -2.354  31.455  1.00  0.00     0.033 A 
HETATM   27  C22 UNK     1      20.416  -2.191  30.107  1.00  0.00     0.044 A 
HETATM   28  C24 UNK     1      20.232  -0.954  29.490  1.00  0.00     0.116 A 
HETATM   29  C23 UNK     1      19.726   0.121  30.221  1.00  0.00     0.044 A 
HETATM   30  F1  UNK     1      20.541  -0.798  28.196  1.00  0.00    -0.206 F 
HETATM   31  C21 UNK     1      19.405  -0.040  31.569  1.00  0.00     0.033 A 
ENDBRANCH  23  25
ENDBRANCH  20  21
ENDBRANCH   2  20
TORSDOF 5
ENDMDL
MODEL 6
REMARK VINA RESULT:      -9.2     11.241     13.402
REMARK  5 active torsions:
REMARK  status: ('A' for Active; 'I' for Inactive)
REMARK    1  A    between atoms: C5_12  and  N1_5 
REMARK    2  A    between atoms: C6_13  and  N2_6 
REMARK    3  A    between atoms: C15_22  and  N3_7 
REMARK       I    between atoms: C8_15  and  N3_7 
REMARK    4  A    between atoms: C5_12  and  C7_14 
REMARK    5  A    between atoms: C6_13  and  C8_15 
ROOT
HETATM    1  N1  UNK     1      32.243  -7.082  36.356  1.00  0.00     0.096 N 
HETATM    2  N2  UNK     1      33.073  -7.782  33.676  1.00  0.00     0.100 N 
HETATM    3  C1  UNK     1      32.197  -6.103  35.263  1.00  0.00     0.303 C 
HETATM    4  C2  UNK     1      33.309  -8.065  36.120  1.00  0.00     0.303 C 
HETATM    5  C3  UNK     1      32.006  -6.801  33.912  1.00  0.00     0.303 C 
HETATM    6  C4  UNK     1      33.117  -8.763  34.768  1.00  0.00     0.303 C 
ENDROOT
BRANCH   1   7
HETATM    7  C5  UNK     1      32.428  -6.416  37.643  1.00  0.00     0.312 C 
BRANCH   7   8
HETATM    8  C7  UNK     1      31.131  -6.078  38.292  1.00  0.00    -0.011 A 
HETATM    9  C10 UNK     1      30.864  -4.829  38.700  1.00  0.00     0.092 A 
HETATM   10  C13 UNK     1      29.597  -4.448  39.346  1.00  0.00     0.288 A 
HETATM   11  O1  UNK     1      28.661  -5.455  39.524  1.00  0.00    -0.275 OA
HETATM   12  O3  UNK     1      29.388  -3.294  39.706  1.00  0.00    -0.260 OA
HETATM   13  C11 UNK     1      28.913  -6.777  39.106  1.00  0.00     0.090 A 
HETATM   14  C9  UNK     1      30.120  -7.123  38.495  1.00  0.00     0.006 A 
HETATM   15  C14 UNK     1      27.899  -7.709  39.335  1.00  0.00     0.045 A 
HETATM   16  C12 UNK     1      30.292  -8.460  38.108  1.00  0.00     0.015 A 
HETATM   17  C17 UNK     1      29.285  -9.405  38.332  1.00  0.00     0.007 A 
HETATM   18  C16 UNK     1      28.091  -9.030  38.944  1.00  0.00    -0.059 A 
HETATM   19  C19 UNK     1      27.022 -10.042  39.179  1.00  0.00     0.048 C 
ENDBRANCH   7   8
ENDBRANCH   1   7
BRANCH   2  20
HETATM   20  C6  UNK     1      32.890  -8.449  32.388  1.00  0.00     0.375 C 
BRANCH  20  21
HETATM   21  C8  UNK     1      31.650  -7.891  31.700  1.00  0.00     0.252 C 
HETATM   22  O2  UNK     1      31.731  -6.858  31.031  1.00  0.00    -0.271 OA
HETATM   23  N3  UNK     1      30.454  -8.613  31.922  1.00  0.00    -0.321 N 
HETATM   24  C18 UNK     1      30.420  -9.842  32.729  1.00  0.00     0.159 C 
BRANCH  23  25
HETATM   25  C15 UNK     1      29.178  -8.114  31.449  1.00  0.00     0.036 A 
HETATM   26  C20 UNK     1      28.581  -8.681  30.323  1.00  0.00     0.033 A 
HETATM   27  C22 UNK     1      27.353  -8.200  29.869  1.00  0.00     0.044 A 
HETATM   28  C24 UNK     1      26.722  -7.153  30.541  1.00  0.00     0.116 A 
HETATM   29  C23 UNK     1      27.318  -6.588  31.668  1.00  0.00     0.044 A 
HETATM   30  F1  UNK     1      25.543  -6.692  30.104  1.00  0.00    -0.206 F 
HETATM   31  C21 UNK     1      28.547  -7.068  32.122  1.00  0.00     0.033 A 
ENDBRANCH  23  25
ENDBRANCH  20  21
ENDBRANCH   2  20
TORSDOF 5
ENDMDL
MODEL 7
REMARK VINA RESULT:      -9.1      8.908     12.674
REMARK  5 active torsions:
REMARK  status: ('A' for Active; 'I' for Inactive)
REMARK    1  A    between atoms: C5_12  and  N1_5 
REMARK    2  A    between atoms: C6_13  and  N2_6 
REMARK    3  A    between atoms: C15_22  and  N3_7 
REMARK       I    between atoms: C8_15  and  N3_7 
REMARK    4  A    between atoms: C5_12  and  C7_14 
REMARK    5  A    between atoms: C6_13  and  C8_15 
ROOT
HETATM    1  N1  UNK     1      26.715  -8.962  37.703  1.00  0.00     0.096 N 
HETATM    2  N2  UNK     1      29.533  -8.559  38.211  1.00  0.00     0.100 N 
HETATM    3  C1  UNK     1      27.459  -7.874  37.057  1.00  0.00     0.303 C 
HETATM    4  C2  UNK     1      27.309  -9.285  39.007  1.00  0.00     0.303 C 
HETATM    5  C3  UNK     1      28.940  -8.238  36.907  1.00  0.00     0.303 C 
HETATM    6  C4  UNK     1      28.791  -9.650  38.856  1.00  0.00     0.303 C 
ENDROOT
BRANCH   1   7
HETATM    7  C5  UNK     1      25.304  -8.613  37.849  1.00  0.00     0.312 C 
BRANCH   7   8
HETATM    8  C7  UNK     1      24.418  -9.515  37.062  1.00  0.00    -0.011 A 
HETATM    9  C10 UNK     1      24.894 -10.632  36.493  1.00  0.00     0.092 A 
HETATM   10  C13 UNK     1      24.057 -11.554  35.707  1.00  0.00     0.288 A 
HETATM   11  O1  UNK     1      22.719 -11.217  35.570  1.00  0.00    -0.275 OA
HETATM   12  O3  UNK     1      24.528 -12.567  35.202  1.00  0.00    -0.260 OA
HETATM   13  C11 UNK     1      22.189 -10.050  36.157  1.00  0.00     0.090 A 
HETATM   14  C9  UNK     1      22.996  -9.185  36.899  1.00  0.00     0.006 A 
HETATM   15  C14 UNK     1      20.829  -9.811  35.954  1.00  0.00     0.045 A 
HETATM   16  C12 UNK     1      22.393  -8.046  37.449  1.00  0.00     0.015 A 
HETATM   17  C17 UNK     1      21.030  -7.792  37.254  1.00  0.00     0.007 A 
HETATM   18  C16 UNK     1      20.250  -8.674  36.508  1.00  0.00    -0.059 A 
HETATM   19  C19 UNK     1      18.799  -8.399  36.304  1.00  0.00     0.048 C 
ENDBRANCH   7   8
ENDBRANCH   1   7
BRANCH   2  20
HETATM   20  C6  UNK     1      30.945  -8.908  38.067  1.00  0.00     0.375 C 
BRANCH  20  21
HETATM   21  C8  UNK     1      31.737  -7.667  37.672  1.00  0.00     0.252 C 
HETATM   22  O2  UNK     1      31.767  -6.692  38.426  1.00  0.00    -0.271 OA
HETATM   23  N3  UNK     1      32.366  -7.725  36.406  1.00  0.00    -0.321 N 
HETATM   24  C18 UNK     1      32.295  -8.919  35.550  1.00  0.00     0.159 C 
BRANCH  23  25
HETATM   25  C15 UNK     1      33.027  -6.564  35.844  1.00  0.00     0.036 A 
HETATM   26  C20 UNK     1      32.281  -5.589  35.182  1.00  0.00     0.033 A 
HETATM   27  C22 UNK     1      32.917  -4.472  34.641  1.00  0.00     0.044 A 
HETATM   28  C24 UNK     1      34.300  -4.330  34.762  1.00  0.00     0.116 A 
HETATM   29  C23 UNK     1      35.045  -5.304  35.425  1.00  0.00     0.044 A 
HETATM   30  F1  UNK     1      34.911  -3.258  34.242  1.00  0.00    -0.206 F 
HETATM   31  C21 UNK     1      34.409  -6.422  35.966  1.00  0.00     0.033 A 
ENDBRANCH  23  25
ENDBRANCH  20  21
ENDBRANCH   2  20
TORSDOF 5
ENDMDL
MODEL 8
REMARK VINA RESULT:      -9.1      8.088     12.208
REMARK  5 active torsions:
REMARK  status: ('A' for Active; 'I' for Inactive)
REMARK    1  A    between atoms: C5_12  and  N1_5 
REMARK    2  A    between atoms: C6_13  and  N2_6 
REMARK    3  A    between atoms: C15_22  and  N3_7 
REMARK       I    between atoms: C8_15  and  N3_7 
REMARK    4  A    between atoms: C5_12  and  C7_14 
REMARK    5  A    between atoms: C6_13  and  C8_15 
ROOT
HETATM    1  N1  UNK     1      29.414  -9.064  37.765  1.00  0.00     0.096 N 
HETATM    2  N2  UNK     1      26.585  -9.228  37.192  1.00  0.00     0.100 N 
HETATM    3  C1  UNK     1      28.421  -9.134  38.843  1.00  0.00     0.303 C 
HETATM    4  C2  UNK     1      28.838  -8.419  36.578  1.00  0.00     0.303 C 
HETATM    5  C3  UNK     1      27.161  -9.874  38.378  1.00  0.00     0.303 C 
HETATM    6  C4  UNK     1      27.578  -9.159  36.113  1.00  0.00     0.303 C 
ENDROOT
BRANCH   1   7
HETATM    7  C5  UNK     1      30.613  -8.356  38.209  1.00  0.00     0.312 C 
BRANCH   7   8
HETATM    8  C7  UNK     1      30.479  -6.880  38.066  1.00  0.00    -0.011 A 
HETATM    9  C10 UNK     1      29.500  -6.209  38.689  1.00  0.00     0.092 A 
HETATM   10  C13 UNK     1      29.328  -4.751  38.578  1.00  0.00     0.288 A 
HETATM   11  O1  UNK     1      30.240  -4.075  37.781  1.00  0.00    -0.275 OA
HETATM   12  O3  UNK     1      28.420  -4.171  39.164  1.00  0.00    -0.260 OA
HETATM   13  C11 UNK     1      31.279  -4.753  37.113  1.00  0.00     0.090 A 
HETATM   14  C9  UNK     1      31.430  -6.136  37.229  1.00  0.00     0.006 A 
HETATM   15  C14 UNK     1      32.138  -3.971  36.339  1.00  0.00     0.045 A 
HETATM   16  C12 UNK     1      32.489  -6.735  36.533  1.00  0.00     0.015 A 
HETATM   17  C17 UNK     1      33.358  -5.965  35.752  1.00  0.00     0.007 A 
HETATM   18  C16 UNK     1      33.183  -4.585  35.656  1.00  0.00    -0.059 A 
HETATM   19  C19 UNK     1      34.113  -3.770  34.823  1.00  0.00     0.048 C 
ENDBRANCH   7   8
ENDBRANCH   1   7
BRANCH   2  20
HETATM   20  C6  UNK     1      25.384  -9.934  36.748  1.00  0.00     0.375 C 
BRANCH  20  21
HETATM   21  C8  UNK     1      24.155  -9.090  37.061  1.00  0.00     0.252 C 
HETATM   22  O2  UNK     1      24.267  -8.072  37.748  1.00  0.00    -0.271 OA
HETATM   23  N3  UNK     1      22.932  -9.584  36.548  1.00  0.00    -0.321 N 
HETATM   24  C18 UNK     1      22.862 -10.805  35.732  1.00  0.00     0.159 C 
BRANCH  23  25
HETATM   25  C15 UNK     1      21.669  -8.962  36.892  1.00  0.00     0.036 A 
HETATM   26  C20 UNK     1      21.129  -7.975  36.067  1.00  0.00     0.033 A 
HETATM   27  C22 UNK     1      19.913  -7.378  36.399  1.00  0.00     0.044 A 
HETATM   28  C24 UNK     1      19.237  -7.766  37.555  1.00  0.00     0.116 A 
HETATM   29  C23 UNK     1      19.776  -8.754  38.380  1.00  0.00     0.044 A 
HETATM   30  F1  UNK     1      18.070  -7.192  37.874  1.00  0.00    -0.206 F 
HETATM   31  C21 UNK     1      20.993  -9.352  38.048  1.00  0.00     0.033 A 
ENDBRANCH  23  25
ENDBRANCH  20  21
ENDBRANCH   2  20
TORSDOF 5
ENDMDL
MODEL 9
REMARK VINA RESULT:      -9.1      4.506     10.263
REMARK  5 active torsions:
REMARK  status: ('A' for Active; 'I' for Inactive)
REMARK    1  A    between atoms: C5_12  and  N1_5 
REMARK    2  A    between atoms: C6_13  and  N2_6 
REMARK    3  A    between atoms: C15_22  and  N3_7 
REMARK       I    between atoms: C8_15  and  N3_7 
REMARK    4  A    between atoms: C5_12  and  C7_14 
REMARK    5  A    between atoms: C6_13  and  C8_15 
ROOT
HETATM    1  N1  UNK     1      19.845  -3.700  37.126  1.00  0.00     0.096 N 
HETATM    2  N2  UNK     1      19.844  -6.592  37.161  1.00  0.00     0.100 N 
HETATM    3  C1  UNK     1      19.186  -4.475  36.068  1.00  0.00     0.303 C 
HETATM    4  C2  UNK     1      20.970  -4.457  37.691  1.00  0.00     0.303 C 
HETATM    5  C3  UNK     1      18.719  -5.836  36.598  1.00  0.00     0.303 C 
HETATM    6  C4  UNK     1      20.502  -5.817  38.221  1.00  0.00     0.303 C 
ENDROOT
BRANCH   1   7
HETATM    7  C5  UNK     1      20.293  -2.405  36.619  1.00  0.00     0.312 C 
BRANCH   7   8
HETATM    8  C7  UNK     1      19.328  -1.818  35.649  1.00  0.00    -0.011 A 
HETATM    9  C10 UNK     1      18.181  -1.261  36.062  1.00  0.00     0.092 A 
HETATM   10  C13 UNK     1      17.197  -0.668  35.140  1.00  0.00     0.288 A 
HETATM   11  O1  UNK     1      17.507  -0.709  33.789  1.00  0.00    -0.275 OA
HETATM   12  O3  UNK     1      16.158  -0.167  35.554  1.00  0.00    -0.260 OA
HETATM   13  C11 UNK     1      18.705  -1.288  33.324  1.00  0.00     0.090 A 
HETATM   14  C9  UNK     1      19.628  -1.845  34.211  1.00  0.00     0.006 A 
HETATM   15  C14 UNK     1      18.913  -1.272  31.944  1.00  0.00     0.045 A 
HETATM   16  C12 UNK     1      20.795  -2.402  33.669  1.00  0.00     0.015 A 
HETATM   17  C17 UNK     1      21.017  -2.394  32.288  1.00  0.00     0.007 A 
HETATM   18  C16 UNK     1      20.077  -1.830  31.427  1.00  0.00    -0.059 A 
HETATM   19  C19 UNK     1      20.320  -1.824  29.956  1.00  0.00     0.048 C 
ENDBRANCH   7   8
ENDBRANCH   1   7
BRANCH   2  20
HETATM   20  C6  UNK     1      19.398  -7.888  37.667  1.00  0.00     0.375 C 
BRANCH  20  21
HETATM   21  C8  UNK     1      20.574  -8.857  37.686  1.00  0.00     0.252 C 
HETATM   22  O2  UNK     1      20.907  -9.400  38.742  1.00  0.00    -0.271 OA
HETATM   23  N3  UNK     1      21.235  -9.034  36.448  1.00  0.00    -0.321 N 
HETATM   24  C18 UNK     1      20.790  -8.360  35.219  1.00  0.00     0.159 C 
BRANCH  23  25
HETATM   25  C15 UNK     1      22.455  -9.812  36.353  1.00  0.00     0.036 A 
HETATM   26  C20 UNK     1      23.667  -9.261  36.768  1.00  0.00     0.033 A 
HETATM   27  C22 UNK     1      24.840 -10.010  36.678  1.00  0.00     0.044 A 
HETATM   28  C24 UNK     1      24.802 -11.309  36.172  1.00  0.00     0.116 A 
HETATM   29  C23 UNK     1      23.589 -11.861  35.758  1.00  0.00     0.044 A 
HETATM   30  F1  UNK     1      25.928 -12.028  36.084  1.00  0.00    -0.206 F 
HETATM   31  C21 UNK     1      22.415 -11.112  35.848  1.00  0.00     0.033 A 
ENDBRANCH  23  25
ENDBRANCH  20  21
ENDBRANCH   2  20
TORSDOF 5
ENDMDL
MODEL 10
REMARK VINA RESULT:      -9.0     27.252     29.571
REMARK  5 active torsions:
REMARK  status: ('A' for Active; 'I' for Inactive)
REMARK    1  A    between atoms: C5_12  and  N1_5 
REMARK    2  A    between atoms: C6_13  and  N2_6 
REMARK    3  A    between atoms: C15_22  and  N3_7 
REMARK       I    between atoms: C8_15  and  N3_7 
REMARK    4  A    between atoms: C5_12  and  C7_14 
REMARK    5  A    between atoms: C6_13  and  C8_15 
ROOT
HETATM    1  N1  UNK     1      11.676   6.951   7.254  1.00  0.00     0.096 N 
HETATM    2  N2  UNK     1       9.185   5.861   8.238  1.00  0.00     0.100 N 
HETATM    3  C1  UNK     1      10.831   6.097   6.410  1.00  0.00     0.303 C 
HETATM    4  C2  UNK     1      11.502   6.605   8.671  1.00  0.00     0.303 C 
HETATM    5  C3  UNK     1       9.359   6.208   6.822  1.00  0.00     0.303 C 
HETATM    6  C4  UNK     1      10.029   6.716   9.082  1.00  0.00     0.303 C 
ENDROOT
BRANCH   1   7
HETATM    7  C5  UNK     1      13.080   6.842   6.862  1.00  0.00     0.312 C 
BRANCH   7   8
HETATM    8  C7  UNK     1      13.975   6.636   8.034  1.00  0.00    -0.011 A 
HETATM    9  C10 UNK     1      14.300   5.404   8.451  1.00  0.00     0.092 A 
HETATM   10  C13 UNK     1      15.181   5.151   9.604  1.00  0.00     0.288 A 
HETATM   11  O1  UNK     1      15.678   6.265  10.264  1.00  0.00    -0.275 OA
HETATM   12  O3  UNK     1      15.456   4.010   9.956  1.00  0.00    -0.260 OA
HETATM   13  C11 UNK     1      15.355   7.573   9.849  1.00  0.00     0.090 A 
HETATM   14  C9  UNK     1      14.518   7.796   8.754  1.00  0.00     0.006 A 
HETATM   15  C14 UNK     1      15.912   8.618  10.587  1.00  0.00     0.045 A 
HETATM   16  C12 UNK     1      14.245   9.126   8.405  1.00  0.00     0.015 A 
HETATM   17  C17 UNK     1      14.796  10.185   9.136  1.00  0.00     0.007 A 
HETATM   18  C16 UNK     1      15.628   9.931  10.225  1.00  0.00    -0.059 A 
HETATM   19  C19 UNK     1      16.213  11.063  10.999  1.00  0.00     0.048 C 
ENDBRANCH   7   8
ENDBRANCH   1   7
BRANCH   2  20
HETATM   20  C6  UNK     1       7.782   5.968   8.631  1.00  0.00     0.375 C 
BRANCH  20  21
HETATM   21  C8  UNK     1       7.486   4.962   9.737  1.00  0.00     0.252 C 
HETATM   22  O2  UNK     1       8.104   3.895   9.777  1.00  0.00    -0.271 OA
HETATM   23  N3  UNK     1       6.462   5.332  10.639  1.00  0.00    -0.321 N 
HETATM   24  C18 UNK     1       5.760   6.621  10.540  1.00  0.00     0.159 C 
BRANCH  23  25
HETATM   25  C15 UNK     1       5.979   4.409  11.647  1.00  0.00     0.036 A 
HETATM   26  C20 UNK     1       6.080   4.736  12.999  1.00  0.00     0.033 A 
HETATM   27  C22 UNK     1       5.615   3.847  13.968  1.00  0.00     0.044 A 
HETATM   28  C24 UNK     1       5.050   2.631  13.585  1.00  0.00     0.116 A 
HETATM   29  C23 UNK     1       4.948   2.304  12.233  1.00  0.00     0.044 A 
HETATM   30  F1  UNK     1       4.605   1.777  14.516  1.00  0.00    -0.206 F 
HETATM   31  C21 UNK     1       5.413   3.193  11.263  1.00  0.00     0.033 A 
ENDBRANCH  23  25
ENDBRANCH  20  21
ENDBRANCH   2  20
TORSDOF 5
ENDMDL
