MODEL 1
REMARK VINA RESULT:      -9.5      0.000      0.000
REMARK  6 active torsions:
REMARK  status: ('A' for Active; 'I' for Inactive)
REMARK    1  A    between atoms: C16_25  and  O1_1 
REMARK    2  A    between atoms: C5_14  and  O1_1 
REMARK    3  A    between atoms: C1_10  and  N1_7 
REMARK    4  A    between atoms: C8_17  and  N3_9 
REMARK    5  A    between atoms: C1_10  and  C5_14 
REMARK    6  A    between atoms: C10_19  and  C16_25 
ROOT
HETATM    1  O2  UNK     1      27.542  -4.679  38.688  1.00  0.00    -0.274 OA
HETATM    2  O4  UNK     1      25.351  -5.278  38.925  1.00  0.00    -0.259 OA
HETATM    3  C2  UNK     1      29.265  -6.387  38.358  1.00  0.00     0.010 A 
HETATM    4  C3  UNK     1      30.641  -6.703  38.163  1.00  0.00    -0.013 A 
HETATM    5  C4  UNK     1      31.583  -5.637  38.115  1.00  0.00    -0.025 A 
HETATM    6  C6  UNK     1      28.890  -5.049  38.494  1.00  0.00     0.090 A 
HETATM    7  C9  UNK     1      28.193  -7.384  38.427  1.00  0.00     0.039 A 
HETATM    8  C10 UNK     1      26.916  -7.027  38.612  1.00  0.00     0.115 A 
HETATM    9  C11 UNK     1      31.155  -4.309  38.258  1.00  0.00     0.015 A 
HETATM   10  C12 UNK     1      29.811  -4.010  38.447  1.00  0.00     0.039 A 
HETATM   11  C13 UNK     1      31.149  -8.017  38.011  1.00  0.00     0.013 A 
HETATM   12  C14 UNK     1      32.949  -5.906  37.925  1.00  0.00     0.012 A 
HETATM   13  C17 UNK     1      26.518  -5.614  38.755  1.00  0.00     0.304 A 
HETATM   14  C19 UNK     1      32.512  -8.266  37.822  1.00  0.00     0.001 A 
HETATM   15  C20 UNK     1      33.410  -7.211  37.778  1.00  0.00     0.001 A 
ENDROOT
BRANCH   8  16
HETATM   16  C16 UNK     1      25.935  -8.118  38.663  1.00  0.00     0.299 C 
HETATM   17  O3  UNK     1      25.901  -8.953  39.552  1.00  0.00    -0.259 OA
BRANCH  16  18
HETATM   18  O1  UNK     1      25.119  -8.016  37.585  1.00  0.00    -0.316 OA
BRANCH  18  19
HETATM   19  C5  UNK     1      24.178  -9.084  37.427  1.00  0.00     0.199 C 
BRANCH  19  20
HETATM   20  C1  UNK     1      22.823  -8.518  37.024  1.00  0.00     0.159 C 
BRANCH  20  21
HETATM   21  N1  UNK     1      21.731  -9.461  37.255  1.00  0.00    -0.313 N 
HETATM   22  C7  UNK     1      20.869  -9.428  38.304  1.00  0.00     0.103 A 
HETATM   23  C18 UNK     1      20.938  -8.401  39.363  1.00  0.00     0.091 C 
HETATM   24  N2  UNK     1      19.995 -10.408  38.234  1.00  0.00    -0.244 NA
HETATM   25  C15 UNK     1      20.325 -11.089  37.089  1.00  0.00     0.173 A 
HETATM   26  C8  UNK     1      21.405 -10.514  36.463  1.00  0.00     0.195 A 
BRANCH  26  27
HETATM   27  N3  UNK     1      22.083 -10.855  35.287  1.00  0.00    -0.096 N 
HETATM   28  O5  UNK     1      21.707 -10.370  34.181  1.00  0.00    -0.530 OA
HETATM   29  O6  UNK     1      23.070 -11.645  35.337  1.00  0.00    -0.530 OA
ENDBRANCH  26  27
ENDBRANCH  20  21
ENDBRANCH  19  20
ENDBRANCH  18  19
ENDBRANCH  16  18
ENDBRANCH   8  16
TORSDOF 6
ENDMDL
MODEL 2
REMARK VINA RESULT:      -9.5     13.458     16.023
REMARK  6 active torsions:
REMARK  status: ('A' for Active; 'I' for Inactive)
REMARK    1  A    between atoms: C16_25  and  O1_1 
REMARK    2  A    between atoms: C5_14  and  O1_1 
REMARK    3  A    between atoms: C1_10  and  N1_7 
REMARK    4  A    between atoms: C8_17  and  N3_9 
REMARK    5  A    between atoms: C1_10  and  C5_14 
REMARK    6  A    between atoms: C10_19  and  C16_25 
ROOT
HETATM    1  O2  UNK     1      20.082  -0.825  30.592  1.00  0.00    -0.274 OA
HETATM    2  O4  UNK     1      20.180   0.287  28.601  1.00  0.00    -0.259 OA
HETATM    3  C2  UNK     1      18.909   0.157  32.504  1.00  0.00     0.010 A 
HETATM    4  C3  UNK     1      18.499   0.048  33.865  1.00  0.00    -0.013 A 
HETATM    5  C4  UNK     1      18.864  -1.119  34.594  1.00  0.00    -0.025 A 
HETATM    6  C6  UNK     1      19.651  -0.880  31.935  1.00  0.00     0.090 A 
HETATM    7  C9  UNK     1      18.603   1.301  31.641  1.00  0.00     0.039 A 
HETATM    8  C10 UNK     1      19.015   1.348  30.368  1.00  0.00     0.115 A 
HETATM    9  C11 UNK     1      19.611  -2.133  33.975  1.00  0.00     0.015 A 
HETATM   10  C12 UNK     1      20.006  -2.018  32.648  1.00  0.00     0.039 A 
HETATM   11  C13 UNK     1      17.744   1.027  34.556  1.00  0.00     0.013 A 
HETATM   12  C14 UNK     1      18.480  -1.265  35.937  1.00  0.00     0.012 A 
HETATM   13  C17 UNK     1      19.798   0.252  29.765  1.00  0.00     0.304 A 
HETATM   14  C19 UNK     1      17.370   0.865  35.893  1.00  0.00     0.001 A 
HETATM   15  C20 UNK     1      17.737  -0.281  36.582  1.00  0.00     0.001 A 
ENDROOT
BRANCH   8  16
HETATM   16  C16 UNK     1      18.644   2.547  29.606  1.00  0.00     0.299 C 
HETATM   17  O3  UNK     1      17.898   2.527  28.641  1.00  0.00    -0.259 OA
BRANCH  16  18
HETATM   18  O1  UNK     1      19.261   3.620  30.160  1.00  0.00    -0.316 OA
BRANCH  18  19
HETATM   19  C5  UNK     1      18.400   4.530  30.851  1.00  0.00     0.199 C 
BRANCH  19  20
HETATM   20  C1  UNK     1      18.912   5.953  30.676  1.00  0.00     0.159 C 
BRANCH  20  21
HETATM   21  N1  UNK     1      18.862   6.723  31.918  1.00  0.00    -0.313 N 
HETATM   22  C7  UNK     1      19.885   6.866  32.799  1.00  0.00     0.103 A 
HETATM   23  C18 UNK     1      21.207   6.240  32.597  1.00  0.00     0.091 C 
HETATM   24  N2  UNK     1      19.534   7.619  33.819  1.00  0.00    -0.244 NA
HETATM   25  C15 UNK     1      18.230   7.963  33.567  1.00  0.00     0.173 A 
HETATM   26  C8  UNK     1      17.792   7.415  32.384  1.00  0.00     0.195 A 
BRANCH  26  27
HETATM   27  N3  UNK     1      16.557   7.491  31.730  1.00  0.00    -0.096 N 
HETATM   28  O5  UNK     1      15.627   6.695  32.048  1.00  0.00    -0.530 OA
HETATM   29  O6  UNK     1      16.377   8.358  30.826  1.00  0.00    -0.530 OA
ENDBRANCH  26  27
ENDBRANCH  20  21
ENDBRANCH  19  20
ENDBRANCH  18  19
ENDBRANCH  16  18
ENDBRANCH   8  16
TORSDOF 6
ENDMDL
MODEL 3
REMARK VINA RESULT:      -9.4      8.733     11.132
REMARK  6 active torsions:
REMARK  status: ('A' for Active; 'I' for Inactive)
REMARK    1  A    between atoms: C16_25  and  O1_1 
REMARK    2  A    between atoms: C5_14  and  O1_1 
REMARK    3  A    between atoms: C1_10  and  N1_7 
REMARK    4  A    between atoms: C8_17  and  N3_9 
REMARK    5  A    between atoms: C1_10  and  C5_14 
REMARK    6  A    between atoms: C10_19  and  C16_25 
ROOT
HETATM    1  O2  UNK     1      17.825   1.689  34.229  1.00  0.00    -0.274 OA
HETATM    2  O4  UNK     1      17.299   1.182  36.392  1.00  0.00    -0.259 OA
HETATM    3  C2  UNK     1      18.840   0.004  32.772  1.00  0.00     0.010 A 
HETATM    4  C3  UNK     1      19.361  -0.340  31.490  1.00  0.00    -0.013 A 
HETATM    5  C4  UNK     1      19.365   0.652  30.470  1.00  0.00    -0.025 A 
HETATM    6  C6  UNK     1      18.353   1.296  32.981  1.00  0.00     0.090 A 
HETATM    7  C9  UNK     1      18.777  -0.918  33.909  1.00  0.00     0.039 A 
HETATM    8  C10 UNK     1      18.276  -0.539  35.091  1.00  0.00     0.115 A 
HETATM    9  C11 UNK     1      18.865   1.937  30.731  1.00  0.00     0.015 A 
HETATM   10  C12 UNK     1      18.358   2.262  31.983  1.00  0.00     0.039 A 
HETATM   11  C13 UNK     1      19.883  -1.613  31.151  1.00  0.00     0.013 A 
HETATM   12  C14 UNK     1      19.870   0.354  29.193  1.00  0.00     0.012 A 
HETATM   13  C17 UNK     1      17.759   0.825  35.313  1.00  0.00     0.304 A 
HETATM   14  C19 UNK     1      20.381  -1.892  29.875  1.00  0.00     0.001 A 
HETATM   15  C20 UNK     1      20.374  -0.909  28.897  1.00  0.00     0.001 A 
ENDROOT
BRANCH   8  16
HETATM   16  C16 UNK     1      18.266  -1.554  36.152  1.00  0.00     0.299 C 
HETATM   17  O3  UNK     1      17.428  -1.594  37.037  1.00  0.00    -0.259 OA
BRANCH  16  18
HETATM   18  O1  UNK     1      19.315  -2.391  35.959  1.00  0.00    -0.316 OA
BRANCH  18  19
HETATM   19  C5  UNK     1      19.406  -3.479  36.885  1.00  0.00     0.199 C 
BRANCH  19  20
HETATM   20  C1  UNK     1      19.998  -4.696  36.188  1.00  0.00     0.159 C 
BRANCH  20  21
HETATM   21  N1  UNK     1      19.936  -5.901  37.015  1.00  0.00    -0.313 N 
HETATM   22  C7  UNK     1      20.845  -6.256  37.960  1.00  0.00     0.103 A 
HETATM   23  C18 UNK     1      22.036  -5.440  38.270  1.00  0.00     0.091 C 
HETATM   24  N2  UNK     1      20.514  -7.391  38.536  1.00  0.00    -0.244 NA
HETATM   25  C15 UNK     1      19.345  -7.766  37.923  1.00  0.00     0.173 A 
HETATM   26  C8  UNK     1      18.967  -6.849  36.971  1.00  0.00     0.195 A 
BRANCH  26  27
HETATM   27  N3  UNK     1      17.864  -6.810  36.109  1.00  0.00    -0.096 N 
HETATM   28  O5  UNK     1      17.950  -7.321  34.956  1.00  0.00    -0.530 OA
HETATM   29  O6  UNK     1      16.788  -6.264  36.490  1.00  0.00    -0.530 OA
ENDBRANCH  26  27
ENDBRANCH  20  21
ENDBRANCH  19  20
ENDBRANCH  18  19
ENDBRANCH  16  18
ENDBRANCH   8  16
TORSDOF 6
ENDMDL
MODEL 4
REMARK VINA RESULT:      -9.4     14.570     16.874
REMARK  6 active torsions:
REMARK  status: ('A' for Active; 'I' for Inactive)
REMARK    1  A    between atoms: C16_25  and  O1_1 
REMARK    2  A    between atoms: C5_14  and  O1_1 
REMARK    3  A    between atoms: C1_10  and  N1_7 
REMARK    4  A    between atoms: C8_17  and  N3_9 
REMARK    5  A    between atoms: C1_10  and  C5_14 
REMARK    6  A    between atoms: C10_19  and  C16_25 
ROOT
HETATM    1  O2  UNK     1      18.934   0.347  31.408  1.00  0.00    -0.274 OA
HETATM    2  O4  UNK     1      19.022   1.758  29.615  1.00  0.00    -0.259 OA
HETATM    3  C2  UNK     1      18.373   1.203  33.632  1.00  0.00     0.010 A 
HETATM    4  C3  UNK     1      18.160   0.940  35.017  1.00  0.00    -0.013 A 
HETATM    5  C4  UNK     1      18.306  -0.396  35.486  1.00  0.00    -0.025 A 
HETATM    6  C6  UNK     1      18.713   0.144  32.787  1.00  0.00     0.090 A 
HETATM    7  C9  UNK     1      18.257   2.528  33.018  1.00  0.00     0.039 A 
HETATM    8  C10 UNK     1      18.468   2.714  31.709  1.00  0.00     0.115 A 
HETATM    9  C11 UNK     1      18.650  -1.423  34.595  1.00  0.00     0.015 A 
HETATM   10  C12 UNK     1      18.854  -1.159  33.247  1.00  0.00     0.039 A 
HETATM   11  C13 UNK     1      17.811   1.923  35.975  1.00  0.00     0.013 A 
HETATM   12  C14 UNK     1      18.106  -0.696  36.844  1.00  0.00     0.012 A 
HETATM   13  C17 UNK     1      18.826   1.597  30.814  1.00  0.00     0.304 A 
HETATM   14  C19 UNK     1      17.615   1.607  37.323  1.00  0.00     0.001 A 
HETATM   15  C20 UNK     1      17.762   0.298  37.756  1.00  0.00     0.001 A 
ENDROOT
BRANCH   8  16
HETATM   16  C16 UNK     1      18.321   4.088  31.213  1.00  0.00     0.299 C 
HETATM   17  O3  UNK     1      18.973   4.543  30.288  1.00  0.00    -0.259 OA
BRANCH  16  18
HETATM   18  O1  UNK     1      17.367   4.713  31.947  1.00  0.00    -0.316 OA
BRANCH  18  19
HETATM   19  C5  UNK     1      17.543   6.125  32.102  1.00  0.00     0.199 C 
BRANCH  19  20
HETATM   20  C1  UNK     1      16.864   6.588  33.383  1.00  0.00     0.159 C 
BRANCH  20  21
HETATM   21  N1  UNK     1      16.314   7.938  33.270  1.00  0.00    -0.313 N 
HETATM   22  C7  UNK     1      16.974   9.086  33.574  1.00  0.00     0.103 A 
HETATM   23  C18 UNK     1      18.365   9.102  34.069  1.00  0.00     0.091 C 
HETATM   24  N2  UNK     1      16.215  10.140  33.366  1.00  0.00    -0.244 NA
HETATM   25  C15 UNK     1      15.024   9.631  32.912  1.00  0.00     0.173 A 
HETATM   26  C8  UNK     1      15.066   8.258  32.844  1.00  0.00     0.195 A 
BRANCH  26  27
HETATM   27  N3  UNK     1      14.106   7.321  32.445  1.00  0.00    -0.096 N 
HETATM   28  O5  UNK     1      14.060   6.942  31.239  1.00  0.00    -0.530 OA
HETATM   29  O6  UNK     1      13.289   6.858  33.293  1.00  0.00    -0.530 OA
ENDBRANCH  26  27
ENDBRANCH  20  21
ENDBRANCH  19  20
ENDBRANCH  18  19
ENDBRANCH  16  18
ENDBRANCH   8  16
TORSDOF 6
ENDMDL
MODEL 5
REMARK VINA RESULT:      -9.3      1.821      2.659
REMARK  6 active torsions:
REMARK  status: ('A' for Active; 'I' for Inactive)
REMARK    1  A    between atoms: C16_25  and  O1_1 
REMARK    2  A    between atoms: C5_14  and  O1_1 
REMARK    3  A    between atoms: C1_10  and  N1_7 
REMARK    4  A    between atoms: C8_17  and  N3_9 
REMARK    5  A    between atoms: C1_10  and  C5_14 
REMARK    6  A    between atoms: C10_19  and  C16_25 
ROOT
HETATM    1  O2  UNK     1      27.294  -4.719  38.744  1.00  0.00    -0.274 OA
HETATM    2  O4  UNK     1      25.081  -5.225  38.991  1.00  0.00    -0.259 OA
HETATM    3  C2  UNK     1      28.946  -6.501  38.444  1.00  0.00     0.010 A 
HETATM    4  C3  UNK     1      30.309  -6.875  38.255  1.00  0.00    -0.013 A 
HETATM    5  C4  UNK     1      31.293  -5.849  38.189  1.00  0.00    -0.025 A 
HETATM    6  C6  UNK     1      28.626  -5.146  38.557  1.00  0.00     0.090 A 
HETATM    7  C9  UNK     1      27.835  -7.452  38.531  1.00  0.00     0.039 A 
HETATM    8  C10 UNK     1      26.574  -7.041  38.709  1.00  0.00     0.115 A 
HETATM    9  C11 UNK     1      30.918  -4.502  38.309  1.00  0.00     0.015 A 
HETATM   10  C12 UNK     1      29.588  -4.146  38.492  1.00  0.00     0.039 A 
HETATM   11  C13 UNK     1      30.763  -8.211  38.126  1.00  0.00     0.013 A 
HETATM   12  C14 UNK     1      32.646  -6.176  38.004  1.00  0.00     0.012 A 
HETATM   13  C17 UNK     1      26.233  -5.610  38.827  1.00  0.00     0.304 A 
HETATM   14  C19 UNK     1      32.114  -8.518  37.941  1.00  0.00     0.001 A 
HETATM   15  C20 UNK     1      33.054  -7.501  37.880  1.00  0.00     0.001 A 
ENDROOT
BRANCH   8  16
HETATM   16  C16 UNK     1      25.549  -8.091  38.778  1.00  0.00     0.299 C 
HETATM   17  O3  UNK     1      25.655  -9.091  39.468  1.00  0.00    -0.259 OA
BRANCH  16  18
HETATM   18  O1  UNK     1      24.518  -7.743  37.969  1.00  0.00    -0.316 OA
BRANCH  18  19
HETATM   19  C5  UNK     1      23.883  -8.830  37.288  1.00  0.00     0.199 C 
BRANCH  19  20
HETATM   20  C1  UNK     1      22.391  -8.823  37.593  1.00  0.00     0.159 C 
BRANCH  20  21
HETATM   21  N1  UNK     1      21.600  -8.247  36.507  1.00  0.00    -0.313 N 
HETATM   22  C7  UNK     1      21.319  -8.857  35.327  1.00  0.00     0.103 A 
HETATM   23  C18 UNK     1      21.797 -10.214  34.994  1.00  0.00     0.091 C 
HETATM   24  N2  UNK     1      20.585  -8.085  34.555  1.00  0.00    -0.244 NA
HETATM   25  C15 UNK     1      20.397  -6.938  35.285  1.00  0.00     0.173 A 
HETATM   26  C8  UNK     1      21.022  -7.019  36.507  1.00  0.00     0.195 A 
BRANCH  26  27
HETATM   27  N3  UNK     1      21.103  -6.110  37.567  1.00  0.00    -0.096 N 
HETATM   28  O5  UNK     1      22.025  -5.244  37.584  1.00  0.00    -0.530 OA
HETATM   29  O6  UNK     1      20.252  -6.158  38.503  1.00  0.00    -0.530 OA
ENDBRANCH  26  27
ENDBRANCH  20  21
ENDBRANCH  19  20
ENDBRANCH  18  19
ENDBRANCH  16  18
ENDBRANCH   8  16
TORSDOF 6
ENDMDL
MODEL 6
REMARK VINA RESULT:      -9.2     21.956     24.195
REMARK  6 active torsions:
REMARK  status: ('A' for Active; 'I' for Inactive)
REMARK    1  A    between atoms: C16_25  and  O1_1 
REMARK    2  A    between atoms: C5_14  and  O1_1 
REMARK    3  A    between atoms: C1_10  and  N1_7 
REMARK    4  A    between atoms: C8_17  and  N3_9 
REMARK    5  A    between atoms: C1_10  and  C5_14 
REMARK    6  A    between atoms: C10_19  and  C16_25 
ROOT
HETATM    1  O2  UNK     1      19.234   0.858  14.833  1.00  0.00    -0.274 OA
HETATM    2  O4  UNK     1      19.022  -0.774  13.251  1.00  0.00    -0.259 OA
HETATM    3  C2  UNK     1      19.138   0.296  17.214  1.00  0.00     0.010 A 
HETATM    4  C3  UNK     1      19.188   0.735  18.569  1.00  0.00    -0.013 A 
HETATM    5  C4  UNK     1      19.376   2.122  18.828  1.00  0.00    -0.025 A 
HETATM    6  C6  UNK     1      19.275   1.238  16.192  1.00  0.00     0.090 A 
HETATM    7  C9  UNK     1      18.948  -1.099  16.807  1.00  0.00     0.039 A 
HETATM    8  C10 UNK     1      18.910  -1.452  15.516  1.00  0.00     0.115 A 
HETATM    9  C11 UNK     1      19.508   3.028  17.765  1.00  0.00     0.015 A 
HETATM   10  C12 UNK     1      19.459   2.591  16.447  1.00  0.00     0.039 A 
HETATM   11  C13 UNK     1      19.062  -0.117  19.694  1.00  0.00     0.013 A 
HETATM   12  C14 UNK     1      19.431   2.596  20.149  1.00  0.00     0.012 A 
HETATM   13  C17 UNK     1      19.056  -0.459  14.435  1.00  0.00     0.304 A 
HETATM   14  C19 UNK     1      19.120   0.371  21.003  1.00  0.00     0.001 A 
HETATM   15  C20 UNK     1      19.305   1.727  21.229  1.00  0.00     0.001 A 
ENDROOT
BRANCH   8  16
HETATM   16  C16 UNK     1      18.716  -2.881  15.237  1.00  0.00     0.299 C 
HETATM   17  O3  UNK     1      17.861  -3.309  14.479  1.00  0.00    -0.259 OA
BRANCH  16  18
HETATM   18  O1  UNK     1      19.629  -3.588  15.947  1.00  0.00    -0.316 OA
BRANCH  18  19
HETATM   19  C5  UNK     1      20.545  -4.361  15.166  1.00  0.00     0.199 C 
BRANCH  19  20
HETATM   20  C1  UNK     1      20.355  -5.841  15.469  1.00  0.00     0.159 C 
BRANCH  20  21
HETATM   21  N1  UNK     1      19.402  -6.481  14.562  1.00  0.00    -0.313 N 
HETATM   22  C7  UNK     1      18.090  -6.707  14.830  1.00  0.00     0.103 A 
HETATM   23  C18 UNK     1      17.456  -6.322  16.107  1.00  0.00     0.091 C 
HETATM   24  N2  UNK     1      17.493  -7.298  13.818  1.00  0.00    -0.244 NA
HETATM   25  C15 UNK     1      18.475  -7.449  12.872  1.00  0.00     0.173 A 
HETATM   26  C8  UNK     1      19.675  -6.945  13.317  1.00  0.00     0.195 A 
BRANCH  26  27
HETATM   27  N3  UNK     1      20.933  -6.878  12.709  1.00  0.00    -0.096 N 
HETATM   28  O5  UNK     1      21.870  -7.624  13.117  1.00  0.00    -0.530 OA
HETATM   29  O6  UNK     1      21.127  -6.072  11.753  1.00  0.00    -0.530 OA
ENDBRANCH  26  27
ENDBRANCH  20  21
ENDBRANCH  19  20
ENDBRANCH  18  19
ENDBRANCH  16  18
ENDBRANCH   8  16
TORSDOF 6
ENDMDL
MODEL 7
REMARK VINA RESULT:      -9.2      6.962      9.664
REMARK  6 active torsions:
REMARK  status: ('A' for Active; 'I' for Inactive)
REMARK    1  A    between atoms: C16_25  and  O1_1 
REMARK    2  A    between atoms: C5_14  and  O1_1 
REMARK    3  A    between atoms: C1_10  and  N1_7 
REMARK    4  A    between atoms: C8_17  and  N3_9 
REMARK    5  A    between atoms: C1_10  and  C5_14 
REMARK    6  A    between atoms: C10_19  and  C16_25 
ROOT
HETATM    1  O2  UNK     1      18.543  -0.775  35.755  1.00  0.00    -0.274 OA
HETATM    2  O4  UNK     1      18.685  -1.957  37.703  1.00  0.00    -0.259 OA
HETATM    3  C2  UNK     1      19.548  -1.647  33.700  1.00  0.00     0.010 A 
HETATM    4  C3  UNK     1      19.813  -1.477  32.309  1.00  0.00    -0.013 A 
HETATM    5  C4  UNK     1      19.338  -0.300  31.666  1.00  0.00    -0.025 A 
HETATM    6  C6  UNK     1      18.834  -0.657  34.379  1.00  0.00     0.090 A 
HETATM    7  C9  UNK     1      19.978  -2.808  34.484  1.00  0.00     0.039 A 
HETATM    8  C10 UNK     1      19.700  -2.913  35.789  1.00  0.00     0.115 A 
HETATM    9  C11 UNK     1      18.626   0.665  32.394  1.00  0.00     0.015 A 
HETATM   10  C12 UNK     1      18.372   0.491  33.749  1.00  0.00     0.039 A 
HETATM   11  C13 UNK     1      20.523  -2.405  31.509  1.00  0.00     0.013 A 
HETATM   12  C14 UNK     1      19.579  -0.094  30.297  1.00  0.00     0.012 A 
HETATM   13  C17 UNK     1      18.944  -1.869  36.508  1.00  0.00     0.304 A 
HETATM   14  C19 UNK     1      20.753  -2.185  30.147  1.00  0.00     0.001 A 
HETATM   15  C20 UNK     1      20.280  -1.030  29.543  1.00  0.00     0.001 A 
ENDROOT
BRANCH   8  16
HETATM   16  C16 UNK     1      20.184  -4.124  36.464  1.00  0.00     0.299 C 
HETATM   17  O3  UNK     1      21.303  -4.228  36.938  1.00  0.00    -0.259 OA
BRANCH  16  18
HETATM   18  O1  UNK     1      19.193  -5.049  36.456  1.00  0.00    -0.316 OA
BRANCH  18  19
HETATM   19  C5  UNK     1      19.439  -6.201  35.644  1.00  0.00     0.199 C 
BRANCH  19  20
HETATM   20  C1  UNK     1      19.419  -7.453  36.510  1.00  0.00     0.159 C 
BRANCH  20  21
HETATM   21  N1  UNK     1      20.753  -7.841  36.967  1.00  0.00    -0.313 N 
HETATM   22  C7  UNK     1      21.282  -7.556  38.185  1.00  0.00     0.103 A 
HETATM   23  C18 UNK     1      20.548  -6.799  39.219  1.00  0.00     0.091 C 
HETATM   24  N2  UNK     1      22.500  -8.040  38.299  1.00  0.00    -0.244 NA
HETATM   25  C15 UNK     1      22.747  -8.655  37.097  1.00  0.00     0.173 A 
HETATM   26  C8  UNK     1      21.668  -8.543  36.252  1.00  0.00     0.195 A 
BRANCH  26  27
HETATM   27  N3  UNK     1      21.462  -9.006  34.948  1.00  0.00    -0.096 N 
HETATM   28  O5  UNK     1      21.426 -10.250  34.720  1.00  0.00    -0.530 OA
HETATM   29  O6  UNK     1      21.311  -8.178  34.003  1.00  0.00    -0.530 OA
ENDBRANCH  26  27
ENDBRANCH  20  21
ENDBRANCH  19  20
ENDBRANCH  18  19
ENDBRANCH  16  18
ENDBRANCH   8  16
TORSDOF 6
ENDMDL
MODEL 8
REMARK VINA RESULT:      -9.1      8.342     10.852
REMARK  6 active torsions:
REMARK  status: ('A' for Active; 'I' for Inactive)
REMARK    1  A    between atoms: C16_25  and  O1_1 
REMARK    2  A    between atoms: C5_14  and  O1_1 
REMARK    3  A    between atoms: C1_10  and  N1_7 
REMARK    4  A    between atoms: C8_17  and  N3_9 
REMARK    5  A    between atoms: C1_10  and  C5_14 
REMARK    6  A    between atoms: C10_19  and  C16_25 
ROOT
HETATM    1  O2  UNK     1      17.994   1.205  34.577  1.00  0.00    -0.274 OA
HETATM    2  O4  UNK     1      17.622   0.469  36.706  1.00  0.00    -0.259 OA
HETATM    3  C2  UNK     1      18.969  -0.290  32.901  1.00  0.00     0.010 A 
HETATM    4  C3  UNK     1      19.420  -0.486  31.563  1.00  0.00    -0.013 A 
HETATM    5  C4  UNK     1      19.327   0.600  30.648  1.00  0.00    -0.025 A 
HETATM    6  C6  UNK     1      18.455   0.956  33.266  1.00  0.00     0.090 A 
HETATM    7  C9  UNK     1      19.008  -1.320  33.943  1.00  0.00     0.039 A 
HETATM    8  C10 UNK     1      18.570  -1.077  35.184  1.00  0.00     0.115 A 
HETATM    9  C11 UNK     1      18.802   1.832  31.066  1.00  0.00     0.015 A 
HETATM   10  C12 UNK     1      18.365   2.015  32.371  1.00  0.00     0.039 A 
HETATM   11  C13 UNK     1      19.960  -1.699  31.068  1.00  0.00     0.013 A 
HETATM   12  C14 UNK     1      19.760   0.448  29.320  1.00  0.00     0.012 A 
HETATM   13  C17 UNK     1      18.025   0.238  35.571  1.00  0.00     0.304 A 
HETATM   14  C19 UNK     1      20.385  -1.833  29.743  1.00  0.00     0.001 A 
HETATM   15  C20 UNK     1      20.285  -0.761  28.871  1.00  0.00     0.001 A 
ENDROOT
BRANCH   8  16
HETATM   16  C16 UNK     1      18.660  -2.191  36.137  1.00  0.00     0.299 C 
HETATM   17  O3  UNK     1      17.760  -2.497  36.901  1.00  0.00    -0.259 OA
BRANCH  16  18
HETATM   18  O1  UNK     1      19.875  -2.778  36.003  1.00  0.00    -0.316 OA
BRANCH  18  19
HETATM   19  C5  UNK     1      20.154  -3.826  36.937  1.00  0.00     0.199 C 
BRANCH  19  20
HETATM   20  C1  UNK     1      20.175  -5.165  36.213  1.00  0.00     0.159 C 
BRANCH  20  21
HETATM   21  N1  UNK     1      19.817  -6.281  37.088  1.00  0.00    -0.313 N 
HETATM   22  C7  UNK     1      18.565  -6.778  37.260  1.00  0.00     0.103 A 
HETATM   23  C18 UNK     1      17.385  -6.232  36.560  1.00  0.00     0.091 C 
HETATM   24  N2  UNK     1      18.564  -7.782  38.109  1.00  0.00    -0.244 NA
HETATM   25  C15 UNK     1      19.876  -7.921  38.489  1.00  0.00     0.173 A 
HETATM   26  C8  UNK     1      20.674  -6.993  37.862  1.00  0.00     0.195 A 
BRANCH  26  27
HETATM   27  N3  UNK     1      22.052  -6.757  37.936  1.00  0.00    -0.096 N 
HETATM   28  O5  UNK     1      22.859  -7.575  37.408  1.00  0.00    -0.530 OA
HETATM   29  O6  UNK     1      22.482  -5.726  38.530  1.00  0.00    -0.530 OA
ENDBRANCH  26  27
ENDBRANCH  20  21
ENDBRANCH  19  20
ENDBRANCH  18  19
ENDBRANCH  16  18
ENDBRANCH   8  16
TORSDOF 6
ENDMDL
MODEL 9
REMARK VINA RESULT:      -9.0     14.124     16.672
REMARK  6 active torsions:
REMARK  status: ('A' for Active; 'I' for Inactive)
REMARK    1  A    between atoms: C16_25  and  O1_1 
REMARK    2  A    between atoms: C5_14  and  O1_1 
REMARK    3  A    between atoms: C1_10  and  N1_7 
REMARK    4  A    between atoms: C8_17  and  N3_9 
REMARK    5  A    between atoms: C1_10  and  C5_14 
REMARK    6  A    between atoms: C10_19  and  C16_25 
ROOT
HETATM    1  O2  UNK     1      18.811   0.714  31.434  1.00  0.00    -0.274 OA
HETATM    2  O4  UNK     1      18.876   2.292  29.785  1.00  0.00    -0.259 OA
HETATM    3  C2  UNK     1      18.304   1.352  33.742  1.00  0.00     0.010 A 
HETATM    4  C3  UNK     1      18.117   0.958  35.099  1.00  0.00    -0.013 A 
HETATM    5  C4  UNK     1      18.260  -0.419  35.433  1.00  0.00    -0.025 A 
HETATM    6  C6  UNK     1      18.618   0.379  32.791  1.00  0.00     0.090 A 
HETATM    7  C9  UNK     1      18.188   2.732  33.262  1.00  0.00     0.039 A 
HETATM    8  C10 UNK     1      18.374   3.043  31.973  1.00  0.00     0.115 A 
HETATM    9  C11 UNK     1      18.577  -1.357  34.439  1.00  0.00     0.015 A 
HETATM   10  C12 UNK     1      18.756  -0.964  33.119  1.00  0.00     0.039 A 
HETATM   11  C13 UNK     1      17.797   1.845  36.156  1.00  0.00     0.013 A 
HETATM   12  C14 UNK     1      18.085  -0.849  36.758  1.00  0.00     0.012 A 
HETATM   13  C17 UNK     1      18.704   2.016  30.967  1.00  0.00     0.304 A 
HETATM   14  C19 UNK     1      17.625   1.400  37.470  1.00  0.00     0.001 A 
HETATM   15  C20 UNK     1      17.769   0.054  37.770  1.00  0.00     0.001 A 
ENDROOT
BRANCH   8  16
HETATM   16  C16 UNK     1      18.229   4.460  31.617  1.00  0.00     0.299 C 
HETATM   17  O3  UNK     1      19.030   5.066  30.924  1.00  0.00    -0.259 OA
BRANCH  16  18
HETATM   18  O1  UNK     1      17.089   4.934  32.178  1.00  0.00    -0.316 OA
BRANCH  18  19
HETATM   19  C5  UNK     1      16.889   6.345  32.057  1.00  0.00     0.199 C 
BRANCH  19  20
HETATM   20  C1  UNK     1      16.685   6.955  33.437  1.00  0.00     0.159 C 
BRANCH  20  21
HETATM   21  N1  UNK     1      17.480   8.165  33.638  1.00  0.00    -0.313 N 
HETATM   22  C7  UNK     1      16.990   9.431  33.686  1.00  0.00     0.103 A 
HETATM   23  C18 UNK     1      15.553   9.739  33.536  1.00  0.00     0.091 C 
HETATM   24  N2  UNK     1      17.952  10.307  33.881  1.00  0.00    -0.244 NA
HETATM   25  C15 UNK     1      19.098   9.556  33.958  1.00  0.00     0.173 A 
HETATM   26  C8  UNK     1      18.825   8.217  33.810  1.00  0.00     0.195 A 
BRANCH  26  27
HETATM   27  N3  UNK     1      19.662   7.095  33.818  1.00  0.00    -0.096 N 
HETATM   28  O5  UNK     1      19.422   6.137  34.608  1.00  0.00    -0.530 OA
HETATM   29  O6  UNK     1      20.653   7.045  33.032  1.00  0.00    -0.530 OA
ENDBRANCH  26  27
ENDBRANCH  20  21
ENDBRANCH  19  20
ENDBRANCH  18  19
ENDBRANCH  16  18
ENDBRANCH   8  16
TORSDOF 6
ENDMDL
MODEL 10
REMARK VINA RESULT:      -9.0     33.244     36.012
REMARK  6 active torsions:
REMARK  status: ('A' for Active; 'I' for Inactive)
REMARK    1  A    between atoms: C16_25  and  O1_1 
REMARK    2  A    between atoms: C5_14  and  O1_1 
REMARK    3  A    between atoms: C1_10  and  N1_7 
REMARK    4  A    between atoms: C8_17  and  N3_9 
REMARK    5  A    between atoms: C1_10  and  C5_14 
REMARK    6  A    between atoms: C10_19  and  C16_25 
ROOT
HETATM    1  O2  UNK     1       5.960   3.336  10.937  1.00  0.00    -0.274 OA
HETATM    2  O4  UNK     1       6.593   4.252   8.944  1.00  0.00    -0.259 OA
HETATM    3  C2  UNK     1       5.828   4.720  12.952  1.00  0.00     0.010 A 
HETATM    4  C3  UNK     1       5.546   4.813  14.346  1.00  0.00    -0.013 A 
HETATM    5  C4  UNK     1       5.139   3.638  15.038  1.00  0.00    -0.025 A 
HETATM    6  C6  UNK     1       5.695   3.484  12.315  1.00  0.00     0.090 A 
HETATM    7  C9  UNK     1       6.257   5.849  12.121  1.00  0.00     0.039 A 
HETATM    8  C10 UNK     1       6.507   5.701  10.815  1.00  0.00     0.115 A 
HETATM    9  C11 UNK     1       5.020   2.420  14.351  1.00  0.00     0.015 A 
HETATM   10  C12 UNK     1       5.297   2.339  12.992  1.00  0.00     0.039 A 
HETATM   11  C13 UNK     1       5.642   6.005  15.107  1.00  0.00     0.013 A 
HETATM   12  C14 UNK     1       4.851   3.687  16.412  1.00  0.00     0.012 A 
HETATM   13  C17 UNK     1       6.366   4.397  10.140  1.00  0.00     0.304 A 
HETATM   14  C19 UNK     1       5.352   6.036  16.474  1.00  0.00     0.001 A 
HETATM   15  C20 UNK     1       4.956   4.878  17.125  1.00  0.00     0.001 A 
ENDROOT
BRANCH   8  16
HETATM   16  C16 UNK     1       6.928   6.907  10.091  1.00  0.00     0.299 C 
HETATM   17  O3  UNK     1       6.161   7.616   9.461  1.00  0.00    -0.259 OA
BRANCH  16  18
HETATM   18  O1  UNK     1       8.265   7.065  10.255  1.00  0.00    -0.316 OA
BRANCH  18  19
HETATM   19  C5  UNK     1       9.011   7.246   9.047  1.00  0.00     0.199 C 
BRANCH  19  20
HETATM   20  C1  UNK     1       9.780   5.972   8.724  1.00  0.00     0.159 C 
BRANCH  20  21
HETATM   21  N1  UNK     1      10.966   6.225   7.907  1.00  0.00    -0.313 N 
HETATM   22  C7  UNK     1      10.988   6.297   6.551  1.00  0.00     0.103 A 
HETATM   23  C18 UNK     1       9.779   6.123   5.721  1.00  0.00     0.091 C 
HETATM   24  N2  UNK     1      12.202   6.538   6.107  1.00  0.00    -0.244 NA
HETATM   25  C15 UNK     1      12.978   6.620   7.236  1.00  0.00     0.173 A 
HETATM   26  C8  UNK     1      12.225   6.428   8.370  1.00  0.00     0.195 A 
BRANCH  26  27
HETATM   27  N3  UNK     1      12.576   6.424   9.725  1.00  0.00    -0.096 N 
HETATM   28  O5  UNK     1      13.007   5.361  10.259  1.00  0.00    -0.530 OA
HETATM   29  O6  UNK     1      12.463   7.484  10.407  1.00  0.00    -0.530 OA
ENDBRANCH  26  27
ENDBRANCH  20  21
ENDBRANCH  19  20
ENDBRANCH  18  19
ENDBRANCH  16  18
ENDBRANCH   8  16
TORSDOF 6
ENDMDL
