MODEL 1
REMARK VINA RESULT:      -9.1      0.000      0.000
REMARK  6 active torsions:
REMARK  status: ('A' for Active; 'I' for Inactive)
REMARK    1  A    between atoms: C1_7  and  O1_4 
REMARK    2  A    between atoms: C4_10  and  O1_4 
REMARK    3  A    between atoms: C3_9  and  O2_5 
REMARK    4  A    between atoms: C2_8  and  C9_15 
REMARK    5  A    between atoms: C4_10  and  C6_12 
REMARK    6  A    between atoms: C10_16  and  C11_17 
ROOT
HETATM    1  N1  UNK     1      17.912   2.586  33.812  1.00  0.00    -0.191 NA
HETATM    2  C9  UNK     1      18.464   4.559  31.038  1.00  0.00     0.036 C 
HETATM    3  C10 UNK     1      18.429   3.235  31.349  1.00  0.00     0.055 C 
HETATM    4  C23 UNK     1      18.142   2.886  32.715  1.00  0.00     0.100 C 
ENDROOT
BRANCH   3   5
HETATM    5  C11 UNK     1      18.657   2.171  30.384  1.00  0.00    -0.015 A 
HETATM    6  C16 UNK     1      17.956   2.162  29.178  1.00  0.00     0.016 A 
HETATM    7  C19 UNK     1      18.174   1.142  28.252  1.00  0.00     0.043 A 
HETATM    8  C21 UNK     1      19.093   0.131  28.531  1.00  0.00     0.116 A 
HETATM    9  C20 UNK     1      19.795   0.141  29.736  1.00  0.00     0.043 A 
HETATM   10  F1  UNK     1      19.303  -0.848  27.642  1.00  0.00    -0.206 F 
HETATM   11  C17 UNK     1      19.577   1.161  30.663  1.00  0.00     0.016 A 
ENDBRANCH   3   5
BRANCH   2  12
HETATM   12  C2  UNK     1      18.233   5.665  31.979  1.00  0.00    -0.015 A 
HETATM   13  C5  UNK     1      16.915   5.939  32.324  1.00  0.00     0.052 A 
HETATM   14  C3  UNK     1      16.638   6.978  33.212  1.00  0.00     0.102 A 
HETATM   15  C1  UNK     1      17.680   7.733  33.750  1.00  0.00     0.103 A 
HETATM   16  C7  UNK     1      19.000   7.449  33.398  1.00  0.00     0.059 A 
HETATM   17  C8  UNK     1      19.277   6.411  32.509  1.00  0.00     0.024 A 
HETATM   18 Br1  UNK     1      21.097   6.079  32.071  1.00  0.00    -0.050 Br
BRANCH  14  19
HETATM   19  O2  UNK     1      15.345   7.245  33.549  1.00  0.00    -0.353 OA
HETATM   20  C22 UNK     1      14.516   7.331  32.380  1.00  0.00     0.210 C 
ENDBRANCH  14  19
BRANCH  15  21
HETATM   21  O1  UNK     1      17.422   8.750  34.619  1.00  0.00    -0.344 OA
BRANCH  21  22
HETATM   22  C4  UNK     1      17.255   9.994  33.920  1.00  0.00     0.214 C 
BRANCH  22  23
HETATM   23  C6  UNK     1      16.270  10.846  34.667  1.00  0.00    -0.034 A 
HETATM   24  C12 UNK     1      16.594  12.161  34.978  1.00  0.00     0.011 A 
HETATM   25  C14 UNK     1      15.677  12.952  35.671  1.00  0.00     0.024 A 
HETATM   26  C18 UNK     1      14.444  12.422  36.049  1.00  0.00     0.034 A 
HETATM   27  C15 UNK     1      14.127  11.100  35.734  1.00  0.00     0.024 A 
HETATM   28 Cl1  UNK     1      13.314  13.397  36.905  1.00  0.00    -0.084 Cl
HETATM   29  C13 UNK     1      15.042  10.310  35.041  1.00  0.00     0.011 A 
ENDBRANCH  22  23
ENDBRANCH  21  22
ENDBRANCH  15  21
ENDBRANCH   2  12
TORSDOF 6
ENDMDL
MODEL 2
REMARK VINA RESULT:      -9.1      1.082      1.512
REMARK  6 active torsions:
REMARK  status: ('A' for Active; 'I' for Inactive)
REMARK    1  A    between atoms: C1_7  and  O1_4 
REMARK    2  A    between atoms: C4_10  and  O1_4 
REMARK    3  A    between atoms: C3_9  and  O2_5 
REMARK    4  A    between atoms: C2_8  and  C9_15 
REMARK    5  A    between atoms: C4_10  and  C6_12 
REMARK    6  A    between atoms: C10_16  and  C11_17 
ROOT
HETATM    1  N1  UNK     1      17.940   2.580  33.676  1.00  0.00    -0.191 NA
HETATM    2  C9  UNK     1      18.656   4.513  30.911  1.00  0.00     0.036 C 
HETATM    3  C10 UNK     1      18.532   3.194  31.221  1.00  0.00     0.055 C 
HETATM    4  C23 UNK     1      18.204   2.864  32.582  1.00  0.00     0.100 C 
ENDROOT
BRANCH   3   5
HETATM    5  C11 UNK     1      18.705   2.118  30.258  1.00  0.00    -0.015 A 
HETATM    6  C16 UNK     1      19.647   1.116  30.493  1.00  0.00     0.016 A 
HETATM    7  C19 UNK     1      19.813   0.084  29.570  1.00  0.00     0.043 A 
HETATM    8  C21 UNK     1      19.037   0.052  28.412  1.00  0.00     0.116 A 
HETATM    9  C20 UNK     1      18.094   1.052  28.177  1.00  0.00     0.043 A 
HETATM   10  F1  UNK     1      19.195  -0.939  27.526  1.00  0.00    -0.206 F 
HETATM   11  C17 UNK     1      17.928   2.086  29.100  1.00  0.00     0.016 A 
ENDBRANCH   3   5
BRANCH   2  12
HETATM   12  C2  UNK     1      18.483   5.632  31.849  1.00  0.00    -0.015 A 
HETATM   13  C5  UNK     1      17.182   5.960  32.210  1.00  0.00     0.052 A 
HETATM   14  C3  UNK     1      16.959   7.014  33.097  1.00  0.00     0.102 A 
HETATM   15  C1  UNK     1      18.039   7.728  33.617  1.00  0.00     0.103 A 
HETATM   16  C7  UNK     1      19.341   7.390  33.249  1.00  0.00     0.059 A 
HETATM   17  C8  UNK     1      19.564   6.337  32.362  1.00  0.00     0.024 A 
HETATM   18 Br1  UNK     1      21.362   5.929  31.901  1.00  0.00    -0.050 Br
BRANCH  14  19
HETATM   19  O2  UNK     1      15.683   7.335  33.450  1.00  0.00    -0.353 OA
HETATM   20  C22 UNK     1      14.814   7.318  32.307  1.00  0.00     0.210 C 
ENDBRANCH  14  19
BRANCH  15  21
HETATM   21  O1  UNK     1      17.834   8.758  34.484  1.00  0.00    -0.344 OA
BRANCH  21  22
HETATM   22  C4  UNK     1      18.577   9.922  34.086  1.00  0.00     0.214 C 
BRANCH  22  23
HETATM   23  C6  UNK     1      17.654  11.105  34.057  1.00  0.00    -0.034 A 
HETATM   24  C12 UNK     1      18.181  12.389  33.970  1.00  0.00     0.011 A 
HETATM   25  C14 UNK     1      17.323  13.487  33.942  1.00  0.00     0.024 A 
HETATM   26  C18 UNK     1      15.942  13.296  34.001  1.00  0.00     0.034 A 
HETATM   27  C15 UNK     1      15.420  12.005  34.088  1.00  0.00     0.024 A 
HETATM   28 Cl1  UNK     1      14.883  14.651  33.968  1.00  0.00    -0.084 Cl
HETATM   29  C13 UNK     1      16.278  10.907  34.116  1.00  0.00     0.011 A 
ENDBRANCH  22  23
ENDBRANCH  21  22
ENDBRANCH  15  21
ENDBRANCH   2  12
TORSDOF 6
ENDMDL
MODEL 3
REMARK VINA RESULT:      -9.1      5.353     10.297
REMARK  6 active torsions:
REMARK  status: ('A' for Active; 'I' for Inactive)
REMARK    1  A    between atoms: C1_7  and  O1_4 
REMARK    2  A    between atoms: C4_10  and  O1_4 
REMARK    3  A    between atoms: C3_9  and  O2_5 
REMARK    4  A    between atoms: C2_8  and  C9_15 
REMARK    5  A    between atoms: C4_10  and  C6_12 
REMARK    6  A    between atoms: C10_16  and  C11_17 
ROOT
HETATM    1  N1  UNK     1      15.530   6.821  31.944  1.00  0.00    -0.191 NA
HETATM    2  C9  UNK     1      18.834   6.473  32.866  1.00  0.00     0.036 C 
HETATM    3  C10 UNK     1      17.864   7.425  32.915  1.00  0.00     0.055 C 
HETATM    4  C23 UNK     1      16.575   7.082  32.375  1.00  0.00     0.100 C 
ENDROOT
BRANCH   3   5
HETATM    5  C11 UNK     1      18.058   8.750  33.484  1.00  0.00    -0.015 A 
HETATM    6  C16 UNK     1      19.328   9.152  33.897  1.00  0.00     0.016 A 
HETATM    7  C19 UNK     1      19.515  10.423  34.442  1.00  0.00     0.043 A 
HETATM    8  C21 UNK     1      18.431  11.291  34.574  1.00  0.00     0.116 A 
HETATM    9  C20 UNK     1      17.162  10.889  34.160  1.00  0.00     0.043 A 
HETATM   10  F1  UNK     1      18.610  12.511  35.097  1.00  0.00    -0.206 F 
HETATM   11  C17 UNK     1      16.975   9.618  33.615  1.00  0.00     0.016 A 
ENDBRANCH   3   5
BRANCH   2  12
HETATM   12  C2  UNK     1      18.680   5.121  32.308  1.00  0.00    -0.015 A 
HETATM   13  C5  UNK     1      18.194   4.137  33.160  1.00  0.00     0.052 A 
HETATM   14  C3  UNK     1      18.028   2.836  32.683  1.00  0.00     0.102 A 
HETATM   15  C1  UNK     1      18.347   2.532  31.360  1.00  0.00     0.103 A 
HETATM   16  C7  UNK     1      18.833   3.528  30.513  1.00  0.00     0.059 A 
HETATM   17  C8  UNK     1      19.000   4.828  30.989  1.00  0.00     0.024 A 
HETATM   18 Br1  UNK     1      19.667   6.137  29.784  1.00  0.00    -0.050 Br
BRANCH  14  19
HETATM   19  O2  UNK     1      17.552   1.872  33.520  1.00  0.00    -0.353 OA
HETATM   20  C22 UNK     1      18.254   1.884  34.772  1.00  0.00     0.210 C 
ENDBRANCH  14  19
BRANCH  15  21
HETATM   21  O1  UNK     1      18.188   1.266  30.883  1.00  0.00    -0.344 OA
BRANCH  21  22
HETATM   22  C4  UNK     1      19.267   0.907  30.005  1.00  0.00     0.214 C 
BRANCH  22  23
HETATM   23  C6  UNK     1      19.817  -0.425  30.423  1.00  0.00    -0.034 A 
HETATM   24  C12 UNK     1      20.384  -1.266  29.473  1.00  0.00     0.011 A 
HETATM   25  C14 UNK     1      20.895  -2.503  29.863  1.00  0.00     0.024 A 
HETATM   26  C18 UNK     1      20.835  -2.893  31.201  1.00  0.00     0.034 A 
HETATM   27  C15 UNK     1      20.264  -2.043  32.149  1.00  0.00     0.024 A 
HETATM   28 Cl1  UNK     1      21.464  -4.420  31.682  1.00  0.00    -0.084 Cl
HETATM   29  C13 UNK     1      19.753  -0.807  31.759  1.00  0.00     0.011 A 
ENDBRANCH  22  23
ENDBRANCH  21  22
ENDBRANCH  15  21
ENDBRANCH   2  12
TORSDOF 6
ENDMDL
MODEL 4
REMARK VINA RESULT:      -8.6      8.107     10.516
REMARK  6 active torsions:
REMARK  status: ('A' for Active; 'I' for Inactive)
REMARK    1  A    between atoms: C1_7  and  O1_4 
REMARK    2  A    between atoms: C4_10  and  O1_4 
REMARK    3  A    between atoms: C3_9  and  O2_5 
REMARK    4  A    between atoms: C2_8  and  C9_15 
REMARK    5  A    between atoms: C4_10  and  C6_12 
REMARK    6  A    between atoms: C10_16  and  C11_17 
ROOT
HETATM    1  N1  UNK     1      17.686  -5.427  36.243  1.00  0.00    -0.191 NA
HETATM    2  C9  UNK     1      20.521  -3.550  36.820  1.00  0.00     0.036 C 
HETATM    3  C10 UNK     1      20.018  -4.762  37.178  1.00  0.00     0.055 C 
HETATM    4  C23 UNK     1      18.726  -5.122  36.655  1.00  0.00     0.100 C 
ENDROOT
BRANCH   3   5
HETATM    5  C11 UNK     1      20.713  -5.702  38.044  1.00  0.00    -0.015 A 
HETATM    6  C16 UNK     1      22.085  -5.569  38.260  1.00  0.00     0.016 A 
HETATM    7  C19 UNK     1      22.751  -6.470  39.090  1.00  0.00     0.043 A 
HETATM    8  C21 UNK     1      22.046  -7.504  39.705  1.00  0.00     0.116 A 
HETATM    9  C20 UNK     1      20.675  -7.637  39.491  1.00  0.00     0.043 A 
HETATM   10  F1  UNK     1      22.686  -8.370  40.503  1.00  0.00    -0.206 F 
HETATM   11  C17 UNK     1      20.008  -6.736  38.660  1.00  0.00     0.016 A 
ENDBRANCH   3   5
BRANCH   2  12
HETATM   12  C2  UNK     1      19.857  -2.574  35.943  1.00  0.00    -0.015 A 
HETATM   13  C5  UNK     1      20.240  -2.559  34.608  1.00  0.00     0.052 A 
HETATM   14  C3  UNK     1      19.644  -1.653  33.731  1.00  0.00     0.102 A 
HETATM   15  C1  UNK     1      18.668  -0.771  34.197  1.00  0.00     0.103 A 
HETATM   16  C7  UNK     1      18.290  -0.795  35.539  1.00  0.00     0.059 A 
HETATM   17  C8  UNK     1      18.887  -1.700  36.416  1.00  0.00     0.024 A 
HETATM   18 Br1  UNK     1      18.326  -1.679  38.231  1.00  0.00    -0.050 Br
BRANCH  14  19
HETATM   19  O2  UNK     1      20.021  -1.639  32.422  1.00  0.00    -0.353 OA
HETATM   20  C22 UNK     1      20.947  -2.700  32.142  1.00  0.00     0.210 C 
ENDBRANCH  14  19
BRANCH  15  21
HETATM   21  O1  UNK     1      18.078   0.118  33.349  1.00  0.00    -0.344 OA
BRANCH  21  22
HETATM   22  C4  UNK     1      17.896   1.393  33.986  1.00  0.00     0.214 C 
BRANCH  22  23
HETATM   23  C6  UNK     1      18.178   2.481  32.992  1.00  0.00    -0.034 A 
HETATM   24  C12 UNK     1      18.202   3.807  33.409  1.00  0.00     0.011 A 
HETATM   25  C14 UNK     1      18.465   4.817  32.484  1.00  0.00     0.024 A 
HETATM   26  C18 UNK     1      18.700   4.496  31.148  1.00  0.00     0.034 A 
HETATM   27  C15 UNK     1      18.673   3.163  30.736  1.00  0.00     0.024 A 
HETATM   28 Cl1  UNK     1      19.023   5.742  30.006  1.00  0.00    -0.084 Cl
HETATM   29  C13 UNK     1      18.412   2.153  31.660  1.00  0.00     0.011 A 
ENDBRANCH  22  23
ENDBRANCH  21  22
ENDBRANCH  15  21
ENDBRANCH   2  12
TORSDOF 6
ENDMDL
MODEL 5
REMARK VINA RESULT:      -8.5      6.389      8.228
REMARK  6 active torsions:
REMARK  status: ('A' for Active; 'I' for Inactive)
REMARK    1  A    between atoms: C1_7  and  O1_4 
REMARK    2  A    between atoms: C4_10  and  O1_4 
REMARK    3  A    between atoms: C3_9  and  O2_5 
REMARK    4  A    between atoms: C2_8  and  C9_15 
REMARK    5  A    between atoms: C4_10  and  C6_12 
REMARK    6  A    between atoms: C10_16  and  C11_17 
ROOT
HETATM    1  N1  UNK     1      21.947  -1.705  35.347  1.00  0.00    -0.191 NA
HETATM    2  C9  UNK     1      18.583  -2.256  35.869  1.00  0.00     0.036 C 
HETATM    3  C10 UNK     1      19.763  -2.884  36.119  1.00  0.00     0.055 C 
HETATM    4  C23 UNK     1      20.967  -2.223  35.688  1.00  0.00     0.100 C 
ENDROOT
BRANCH   3   5
HETATM    5  C11 UNK     1      19.869  -4.167  36.797  1.00  0.00    -0.015 A 
HETATM    6  C16 UNK     1      20.929  -4.409  37.671  1.00  0.00     0.016 A 
HETATM    7  C19 UNK     1      21.031  -5.638  38.321  1.00  0.00     0.043 A 
HETATM    8  C21 UNK     1      20.073  -6.626  38.098  1.00  0.00     0.116 A 
HETATM    9  C20 UNK     1      19.012  -6.385  37.225  1.00  0.00     0.043 A 
HETATM   10  F1  UNK     1      20.170  -7.807  38.723  1.00  0.00    -0.206 F 
HETATM   11  C17 UNK     1      18.911  -5.155  36.574  1.00  0.00     0.016 A 
ENDBRANCH   3   5
BRANCH   2  12
HETATM   12  C2  UNK     1      18.431  -0.958  35.195  1.00  0.00    -0.015 A 
HETATM   13  C5  UNK     1      18.640  -0.930  33.821  1.00  0.00     0.052 A 
HETATM   14  C3  UNK     1      18.509   0.275  33.130  1.00  0.00     0.102 A 
HETATM   15  C1  UNK     1      18.168   1.440  33.817  1.00  0.00     0.103 A 
HETATM   16  C7  UNK     1      17.960   1.401  35.196  1.00  0.00     0.059 A 
HETATM   17  C8  UNK     1      18.091   0.197  35.887  1.00  0.00     0.024 A 
HETATM   18 Br1  UNK     1      17.795   0.214  37.764  1.00  0.00    -0.050 Br
BRANCH  14  19
HETATM   19  O2  UNK     1      18.715   0.300  31.784  1.00  0.00    -0.353 OA
HETATM   20  C22 UNK     1      19.767  -0.600  31.406  1.00  0.00     0.210 C 
ENDBRANCH  14  19
BRANCH  15  21
HETATM   21  O1  UNK     1      18.037   2.622  33.153  1.00  0.00    -0.344 OA
BRANCH  21  22
HETATM   22  C4  UNK     1      18.501   3.719  33.956  1.00  0.00     0.214 C 
BRANCH  22  23
HETATM   23  C6  UNK     1      17.870   4.988  33.463  1.00  0.00    -0.034 A 
HETATM   24  C12 UNK     1      17.840   5.257  32.099  1.00  0.00     0.011 A 
HETATM   25  C14 UNK     1      17.252   6.436  31.641  1.00  0.00     0.024 A 
HETATM   26  C18 UNK     1      16.700   7.339  32.549  1.00  0.00     0.034 A 
HETATM   27  C15 UNK     1      16.735   7.062  33.917  1.00  0.00     0.024 A 
HETATM   28 Cl1  UNK     1      15.977   8.795  31.985  1.00  0.00    -0.084 Cl
HETATM   29  C13 UNK     1      17.321   5.884  34.374  1.00  0.00     0.011 A 
ENDBRANCH  22  23
ENDBRANCH  21  22
ENDBRANCH  15  21
ENDBRANCH   2  12
TORSDOF 6
ENDMDL
MODEL 6
REMARK VINA RESULT:      -8.5     18.800     20.453
REMARK  6 active torsions:
REMARK  status: ('A' for Active; 'I' for Inactive)
REMARK    1  A    between atoms: C1_7  and  O1_4 
REMARK    2  A    between atoms: C4_10  and  O1_4 
REMARK    3  A    between atoms: C3_9  and  O2_5 
REMARK    4  A    between atoms: C2_8  and  C9_15 
REMARK    5  A    between atoms: C4_10  and  C6_12 
REMARK    6  A    between atoms: C10_16  and  C11_17 
ROOT
HETATM    1  N1  UNK     1      27.478 -10.576  39.644  1.00  0.00    -0.191 NA
HETATM    2  C9  UNK     1      27.450  -8.767  36.708  1.00  0.00     0.036 C 
HETATM    3  C10 UNK     1      26.673  -9.689  37.337  1.00  0.00     0.055 C 
HETATM    4  C23 UNK     1      27.127 -10.174  38.614  1.00  0.00     0.100 C 
ENDROOT
BRANCH   3   5
HETATM    5  C11 UNK     1      25.423 -10.198  36.795  1.00  0.00    -0.015 A 
HETATM    6  C16 UNK     1      24.284  -9.392  36.794  1.00  0.00     0.016 A 
HETATM    7  C19 UNK     1      23.085  -9.879  36.275  1.00  0.00     0.043 A 
HETATM    8  C21 UNK     1      23.023 -11.171  35.755  1.00  0.00     0.116 A 
HETATM    9  C20 UNK     1      24.162 -11.977  35.755  1.00  0.00     0.043 A 
HETATM   10  F1  UNK     1      21.872 -11.640  35.256  1.00  0.00    -0.206 F 
HETATM   11  C17 UNK     1      25.362 -11.491  36.275  1.00  0.00     0.016 A 
ENDBRANCH   3   5
BRANCH   2  12
HETATM   12  C2  UNK     1      28.716  -8.221  37.222  1.00  0.00    -0.015 A 
HETATM   13  C5  UNK     1      29.884  -8.877  36.853  1.00  0.00     0.052 A 
HETATM   14  C3  UNK     1      31.113  -8.403  37.312  1.00  0.00     0.102 A 
HETATM   15  C1  UNK     1      31.164  -7.277  38.133  1.00  0.00     0.103 A 
HETATM   16  C7  UNK     1      29.986  -6.624  38.496  1.00  0.00     0.059 A 
HETATM   17  C8  UNK     1      28.757  -7.099  38.038  1.00  0.00     0.024 A 
HETATM   18 Br1  UNK     1      27.190  -6.164  38.571  1.00  0.00    -0.050 Br
BRANCH  14  19
HETATM   19  O2  UNK     1      32.257  -9.049  36.950  1.00  0.00    -0.353 OA
HETATM   20  C22 UNK     1      32.442  -9.011  35.528  1.00  0.00     0.210 C 
ENDBRANCH  14  19
BRANCH  15  21
HETATM   21  O1  UNK     1      32.358  -6.804  38.586  1.00  0.00    -0.344 OA
BRANCH  21  22
HETATM   22  C4  UNK     1      32.631  -5.498  38.053  1.00  0.00     0.214 C 
BRANCH  22  23
HETATM   23  C6  UNK     1      33.401  -5.643  36.773  1.00  0.00    -0.034 A 
HETATM   24  C12 UNK     1      32.821  -5.248  35.573  1.00  0.00     0.011 A 
HETATM   25  C14 UNK     1      33.537  -5.382  34.384  1.00  0.00     0.024 A 
HETATM   26  C18 UNK     1      34.827  -5.912  34.401  1.00  0.00     0.034 A 
HETATM   27  C15 UNK     1      35.402  -6.307  35.610  1.00  0.00     0.024 A 
HETATM   28 Cl1  UNK     1      35.710  -6.079  32.934  1.00  0.00    -0.084 Cl
HETATM   29  C13 UNK     1      34.687  -6.172  36.799  1.00  0.00     0.011 A 
ENDBRANCH  22  23
ENDBRANCH  21  22
ENDBRANCH  15  21
ENDBRANCH   2  12
TORSDOF 6
ENDMDL
MODEL 7
REMARK VINA RESULT:      -8.1      2.009      2.414
REMARK  6 active torsions:
REMARK  status: ('A' for Active; 'I' for Inactive)
REMARK    1  A    between atoms: C1_7  and  O1_4 
REMARK    2  A    between atoms: C4_10  and  O1_4 
REMARK    3  A    between atoms: C3_9  and  O2_5 
REMARK    4  A    between atoms: C2_8  and  C9_15 
REMARK    5  A    between atoms: C4_10  and  C6_12 
REMARK    6  A    between atoms: C10_16  and  C11_17 
ROOT
HETATM    1  N1  UNK     1      19.456   6.155  29.387  1.00  0.00    -0.191 NA
HETATM    2  C9  UNK     1      17.894   4.731  32.112  1.00  0.00     0.036 C 
HETATM    3  C10 UNK     1      18.551   4.322  30.993  1.00  0.00     0.055 C 
HETATM    4  C23 UNK     1      19.049   5.344  30.110  1.00  0.00     0.100 C 
ENDROOT
BRANCH   3   5
HETATM    5  C11 UNK     1      18.780   2.926  30.653  1.00  0.00    -0.015 A 
HETATM    6  C16 UNK     1      18.746   2.519  29.320  1.00  0.00     0.016 A 
HETATM    7  C19 UNK     1      18.965   1.180  28.993  1.00  0.00     0.043 A 
HETATM    8  C21 UNK     1      19.218   0.249  30.000  1.00  0.00     0.116 A 
HETATM    9  C20 UNK     1      19.252   0.657  31.334  1.00  0.00     0.043 A 
HETATM   10  F1  UNK     1      19.428  -1.036  29.688  1.00  0.00    -0.206 F 
HETATM   11  C17 UNK     1      19.033   1.996  31.660  1.00  0.00     0.016 A 
ENDBRANCH   3   5
BRANCH   2  12
HETATM   12  C2  UNK     1      17.648   6.129  32.497  1.00  0.00    -0.015 A 
HETATM   13  C5  UNK     1      16.357   6.613  32.328  1.00  0.00     0.052 A 
HETATM   14  C3  UNK     1      16.066   7.932  32.677  1.00  0.00     0.102 A 
HETATM   15  C1  UNK     1      17.068   8.754  33.193  1.00  0.00     0.103 A 
HETATM   16  C7  UNK     1      18.361   8.258  33.359  1.00  0.00     0.059 A 
HETATM   17  C8  UNK     1      18.652   6.939  33.010  1.00  0.00     0.024 A 
HETATM   18 Br1  UNK     1      20.433   6.326  33.261  1.00  0.00    -0.050 Br
BRANCH  14  19
HETATM   19  O2  UNK     1      14.800   8.406  32.510  1.00  0.00    -0.353 OA
HETATM   20  C22 UNK     1      13.851   7.330  32.450  1.00  0.00     0.210 C 
ENDBRANCH  14  19
BRANCH  15  21
HETATM   21  O1  UNK     1      16.796  10.044  33.537  1.00  0.00    -0.344 OA
BRANCH  21  22
HETATM   22  C4  UNK     1      17.956  10.684  34.092  1.00  0.00     0.214 C 
BRANCH  22  23
HETATM   23  C6  UNK     1      17.682  12.153  34.239  1.00  0.00    -0.034 A 
HETATM   24  C12 UNK     1      18.426  13.069  33.506  1.00  0.00     0.011 A 
HETATM   25  C14 UNK     1      18.170  14.433  33.642  1.00  0.00     0.024 A 
HETATM   26  C18 UNK     1      17.171  14.872  34.510  1.00  0.00     0.034 A 
HETATM   27  C15 UNK     1      16.427  13.946  35.243  1.00  0.00     0.024 A 
HETATM   28 Cl1  UNK     1      16.855  16.555  34.679  1.00  0.00    -0.084 Cl
HETATM   29  C13 UNK     1      16.684  12.583  35.107  1.00  0.00     0.011 A 
ENDBRANCH  22  23
ENDBRANCH  21  22
ENDBRANCH  15  21
ENDBRANCH   2  12
TORSDOF 6
ENDMDL
MODEL 8
REMARK VINA RESULT:      -7.9     23.618     24.973
REMARK  6 active torsions:
REMARK  status: ('A' for Active; 'I' for Inactive)
REMARK    1  A    between atoms: C1_7  and  O1_4 
REMARK    2  A    between atoms: C4_10  and  O1_4 
REMARK    3  A    between atoms: C3_9  and  O2_5 
REMARK    4  A    between atoms: C2_8  and  C9_15 
REMARK    5  A    between atoms: C4_10  and  C6_12 
REMARK    6  A    between atoms: C10_16  and  C11_17 
ROOT
HETATM    1  N1  UNK     1      13.297   6.000  10.244  1.00  0.00    -0.191 NA
HETATM    2  C9  UNK     1      12.364   9.012   8.848  1.00  0.00     0.036 C 
HETATM    3  C10 UNK     1      13.502   8.406   9.283  1.00  0.00     0.055 C 
HETATM    4  C23 UNK     1      13.379   7.074   9.813  1.00  0.00     0.100 C 
ENDROOT
BRANCH   3   5
HETATM    5  C11 UNK     1      14.817   9.025   9.234  1.00  0.00    -0.015 A 
HETATM    6  C16 UNK     1      15.005  10.210   8.521  1.00  0.00     0.016 A 
HETATM    7  C19 UNK     1      16.266  10.803   8.474  1.00  0.00     0.043 A 
HETATM    8  C21 UNK     1      17.340  10.213   9.139  1.00  0.00     0.116 A 
HETATM    9  C20 UNK     1      17.153   9.029   9.852  1.00  0.00     0.043 A 
HETATM   10  F1  UNK     1      18.551  10.782   9.094  1.00  0.00    -0.206 F 
HETATM   11  C17 UNK     1      15.891   8.434   9.899  1.00  0.00     0.016 A 
ENDBRANCH   3   5
BRANCH   2  12
HETATM   12  C2  UNK     1      11.017   8.422   8.872  1.00  0.00    -0.015 A 
HETATM   13  C5  UNK     1      10.778   7.354   8.016  1.00  0.00     0.052 A 
HETATM   14  C3  UNK     1       9.518   6.756   7.997  1.00  0.00     0.102 A 
HETATM   15  C1  UNK     1       8.509   7.230   8.836  1.00  0.00     0.103 A 
HETATM   16  C7  UNK     1       8.760   8.301   9.693  1.00  0.00     0.059 A 
HETATM   17  C8  UNK     1      10.019   8.900   9.711  1.00  0.00     0.024 A 
HETATM   18 Br1  UNK     1      10.294  10.356  10.901  1.00  0.00    -0.050 Br
BRANCH  14  19
HETATM   19  O2  UNK     1       9.285   5.710   7.157  1.00  0.00    -0.353 OA
HETATM   20  C22 UNK     1       9.672   6.033   5.812  1.00  0.00     0.210 C 
ENDBRANCH  14  19
BRANCH  15  21
HETATM   21  O1  UNK     1       7.275   6.653   8.827  1.00  0.00    -0.344 OA
BRANCH  21  22
HETATM   22  C4  UNK     1       6.501   7.074   9.963  1.00  0.00     0.214 C 
BRANCH  22  23
HETATM   23  C6  UNK     1       6.158   5.872  10.793  1.00  0.00    -0.034 A 
HETATM   24  C12 UNK     1       5.737   6.040  12.108  1.00  0.00     0.011 A 
HETATM   25  C14 UNK     1       5.418   4.923  12.878  1.00  0.00     0.024 A 
HETATM   26  C18 UNK     1       5.522   3.644  12.331  1.00  0.00     0.034 A 
HETATM   27  C15 UNK     1       5.945   3.484  11.011  1.00  0.00     0.024 A 
HETATM   28 Cl1  UNK     1       5.128   2.265  13.282  1.00  0.00    -0.084 Cl
HETATM   29  C13 UNK     1       6.264   4.600  10.240  1.00  0.00     0.011 A 
ENDBRANCH  22  23
ENDBRANCH  21  22
ENDBRANCH  15  21
ENDBRANCH   2  12
TORSDOF 6
ENDMDL
MODEL 9
REMARK VINA RESULT:      -7.9     17.272     19.490
REMARK  6 active torsions:
REMARK  status: ('A' for Active; 'I' for Inactive)
REMARK    1  A    between atoms: C1_7  and  O1_4 
REMARK    2  A    between atoms: C4_10  and  O1_4 
REMARK    3  A    between atoms: C3_9  and  O2_5 
REMARK    4  A    between atoms: C2_8  and  C9_15 
REMARK    5  A    between atoms: C4_10  and  C6_12 
REMARK    6  A    between atoms: C10_16  and  C11_17 
ROOT
HETATM    1  N1  UNK     1      26.627  -5.997  39.047  1.00  0.00    -0.191 NA
HETATM    2  C9  UNK     1      26.004  -9.089  37.653  1.00  0.00     0.036 C 
HETATM    3  C10 UNK     1      25.299  -8.069  38.211  1.00  0.00     0.055 C 
HETATM    4  C23 UNK     1      26.043  -6.926  38.670  1.00  0.00     0.100 C 
ENDROOT
BRANCH   3   5
HETATM    5  C11 UNK     1      23.852  -8.071  38.356  1.00  0.00    -0.015 A 
HETATM    6  C16 UNK     1      23.055  -8.696  37.397  1.00  0.00     0.016 A 
HETATM    7  C19 UNK     1      21.667  -8.699  37.536  1.00  0.00     0.043 A 
HETATM    8  C21 UNK     1      21.076  -8.077  38.635  1.00  0.00     0.116 A 
HETATM    9  C20 UNK     1      21.872  -7.452  39.595  1.00  0.00     0.043 A 
HETATM   10  F1  UNK     1      19.743  -8.079  38.770  1.00  0.00    -0.206 F 
HETATM   11  C17 UNK     1      23.260  -7.449  39.455  1.00  0.00     0.016 A 
ENDBRANCH   3   5
BRANCH   2  12
HETATM   12  C2  UNK     1      27.465  -9.126  37.480  1.00  0.00    -0.015 A 
HETATM   13  C5  UNK     1      27.965  -8.735  36.244  1.00  0.00     0.052 A 
HETATM   14  C3  UNK     1      29.343  -8.751  36.024  1.00  0.00     0.102 A 
HETATM   15  C1  UNK     1      30.207  -9.154  37.041  1.00  0.00     0.103 A 
HETATM   16  C7  UNK     1      29.694  -9.543  38.279  1.00  0.00     0.059 A 
HETATM   17  C8  UNK     1      28.317  -9.528  38.499  1.00  0.00     0.024 A 
HETATM   18 Br1  UNK     1      27.685 -10.072  40.207  1.00  0.00    -0.050 Br
BRANCH  14  19
HETATM   19  O2  UNK     1      29.832  -8.368  34.811  1.00  0.00    -0.353 OA
HETATM   20  C22 UNK     1      29.739  -6.945  34.644  1.00  0.00     0.210 C 
ENDBRANCH  14  19
BRANCH  15  21
HETATM   21  O1  UNK     1      31.554  -9.173  36.838  1.00  0.00    -0.344 OA
BRANCH  21  22
HETATM   22  C4  UNK     1      32.240  -8.443  37.868  1.00  0.00     0.214 C 
BRANCH  22  23
HETATM   23  C6  UNK     1      32.214  -6.980  37.532  1.00  0.00    -0.034 A 
HETATM   24  C12 UNK     1      32.954  -6.508  36.454  1.00  0.00     0.011 A 
HETATM   25  C14 UNK     1      32.929  -5.149  36.141  1.00  0.00     0.024 A 
HETATM   26  C18 UNK     1      32.164  -4.271  36.909  1.00  0.00     0.034 A 
HETATM   27  C15 UNK     1      31.424  -4.752  37.989  1.00  0.00     0.024 A 
HETATM   28 Cl1  UNK     1      32.133  -2.594  36.524  1.00  0.00    -0.084 Cl
HETATM   29  C13 UNK     1      31.449  -6.110  38.301  1.00  0.00     0.011 A 
ENDBRANCH  22  23
ENDBRANCH  21  22
ENDBRANCH  15  21
ENDBRANCH   2  12
TORSDOF 6
ENDMDL
MODEL 10
REMARK VINA RESULT:      -7.9     17.538     19.366
REMARK  6 active torsions:
REMARK  status: ('A' for Active; 'I' for Inactive)
REMARK    1  A    between atoms: C1_7  and  O1_4 
REMARK    2  A    between atoms: C4_10  and  O1_4 
REMARK    3  A    between atoms: C3_9  and  O2_5 
REMARK    4  A    between atoms: C2_8  and  C9_15 
REMARK    5  A    between atoms: C4_10  and  C6_12 
REMARK    6  A    between atoms: C10_16  and  C11_17 
ROOT
HETATM    1  N1  UNK     1      29.297  -6.404  34.852  1.00  0.00    -0.191 NA
HETATM    2  C9  UNK     1      30.699  -7.459  37.820  1.00  0.00     0.036 C 
HETATM    3  C10 UNK     1      31.116  -6.987  36.614  1.00  0.00     0.055 C 
HETATM    4  C23 UNK     1      30.102  -6.667  35.645  1.00  0.00     0.100 C 
ENDROOT
BRANCH   3   5
HETATM    5  C11 UNK     1      32.513  -6.786  36.263  1.00  0.00    -0.015 A 
HETATM    6  C16 UNK     1      33.373  -6.152  37.160  1.00  0.00     0.016 A 
HETATM    7  C19 UNK     1      34.713  -5.959  36.824  1.00  0.00     0.043 A 
HETATM    8  C21 UNK     1      35.193  -6.401  35.591  1.00  0.00     0.116 A 
HETATM    9  C20 UNK     1      34.334  -7.036  34.695  1.00  0.00     0.043 A 
HETATM   10  F1  UNK     1      36.480  -6.217  35.268  1.00  0.00    -0.206 F 
HETATM   11  C17 UNK     1      32.993  -7.229  35.031  1.00  0.00     0.016 A 
ENDBRANCH   3   5
BRANCH   2  12
HETATM   12  C2  UNK     1      29.299  -7.670  38.219  1.00  0.00    -0.015 A 
HETATM   13  C5  UNK     1      28.768  -8.938  38.017  1.00  0.00     0.052 A 
HETATM   14  C3  UNK     1      27.445  -9.195  38.377  1.00  0.00     0.102 A 
HETATM   15  C1  UNK     1      26.666  -8.183  38.937  1.00  0.00     0.103 A 
HETATM   16  C7  UNK     1      27.209  -6.914  39.136  1.00  0.00     0.059 A 
HETATM   17  C8  UNK     1      28.531  -6.656  38.776  1.00  0.00     0.024 A 
HETATM   18 Br1  UNK     1      29.208  -4.906  39.073  1.00  0.00    -0.050 Br
BRANCH  14  19
HETATM   19  O2  UNK     1      26.926 -10.439  38.178  1.00  0.00    -0.353 OA
HETATM   20  C22 UNK     1      26.321 -10.543  36.881  1.00  0.00     0.210 C 
ENDBRANCH  14  19
BRANCH  15  21
HETATM   21  O1  UNK     1      25.373  -8.422  39.293  1.00  0.00    -0.344 OA
BRANCH  21  22
HETATM   22  C4  UNK     1      24.488  -7.458  38.698  1.00  0.00     0.214 C 
BRANCH  22  23
HETATM   23  C6  UNK     1      23.133  -8.081  38.523  1.00  0.00    -0.034 A 
HETATM   24  C12 UNK     1      22.273  -8.175  39.611  1.00  0.00     0.011 A 
HETATM   25  C14 UNK     1      21.015  -8.753  39.448  1.00  0.00     0.024 A 
HETATM   26  C18 UNK     1      20.624  -9.233  38.199  1.00  0.00     0.034 A 
HETATM   27  C15 UNK     1      21.493  -9.135  37.111  1.00  0.00     0.024 A 
HETATM   28 Cl1  UNK     1      19.071  -9.947  37.997  1.00  0.00    -0.084 Cl
HETATM   29  C13 UNK     1      22.751  -8.557  37.274  1.00  0.00     0.011 A 
ENDBRANCH  22  23
ENDBRANCH  21  22
ENDBRANCH  15  21
ENDBRANCH   2  12
TORSDOF 6
ENDMDL
