MODEL 1
REMARK VINA RESULT:      -8.0      0.000      0.000
REMARK  5 active torsions:
REMARK  status: ('A' for Active; 'I' for Inactive)
REMARK    1  A    between atoms: C7_13  and  O2_2 
REMARK    2  A    between atoms: C5_11  and  O3_3 
REMARK    3  A    between atoms: C11_17  and  O4_4 
REMARK    4  A    between atoms: C12_18  and  O5_5 
REMARK    5  A    between atoms: C1_7  and  C2_8 
ROOT
HETATM    1  O1  UNK     1      13.046   8.405   8.244  1.00  0.00    -0.306 OA
HETATM    2  O6  UNK     1      15.050   5.874  10.731  1.00  0.00    -0.284 OA
HETATM    3  C1  UNK     1      12.489   7.204   8.655  1.00  0.00     0.126 A 
HETATM    4  C3  UNK     1      15.029   7.919   9.557  1.00  0.00     0.053 A 
HETATM    5  C4  UNK     1      14.293   8.739   8.703  1.00  0.00     0.090 A 
HETATM    6  C5  UNK     1      13.097   6.320   9.468  1.00  0.00     0.152 A 
HETATM    7  C6  UNK     1      14.450   6.637   9.986  1.00  0.00     0.220 A 
HETATM    8  C8  UNK     1      16.297   8.311   9.992  1.00  0.00     0.055 A 
HETATM    9  C10 UNK     1      14.823   9.958   8.277  1.00  0.00     0.041 A 
HETATM   10  C12 UNK     1      16.824   9.532   9.565  1.00  0.00     0.069 A 
HETATM   11  C13 UNK     1      16.088  10.353   8.710  1.00  0.00     0.039 A 
ENDROOT
BRANCH   3  12
HETATM   12  C2  UNK     1      11.148   6.967   8.090  1.00  0.00     0.037 A 
HETATM   13  C7  UNK     1       9.999   7.432   8.732  1.00  0.00     0.114 A 
HETATM   14  C11 UNK     1       8.742   7.196   8.175  1.00  0.00     0.102 A 
HETATM   15  C15 UNK     1       8.633   6.494   6.974  1.00  0.00     0.040 A 
HETATM   16  C14 UNK     1       9.780   6.029   6.331  1.00  0.00     0.004 A 
HETATM   17  C9  UNK     1      11.036   6.266   6.887  1.00  0.00     0.017 A 
BRANCH  13  18
HETATM   18  O2  UNK     1      10.092   8.119   9.908  1.00  0.00    -0.352 OA
HETATM   19  C16 UNK     1      10.109   9.541   9.825  1.00  0.00     0.210 C 
ENDBRANCH  13  18
BRANCH  14  20
HETATM   20  O4  UNK     1       7.614   7.644   8.792  1.00  0.00    -0.353 OA
HETATM   21  C17 UNK     1       7.059   6.813   9.810  1.00  0.00     0.210 C 
ENDBRANCH  14  20
ENDBRANCH   3  12
BRANCH   6  22
HETATM   22  O3  UNK     1      12.529   5.118   9.833  1.00  0.00    -0.355 OA
HETATM   23  H7  UNK     1      12.195   5.174  10.742  1.00  0.00     0.218 HD
ENDBRANCH   6  22
BRANCH  10  24
HETATM   24  O5  UNK     1      18.060   9.921   9.982  1.00  0.00    -0.356 OA
HETATM   25  C18 UNK     1      18.414  11.288   9.777  1.00  0.00     0.210 C 
ENDBRANCH  10  24
TORSDOF 5
ENDMDL
MODEL 2
REMARK VINA RESULT:      -7.7     27.925     30.167
REMARK  5 active torsions:
REMARK  status: ('A' for Active; 'I' for Inactive)
REMARK    1  A    between atoms: C7_13  and  O2_2 
REMARK    2  A    between atoms: C5_11  and  O3_3 
REMARK    3  A    between atoms: C11_17  and  O4_4 
REMARK    4  A    between atoms: C12_18  and  O5_5 
REMARK    5  A    between atoms: C1_7  and  C2_8 
ROOT
HETATM    1  O1  UNK     1      20.408  -3.476  34.753  1.00  0.00    -0.306 OA
HETATM    2  O6  UNK     1      17.952  -0.547  36.165  1.00  0.00    -0.284 OA
HETATM    3  C1  UNK     1      19.968  -3.472  36.067  1.00  0.00     0.126 A 
HETATM    4  C3  UNK     1      19.147  -1.444  34.340  1.00  0.00     0.053 A 
HETATM    5  C4  UNK     1      19.988  -2.472  33.920  1.00  0.00     0.090 A 
HETATM    6  C5  UNK     1      19.163  -2.534  36.600  1.00  0.00     0.152 A 
HETATM    7  C6  UNK     1      18.687  -1.426  35.737  1.00  0.00     0.220 A 
HETATM    8  C8  UNK     1      18.752  -0.445  33.446  1.00  0.00     0.055 A 
HETATM    9  C10 UNK     1      20.441  -2.508  32.601  1.00  0.00     0.041 A 
HETATM   10  C12 UNK     1      19.206  -0.484  32.127  1.00  0.00     0.069 A 
HETATM   11  C13 UNK     1      20.048  -1.513  31.705  1.00  0.00     0.039 A 
ENDROOT
BRANCH   3  12
HETATM   12  C2  UNK     1      20.493  -4.604  36.853  1.00  0.00     0.037 A 
HETATM   13  C7  UNK     1      19.918  -5.873  36.768  1.00  0.00     0.114 A 
HETATM   14  C11 UNK     1      20.434  -6.928  37.521  1.00  0.00     0.102 A 
HETATM   15  C15 UNK     1      21.527  -6.714  38.361  1.00  0.00     0.040 A 
HETATM   16  C14 UNK     1      22.104  -5.447  38.447  1.00  0.00     0.004 A 
HETATM   17  C9  UNK     1      21.588  -4.393  37.694  1.00  0.00     0.017 A 
BRANCH  13  18
HETATM   18  O2  UNK     1      18.848  -6.096  35.950  1.00  0.00    -0.352 OA
HETATM   19  C16 UNK     1      17.571  -6.205  36.572  1.00  0.00     0.210 C 
ENDBRANCH  13  18
BRANCH  14  20
HETATM   20  O4  UNK     1      19.882  -8.170  37.446  1.00  0.00    -0.353 OA
HETATM   21  C17 UNK     1      19.431  -8.754  38.666  1.00  0.00     0.210 C 
ENDBRANCH  14  20
ENDBRANCH   3  12
BRANCH   6  22
HETATM   22  O3  UNK     1      18.770  -2.542  37.922  1.00  0.00    -0.355 OA
HETATM   23  H7  UNK     1      19.238  -3.244  38.400  1.00  0.00     0.218 HD
ENDBRANCH   6  22
BRANCH  10  24
HETATM   24  O5  UNK     1      18.828   0.486  31.249  1.00  0.00    -0.356 OA
HETATM   25  C18 UNK     1      19.578   0.595  30.040  1.00  0.00     0.210 C 
ENDBRANCH  10  24
TORSDOF 5
ENDMDL
MODEL 3
REMARK VINA RESULT:      -7.6     22.844     24.760
REMARK  5 active torsions:
REMARK  status: ('A' for Active; 'I' for Inactive)
REMARK    1  A    between atoms: C7_13  and  O2_2 
REMARK    2  A    between atoms: C5_11  and  O3_3 
REMARK    3  A    between atoms: C11_17  and  O4_4 
REMARK    4  A    between atoms: C12_18  and  O5_5 
REMARK    5  A    between atoms: C1_7  and  C2_8 
ROOT
HETATM    1  O1  UNK     1      16.982   6.811  32.802  1.00  0.00    -0.306 OA
HETATM    2  O6  UNK     1      20.094   8.939  34.350  1.00  0.00    -0.284 OA
HETATM    3  C1  UNK     1      18.237   6.245  32.961  1.00  0.00     0.126 A 
HETATM    4  C3  UNK     1      17.819   8.892  33.730  1.00  0.00     0.053 A 
HETATM    5  C4  UNK     1      16.798   8.112  33.191  1.00  0.00     0.090 A 
HETATM    6  C5  UNK     1      19.308   6.890  33.458  1.00  0.00     0.152 A 
HETATM    7  C6  UNK     1      19.157   8.302  33.888  1.00  0.00     0.220 A 
HETATM    8  C8  UNK     1      17.573  10.214  34.108  1.00  0.00     0.055 A 
HETATM    9  C10 UNK     1      15.521   8.651  33.027  1.00  0.00     0.041 A 
HETATM   10  C12 UNK     1      16.294  10.751  33.942  1.00  0.00     0.069 A 
HETATM   11  C13 UNK     1      15.271   9.970  33.403  1.00  0.00     0.039 A 
ENDROOT
BRANCH   3  12
HETATM   12  C2  UNK     1      18.299   4.844  32.504  1.00  0.00     0.037 A 
HETATM   13  C7  UNK     1      18.529   4.529  31.164  1.00  0.00     0.114 A 
HETATM   14  C11 UNK     1      18.584   3.196  30.758  1.00  0.00     0.102 A 
HETATM   15  C15 UNK     1      18.408   2.175  31.692  1.00  0.00     0.040 A 
HETATM   16  C14 UNK     1      18.179   2.487  33.032  1.00  0.00     0.004 A 
HETATM   17  C9  UNK     1      18.125   3.820  33.438  1.00  0.00     0.017 A 
BRANCH  13  18
HETATM   18  O2  UNK     1      18.702   5.518  30.239  1.00  0.00    -0.352 OA
HETATM   19  C16 UNK     1      20.042   5.914  29.959  1.00  0.00     0.210 C 
ENDBRANCH  13  18
BRANCH  14  20
HETATM   20  O4  UNK     1      18.808   2.876  29.453  1.00  0.00    -0.353 OA
HETATM   21  C17 UNK     1      17.920   1.934  28.855  1.00  0.00     0.210 C 
ENDBRANCH  14  20
ENDBRANCH   3  12
BRANCH   6  22
HETATM   22  O3  UNK     1      20.553   6.308  33.572  1.00  0.00    -0.355 OA
HETATM   23  H7  UNK     1      21.126   6.613  32.852  1.00  0.00     0.218 HD
ENDBRANCH   6  22
BRANCH  10  24
HETATM   24  O5  UNK     1      16.046  12.039  34.306  1.00  0.00    -0.356 OA
HETATM   25  C18 UNK     1      17.084  12.990  34.074  1.00  0.00     0.210 C 
ENDBRANCH  10  24
TORSDOF 5
ENDMDL
MODEL 4
REMARK VINA RESULT:      -7.5     23.108     25.255
REMARK  5 active torsions:
REMARK  status: ('A' for Active; 'I' for Inactive)
REMARK    1  A    between atoms: C7_13  and  O2_2 
REMARK    2  A    between atoms: C5_11  and  O3_3 
REMARK    3  A    between atoms: C11_17  and  O4_4 
REMARK    4  A    between atoms: C12_18  and  O5_5 
REMARK    5  A    between atoms: C1_7  and  C2_8 
ROOT
HETATM    1  O1  UNK     1      17.961   3.655  33.262  1.00  0.00    -0.306 OA
HETATM    2  O6  UNK     1      19.209   2.473  29.567  1.00  0.00    -0.284 OA
HETATM    3  C1  UNK     1      18.096   4.559  32.220  1.00  0.00     0.126 A 
HETATM    4  C3  UNK     1      18.674   1.867  31.783  1.00  0.00     0.053 A 
HETATM    5  C4  UNK     1      18.246   2.336  33.023  1.00  0.00     0.090 A 
HETATM    6  C5  UNK     1      18.508   4.240  30.980  1.00  0.00     0.152 A 
HETATM    7  C6  UNK     1      18.832   2.824  30.677  1.00  0.00     0.220 A 
HETATM    8  C8  UNK     1      18.951   0.510  31.598  1.00  0.00     0.055 A 
HETATM    9  C10 UNK     1      18.093   1.449  34.090  1.00  0.00     0.041 A 
HETATM   10  C12 UNK     1      18.796  -0.375  32.666  1.00  0.00     0.069 A 
HETATM   11  C13 UNK     1      18.367   0.093  33.909  1.00  0.00     0.039 A 
ENDROOT
BRANCH   3  12
HETATM   12  C2  UNK     1      17.759   5.941  32.611  1.00  0.00     0.037 A 
HETATM   13  C7  UNK     1      18.671   6.741  33.300  1.00  0.00     0.114 A 
HETATM   14  C11 UNK     1      18.329   8.046  33.657  1.00  0.00     0.102 A 
HETATM   15  C15 UNK     1      17.072   8.551  33.324  1.00  0.00     0.040 A 
HETATM   16  C14 UNK     1      16.159   7.754  32.634  1.00  0.00     0.004 A 
HETATM   17  C9  UNK     1      16.503   6.450  32.278  1.00  0.00     0.017 A 
BRANCH  13  18
HETATM   18  O2  UNK     1      19.905   6.258  33.633  1.00  0.00    -0.352 OA
HETATM   19  C16 UNK     1      20.965   6.504  32.713  1.00  0.00     0.210 C 
ENDBRANCH  13  18
BRANCH  14  20
HETATM   20  O4  UNK     1      19.211   8.836  34.330  1.00  0.00    -0.353 OA
HETATM   21  C17 UNK     1      19.105  10.243  34.128  1.00  0.00     0.210 C 
ENDBRANCH  14  20
ENDBRANCH   3  12
BRANCH   6  22
HETATM   22  O3  UNK     1      18.664   5.169  29.974  1.00  0.00    -0.355 OA
HETATM   23  H7  UNK     1      19.204   4.795  29.261  1.00  0.00     0.218 HD
ENDBRANCH   6  22
BRANCH  10  24
HETATM   24  O5  UNK     1      19.066  -1.698  32.496  1.00  0.00    -0.356 OA
HETATM   25  C18 UNK     1      20.156  -2.033  31.638  1.00  0.00     0.210 C 
ENDBRANCH  10  24
TORSDOF 5
ENDMDL
MODEL 5
REMARK VINA RESULT:      -7.5     23.271     25.384
REMARK  5 active torsions:
REMARK  status: ('A' for Active; 'I' for Inactive)
REMARK    1  A    between atoms: C7_13  and  O2_2 
REMARK    2  A    between atoms: C5_11  and  O3_3 
REMARK    3  A    between atoms: C11_17  and  O4_4 
REMARK    4  A    between atoms: C12_18  and  O5_5 
REMARK    5  A    between atoms: C1_7  and  C2_8 
ROOT
HETATM    1  O1  UNK     1      18.435   4.666  33.852  1.00  0.00    -0.306 OA
HETATM    2  O6  UNK     1      18.692   3.467  29.966  1.00  0.00    -0.284 OA
HETATM    3  C1  UNK     1      18.547   5.583  32.818  1.00  0.00     0.126 A 
HETATM    4  C3  UNK     1      18.480   2.857  32.234  1.00  0.00     0.053 A 
HETATM    5  C4  UNK     1      18.399   3.332  33.542  1.00  0.00     0.090 A 
HETATM    6  C5  UNK     1      18.642   5.257  31.516  1.00  0.00     0.152 A 
HETATM    7  C6  UNK     1      18.612   3.824  31.134  1.00  0.00     0.220 A 
HETATM    8  C8  UNK     1      18.439   1.484  31.978  1.00  0.00     0.055 A 
HETATM    9  C10 UNK     1      18.277   2.435  34.604  1.00  0.00     0.041 A 
HETATM   10  C12 UNK     1      18.317   0.589  33.042  1.00  0.00     0.069 A 
HETATM   11  C13 UNK     1      18.236   1.063  34.352  1.00  0.00     0.039 A 
ENDROOT
BRANCH   3  12
HETATM   12  C2  UNK     1      18.574   6.980  33.288  1.00  0.00     0.037 A 
HETATM   13  C7  UNK     1      17.423   7.769  33.283  1.00  0.00     0.114 A 
HETATM   14  C11 UNK     1      17.475   9.088  33.734  1.00  0.00     0.102 A 
HETATM   15  C15 UNK     1      18.681   9.620  34.192  1.00  0.00     0.040 A 
HETATM   16  C14 UNK     1      19.832   8.833  34.199  1.00  0.00     0.004 A 
HETATM   17  C9  UNK     1      19.779   7.515  33.748  1.00  0.00     0.017 A 
BRANCH  13  18
HETATM   18  O2  UNK     1      16.236   7.261  32.837  1.00  0.00    -0.352 OA
HETATM   19  C16 UNK     1      15.769   7.725  31.573  1.00  0.00     0.210 C 
ENDBRANCH  13  18
BRANCH  14  20
HETATM   20  O4  UNK     1      16.358   9.867  33.733  1.00  0.00    -0.353 OA
HETATM   21  C17 UNK     1      15.615   9.936  34.948  1.00  0.00     0.210 C 
ENDBRANCH  14  20
ENDBRANCH   3  12
BRANCH   6  22
HETATM   22  O3  UNK     1      18.786   6.192  30.514  1.00  0.00    -0.355 OA
HETATM   23  H7  UNK     1      17.916   6.415  30.145  1.00  0.00     0.218 HD
ENDBRANCH   6  22
BRANCH  10  24
HETATM   24  O5  UNK     1      18.279  -0.750  32.802  1.00  0.00    -0.356 OA
HETATM   25  C18 UNK     1      19.386  -1.315  32.101  1.00  0.00     0.210 C 
ENDBRANCH  10  24
TORSDOF 5
ENDMDL
MODEL 6
REMARK VINA RESULT:      -7.5     22.819     24.956
REMARK  5 active torsions:
REMARK  status: ('A' for Active; 'I' for Inactive)
REMARK    1  A    between atoms: C7_13  and  O2_2 
REMARK    2  A    between atoms: C5_11  and  O3_3 
REMARK    3  A    between atoms: C11_17  and  O4_4 
REMARK    4  A    between atoms: C12_18  and  O5_5 
REMARK    5  A    between atoms: C1_7  and  C2_8 
ROOT
HETATM    1  O1  UNK     1      18.248   4.092  31.184  1.00  0.00    -0.306 OA
HETATM    2  O6  UNK     1      18.736   1.313  34.124  1.00  0.00    -0.284 OA
HETATM    3  C1  UNK     1      18.074   4.415  32.521  1.00  0.00     0.126 A 
HETATM    4  C3  UNK     1      18.789   1.813  31.820  1.00  0.00     0.053 A 
HETATM    5  C4  UNK     1      18.604   2.809  30.863  1.00  0.00     0.090 A 
HETATM    6  C5  UNK     1      18.212   3.547  33.540  1.00  0.00     0.152 A 
HETATM    7  C6  UNK     1      18.593   2.146  33.239  1.00  0.00     0.220 A 
HETATM    8  C8  UNK     1      19.152   0.520  31.433  1.00  0.00     0.055 A 
HETATM    9  C10 UNK     1      18.780   2.517  29.509  1.00  0.00     0.041 A 
HETATM   10  C12 UNK     1      19.327   0.232  30.078  1.00  0.00     0.069 A 
HETATM   11  C13 UNK     1      19.142   1.228  29.119  1.00  0.00     0.039 A 
ENDROOT
BRANCH   3  12
HETATM   12  C2  UNK     1      17.692   5.824  32.728  1.00  0.00     0.037 A 
HETATM   13  C7  UNK     1      18.562   6.727  33.341  1.00  0.00     0.114 A 
HETATM   14  C11 UNK     1      18.177   8.056  33.523  1.00  0.00     0.102 A 
HETATM   15  C15 UNK     1      16.921   8.483  33.094  1.00  0.00     0.040 A 
HETATM   16  C14 UNK     1      16.050   7.582  32.480  1.00  0.00     0.004 A 
HETATM   17  C9  UNK     1      16.435   6.254  32.298  1.00  0.00     0.017 A 
BRANCH  13  18
HETATM   18  O2  UNK     1      19.794   6.323  33.767  1.00  0.00    -0.352 OA
HETATM   19  C16 UNK     1      20.872   6.451  32.844  1.00  0.00     0.210 C 
ENDBRANCH  13  18
BRANCH  14  20
HETATM   20  O4  UNK     1      19.017   8.946  34.120  1.00  0.00    -0.353 OA
HETATM   21  C17 UNK     1      18.717  10.331  33.957  1.00  0.00     0.210 C 
ENDBRANCH  14  20
ENDBRANCH   3  12
BRANCH   6  22
HETATM   22  O3  UNK     1      18.000   3.892  34.858  1.00  0.00    -0.355 OA
HETATM   23  H7  UNK     1      18.617   3.408  35.428  1.00  0.00     0.218 HD
ENDBRANCH   6  22
BRANCH  10  24
HETATM   24  O5  UNK     1      19.678  -1.026  29.692  1.00  0.00    -0.356 OA
HETATM   25  C18 UNK     1      20.176  -1.900  30.704  1.00  0.00     0.210 C 
ENDBRANCH  10  24
TORSDOF 5
ENDMDL
MODEL 7
REMARK VINA RESULT:      -7.4     22.977     24.859
REMARK  5 active torsions:
REMARK  status: ('A' for Active; 'I' for Inactive)
REMARK    1  A    between atoms: C7_13  and  O2_2 
REMARK    2  A    between atoms: C5_11  and  O3_3 
REMARK    3  A    between atoms: C11_17  and  O4_4 
REMARK    4  A    between atoms: C12_18  and  O5_5 
REMARK    5  A    between atoms: C1_7  and  C2_8 
ROOT
HETATM    1  O1  UNK     1      17.036   7.396  32.171  1.00  0.00    -0.306 OA
HETATM    2  O6  UNK     1      19.884   9.057  34.566  1.00  0.00    -0.284 OA
HETATM    3  C1  UNK     1      18.288   6.820  32.312  1.00  0.00     0.126 A 
HETATM    4  C3  UNK     1      17.690   9.159  33.706  1.00  0.00     0.053 A 
HETATM    5  C4  UNK     1      16.762   8.543  32.870  1.00  0.00     0.090 A 
HETATM    6  C5  UNK     1      19.276   7.317  33.079  1.00  0.00     0.152 A 
HETATM    7  C6  UNK     1      19.026   8.559  33.850  1.00  0.00     0.220 A 
HETATM    8  C8  UNK     1      17.355  10.328  34.393  1.00  0.00     0.055 A 
HETATM    9  C10 UNK     1      15.489   9.095  32.714  1.00  0.00     0.041 A 
HETATM   10  C12 UNK     1      16.081  10.878  34.235  1.00  0.00     0.069 A 
HETATM   11  C13 UNK     1      15.151  10.262  33.398  1.00  0.00     0.039 A 
ENDROOT
BRANCH   3  12
HETATM   12  C2  UNK     1      18.451   5.594  31.509  1.00  0.00     0.037 A 
HETATM   13  C7  UNK     1      18.132   4.339  32.029  1.00  0.00     0.114 A 
HETATM   14  C11 UNK     1      18.294   3.195  31.247  1.00  0.00     0.102 A 
HETATM   15  C15 UNK     1      18.776   3.305  29.943  1.00  0.00     0.040 A 
HETATM   16  C14 UNK     1      19.095   4.558  29.421  1.00  0.00     0.004 A 
HETATM   17  C9  UNK     1      18.933   5.702  30.202  1.00  0.00     0.017 A 
BRANCH  13  18
HETATM   18  O2  UNK     1      17.659   4.217  33.304  1.00  0.00    -0.352 OA
HETATM   19  C16 UNK     1      18.590   3.804  34.301  1.00  0.00     0.210 C 
ENDBRANCH  13  18
BRANCH  14  20
HETATM   20  O4  UNK     1      17.986   1.965  31.744  1.00  0.00    -0.353 OA
HETATM   21  C17 UNK     1      18.973   0.945  31.608  1.00  0.00     0.210 C 
ENDBRANCH  14  20
ENDBRANCH   3  12
BRANCH   6  22
HETATM   22  O3  UNK     1      20.523   6.737  33.172  1.00  0.00    -0.355 OA
HETATM   23  H7  UNK     1      20.633   6.333  34.047  1.00  0.00     0.218 HD
ENDBRANCH   6  22
BRANCH  10  24
HETATM   24  O5  UNK     1      15.747  12.018  34.899  1.00  0.00    -0.356 OA
HETATM   25  C18 UNK     1      16.722  13.060  34.931  1.00  0.00     0.210 C 
ENDBRANCH  10  24
TORSDOF 5
ENDMDL
MODEL 8
REMARK VINA RESULT:      -7.3      1.219      1.693
REMARK  5 active torsions:
REMARK  status: ('A' for Active; 'I' for Inactive)
REMARK    1  A    between atoms: C7_13  and  O2_2 
REMARK    2  A    between atoms: C5_11  and  O3_3 
REMARK    3  A    between atoms: C11_17  and  O4_4 
REMARK    4  A    between atoms: C12_18  and  O5_5 
REMARK    5  A    between atoms: C1_7  and  C2_8 
ROOT
HETATM    1  O1  UNK     1      14.127   9.154   8.274  1.00  0.00    -0.306 OA
HETATM    2  O6  UNK     1      16.670   7.458  10.969  1.00  0.00    -0.284 OA
HETATM    3  C1  UNK     1      13.834   7.943   8.882  1.00  0.00     0.126 A 
HETATM    4  C3  UNK     1      16.205   9.262   9.523  1.00  0.00     0.053 A 
HETATM    5  C4  UNK     1      15.295   9.787   8.608  1.00  0.00     0.090 A 
HETATM    6  C5  UNK     1      14.629   7.324   9.774  1.00  0.00     0.152 A 
HETATM    7  C6  UNK     1      15.907   7.971  10.162  1.00  0.00     0.220 A 
HETATM    8  C8  UNK     1      17.382   9.953   9.823  1.00  0.00     0.055 A 
HETATM    9  C10 UNK     1      15.557  11.008   7.985  1.00  0.00     0.041 A 
HETATM   10  C12 UNK     1      17.642  11.174   9.199  1.00  0.00     0.069 A 
HETATM   11  C13 UNK     1      16.731  11.701   8.282  1.00  0.00     0.039 A 
ENDROOT
BRANCH   3  12
HETATM   12  C2  UNK     1      12.551   7.370   8.436  1.00  0.00     0.037 A 
HETATM   13  C7  UNK     1      11.364   7.627   9.124  1.00  0.00     0.114 A 
HETATM   14  C11 UNK     1      10.163   7.074   8.680  1.00  0.00     0.102 A 
HETATM   15  C15 UNK     1      10.147   6.262   7.546  1.00  0.00     0.040 A 
HETATM   16  C14 UNK     1      11.332   6.005   6.856  1.00  0.00     0.004 A 
HETATM   17  C9  UNK     1      12.532   6.558   7.300  1.00  0.00     0.017 A 
BRANCH  13  18
HETATM   18  O2  UNK     1      11.365   8.419  10.236  1.00  0.00    -0.352 OA
HETATM   19  C16 UNK     1      11.076   9.801  10.045  1.00  0.00     0.210 C 
ENDBRANCH  13  18
BRANCH  14  20
HETATM   20  O4  UNK     1       8.999   7.317   9.344  1.00  0.00    -0.353 OA
HETATM   21  C17 UNK     1       7.798   7.301   8.574  1.00  0.00     0.210 C 
ENDBRANCH  14  20
ENDBRANCH   3  12
BRANCH   6  22
HETATM   22  O3  UNK     1      14.324   6.103  10.336  1.00  0.00    -0.355 OA
HETATM   23  H7  UNK     1      14.873   5.958  11.123  1.00  0.00     0.218 HD
ENDBRANCH   6  22
BRANCH  10  24
HETATM   24  O5  UNK     1      18.787  11.852   9.484  1.00  0.00    -0.356 OA
HETATM   25  C18 UNK     1      19.560  12.313   8.377  1.00  0.00     0.210 C 
ENDBRANCH  10  24
TORSDOF 5
ENDMDL
MODEL 9
REMARK VINA RESULT:      -7.2     28.904     31.172
REMARK  5 active torsions:
REMARK  status: ('A' for Active; 'I' for Inactive)
REMARK    1  A    between atoms: C7_13  and  O2_2 
REMARK    2  A    between atoms: C5_11  and  O3_3 
REMARK    3  A    between atoms: C11_17  and  O4_4 
REMARK    4  A    between atoms: C12_18  and  O5_5 
REMARK    5  A    between atoms: C1_7  and  C2_8 
ROOT
HETATM    1  O1  UNK     1      18.506  -4.560  36.444  1.00  0.00    -0.306 OA
HETATM    2  O6  UNK     1      22.245  -5.429  37.814  1.00  0.00    -0.284 OA
HETATM    3  C1  UNK     1      19.387  -3.560  36.825  1.00  0.00     0.126 A 
HETATM    4  C3  UNK     1      20.188  -6.226  36.981  1.00  0.00     0.053 A 
HETATM    5  C4  UNK     1      18.922  -5.863  36.524  1.00  0.00     0.090 A 
HETATM    6  C5  UNK     1      20.631  -3.776  37.292  1.00  0.00     0.152 A 
HETATM    7  C6  UNK     1      21.122  -5.171  37.400  1.00  0.00     0.220 A 
HETATM    8  C8  UNK     1      20.557  -7.573  37.042  1.00  0.00     0.055 A 
HETATM    9  C10 UNK     1      18.016  -6.846  36.125  1.00  0.00     0.041 A 
HETATM   10  C12 UNK     1      19.648  -8.554  36.641  1.00  0.00     0.069 A 
HETATM   11  C13 UNK     1      18.380  -8.191  36.183  1.00  0.00     0.039 A 
ENDROOT
BRANCH   3  12
HETATM   12  C2  UNK     1      18.816  -2.208  36.691  1.00  0.00     0.037 A 
HETATM   13  C7  UNK     1      19.253  -1.333  35.696  1.00  0.00     0.114 A 
HETATM   14  C11 UNK     1      18.695  -0.058  35.589  1.00  0.00     0.102 A 
HETATM   15  C15 UNK     1      17.699   0.342  36.479  1.00  0.00     0.040 A 
HETATM   16  C14 UNK     1      17.260  -0.531  37.474  1.00  0.00     0.004 A 
HETATM   17  C9  UNK     1      17.817  -1.804  37.580  1.00  0.00     0.017 A 
BRANCH  13  18
HETATM   18  O2  UNK     1      20.228  -1.711  34.818  1.00  0.00    -0.352 OA
HETATM   19  C16 UNK     1      19.806  -2.124  33.521  1.00  0.00     0.210 C 
ENDBRANCH  13  18
BRANCH  14  20
HETATM   20  O4  UNK     1      19.113   0.804  34.622  1.00  0.00    -0.353 OA
HETATM   21  C17 UNK     1      18.155   1.737  34.126  1.00  0.00     0.210 C 
ENDBRANCH  14  20
ENDBRANCH   3  12
BRANCH   6  22
HETATM   22  O3  UNK     1      21.471  -2.760  37.694  1.00  0.00    -0.355 OA
HETATM   23  H7  UNK     1      21.661  -2.174  36.945  1.00  0.00     0.218 HD
ENDBRANCH   6  22
BRANCH  10  24
HETATM   24  O5  UNK     1      19.998  -9.868  36.699  1.00  0.00    -0.356 OA
HETATM   25  C18 UNK     1      19.524 -10.617  37.818  1.00  0.00     0.210 C 
ENDBRANCH  10  24
TORSDOF 5
ENDMDL
MODEL 10
REMARK VINA RESULT:      -7.2     23.977     25.708
REMARK  5 active torsions:
REMARK  status: ('A' for Active; 'I' for Inactive)
REMARK    1  A    between atoms: C7_13  and  O2_2 
REMARK    2  A    between atoms: C5_11  and  O3_3 
REMARK    3  A    between atoms: C11_17  and  O4_4 
REMARK    4  A    between atoms: C12_18  and  O5_5 
REMARK    5  A    between atoms: C1_7  and  C2_8 
ROOT
HETATM    1  O1  UNK     1      17.292   9.418  34.436  1.00  0.00    -0.306 OA
HETATM    2  O6  UNK     1      15.614   8.070  30.976  1.00  0.00    -0.284 OA
HETATM    3  C1  UNK     1      16.066   9.890  33.995  1.00  0.00     0.126 A 
HETATM    4  C3  UNK     1      17.413   7.964  32.496  1.00  0.00     0.053 A 
HETATM    5  C4  UNK     1      17.935   8.468  33.686  1.00  0.00     0.090 A 
HETATM    6  C5  UNK     1      15.458   9.495  32.861  1.00  0.00     0.152 A 
HETATM    7  C6  UNK     1      16.119   8.471  32.016  1.00  0.00     0.220 A 
HETATM    8  C8  UNK     1      18.115   6.996  31.773  1.00  0.00     0.055 A 
HETATM    9  C10 UNK     1      19.163   8.006  34.161  1.00  0.00     0.041 A 
HETATM   10  C12 UNK     1      19.343   6.536  32.250  1.00  0.00     0.069 A 
HETATM   11  C13 UNK     1      19.866   7.040  33.442  1.00  0.00     0.039 A 
ENDROOT
BRANCH   3  12
HETATM   12  C2  UNK     1      15.484  10.906  34.891  1.00  0.00     0.037 A 
HETATM   13  C7  UNK     1      15.903  12.237  34.846  1.00  0.00     0.114 A 
HETATM   14  C11 UNK     1      15.336  13.180  35.704  1.00  0.00     0.102 A 
HETATM   15  C15 UNK     1      14.349  12.792  36.610  1.00  0.00     0.040 A 
HETATM   16  C14 UNK     1      13.928  11.463  36.656  1.00  0.00     0.004 A 
HETATM   17  C9  UNK     1      14.495  10.521  35.798  1.00  0.00     0.017 A 
BRANCH  13  18
HETATM   18  O2  UNK     1      16.870  12.630  33.965  1.00  0.00    -0.352 OA
HETATM   19  C16 UNK     1      18.195  12.756  34.473  1.00  0.00     0.210 C 
ENDBRANCH  13  18
BRANCH  14  20
HETATM   20  O4  UNK     1      15.737  14.481  35.669  1.00  0.00    -0.353 OA
HETATM   21  C17 UNK     1      14.908  15.396  34.957  1.00  0.00     0.210 C 
ENDBRANCH  14  20
ENDBRANCH   3  12
BRANCH   6  22
HETATM   22  O3  UNK     1      14.253  10.009  32.434  1.00  0.00    -0.355 OA
HETATM   23  H7  UNK     1      14.161   9.878  31.477  1.00  0.00     0.218 HD
ENDBRANCH   6  22
BRANCH  10  24
HETATM   24  O5  UNK     1      20.034   5.594  31.550  1.00  0.00    -0.356 OA
HETATM   25  C18 UNK     1      20.144   5.785  30.140  1.00  0.00     0.210 C 
ENDBRANCH  10  24
TORSDOF 5
ENDMDL
