MODEL 1
REMARK VINA RESULT:     -10.1      0.000      0.000
REMARK  5 active torsions:
REMARK  status: ('A' for Active; 'I' for Inactive)
REMARK    1  A    between atoms: C5_11  and  N1_4 
REMARK    2  A    between atoms: C6_12  and  N2_5 
REMARK    3  A    between atoms: C5_11  and  C7_13 
REMARK    4  A    between atoms: C6_12  and  C8_14 
REMARK    5  A    between atoms: C14_20  and  C20_26 
ROOT
HETATM    1  N1  UNK     1      19.791  -4.350  36.586  1.00  0.00     0.096 N 
HETATM    2  N2  UNK     1      18.815  -1.659  36.178  1.00  0.00     0.097 N 
HETATM    3  C1  UNK     1      18.371  -4.018  36.764  1.00  0.00     0.303 C 
HETATM    4  C2  UNK     1      20.403  -3.459  35.593  1.00  0.00     0.303 C 
HETATM    5  C3  UNK     1      18.201  -2.550  37.169  1.00  0.00     0.303 C 
HETATM    6  C4  UNK     1      20.233  -1.991  35.998  1.00  0.00     0.303 C 
ENDROOT
BRANCH   2   7
HETATM    7  C6  UNK     1      18.654  -0.259  36.568  1.00  0.00     0.334 C 
BRANCH   7   8
HETATM    8  C8  UNK     1      18.111   0.515  35.410  1.00  0.00     0.095 A 
HETATM    9  C10 UNK     1      16.883   0.418  34.805  1.00  0.00     0.078 A 
HETATM   10  O1  UNK     1      16.842   1.327  33.792  1.00  0.00    -0.294 OA
HETATM   11  C16 UNK     1      15.687  -0.407  35.013  1.00  0.00     0.079 C 
HETATM   12  C14 UNK     1      18.064   1.924  33.849  1.00  0.00     0.180 A 
HETATM   13  N3  UNK     1      18.863   1.482  34.793  1.00  0.00    -0.224 NA
BRANCH  12  14
HETATM   14  C20 UNK     1      18.291   2.947  32.867  1.00  0.00     0.017 A 
HETATM   15  C22 UNK     1      18.336   4.286  33.252  1.00  0.00     0.016 A 
HETATM   16  C24 UNK     1      18.556   5.280  32.298  1.00  0.00     0.007 A 
HETATM   17  C26 UNK     1      18.732   4.934  30.959  1.00  0.00    -0.062 A 
HETATM   18  C25 UNK     1      18.686   3.594  30.573  1.00  0.00     0.007 A 
HETATM   19  C27 UNK     1      18.968   5.996  29.939  1.00  0.00     0.048 C 
HETATM   20  C23 UNK     1      18.466   2.600  31.526  1.00  0.00     0.016 A 
ENDBRANCH  12  14
ENDBRANCH   7   8
ENDBRANCH   2   7
BRANCH   1  21
HETATM   21  C5  UNK     1      19.952  -5.749  36.198  1.00  0.00     0.312 C 
BRANCH  21  22
HETATM   22  C7  UNK     1      21.069  -6.411  36.928  1.00  0.00    -0.011 A 
HETATM   23  C11 UNK     1      21.664  -5.815  37.971  1.00  0.00     0.092 A 
HETATM   24  C15 UNK     1      22.770  -6.430  38.724  1.00  0.00     0.288 A 
HETATM   25  O2  UNK     1      23.188  -7.683  38.304  1.00  0.00    -0.275 OA
HETATM   26  O3  UNK     1      23.292  -5.855  39.673  1.00  0.00    -0.260 OA
HETATM   27  C12 UNK     1      22.580  -8.335  37.212  1.00  0.00     0.090 A 
HETATM   28  C9  UNK     1      21.533  -7.739  36.508  1.00  0.00     0.006 A 
HETATM   29  C17 UNK     1      23.083  -9.594  36.878  1.00  0.00     0.045 A 
HETATM   30  C13 UNK     1      20.984  -8.452  35.433  1.00  0.00     0.015 A 
HETATM   31  C18 UNK     1      21.476  -9.715  35.086  1.00  0.00     0.007 A 
HETATM   32  C19 UNK     1      22.524 -10.285  35.808  1.00  0.00    -0.059 A 
HETATM   33  C21 UNK     1      23.044 -11.632  35.433  1.00  0.00     0.048 C 
ENDBRANCH  21  22
ENDBRANCH   1  21
TORSDOF 5
ENDMDL
MODEL 2
REMARK VINA RESULT:      -9.6      6.014     15.158
REMARK  5 active torsions:
REMARK  status: ('A' for Active; 'I' for Inactive)
REMARK    1  A    between atoms: C5_11  and  N1_4 
REMARK    2  A    between atoms: C6_12  and  N2_5 
REMARK    3  A    between atoms: C5_11  and  C7_13 
REMARK    4  A    between atoms: C6_12  and  C8_14 
REMARK    5  A    between atoms: C14_20  and  C20_26 
ROOT
HETATM    1  N1  UNK     1      16.403   8.616  33.830  1.00  0.00     0.096 N 
HETATM    2  N2  UNK     1      17.580   6.200  32.765  1.00  0.00     0.097 N 
HETATM    3  C1  UNK     1      15.589   7.421  33.569  1.00  0.00     0.303 C 
HETATM    4  C2  UNK     1      17.783   8.234  34.153  1.00  0.00     0.303 C 
HETATM    5  C3  UNK     1      16.200   6.580  32.443  1.00  0.00     0.303 C 
HETATM    6  C4  UNK     1      18.394   7.393  33.027  1.00  0.00     0.303 C 
ENDROOT
BRANCH   2   7
HETATM    7  C6  UNK     1      18.162   5.399  31.688  1.00  0.00     0.334 C 
BRANCH   7   8
HETATM    8  C8  UNK     1      18.190   3.963  32.101  1.00  0.00     0.095 A 
HETATM    9  C10 UNK     1      18.275   2.840  31.318  1.00  0.00     0.078 A 
HETATM   10  O1  UNK     1      18.268   1.754  32.140  1.00  0.00    -0.294 OA
HETATM   11  C16 UNK     1      18.366   2.586  29.875  1.00  0.00     0.079 C 
HETATM   12  C14 UNK     1      18.177   2.297  33.384  1.00  0.00     0.180 A 
HETATM   13  N3  UNK     1      18.128   3.609  33.425  1.00  0.00    -0.224 NA
BRANCH  12  14
HETATM   14  C20 UNK     1      18.151   1.350  34.464  1.00  0.00     0.017 A 
HETATM   15  C22 UNK     1      18.211  -0.017  34.195  1.00  0.00     0.016 A 
HETATM   16  C24 UNK     1      18.185  -0.937  35.243  1.00  0.00     0.007 A 
HETATM   17  C26 UNK     1      18.098  -0.489  36.561  1.00  0.00    -0.062 A 
HETATM   18  C25 UNK     1      18.036   0.878  36.831  1.00  0.00     0.007 A 
HETATM   19  C27 UNK     1      18.071  -1.472  37.682  1.00  0.00     0.048 C 
HETATM   20  C23 UNK     1      18.063   1.798  35.783  1.00  0.00     0.016 A 
ENDBRANCH  12  14
ENDBRANCH   7   8
ENDBRANCH   2   7
BRANCH   1  21
HETATM   21  C5  UNK     1      15.821   9.417  34.905  1.00  0.00     0.312 C 
BRANCH  21  22
HETATM   22  C7  UNK     1      15.128  10.630  34.390  1.00  0.00    -0.011 A 
HETATM   23  C11 UNK     1      13.811  10.624  34.143  1.00  0.00     0.092 A 
HETATM   24  C15 UNK     1      13.083  11.799  33.636  1.00  0.00     0.288 A 
HETATM   25  O2  UNK     1      13.829  12.946  33.415  1.00  0.00    -0.275 OA
HETATM   26  O3  UNK     1      11.876  11.756  33.421  1.00  0.00    -0.260 OA
HETATM   27  C12 UNK     1      15.215  12.983  33.667  1.00  0.00     0.090 A 
HETATM   28  C9  UNK     1      15.891  11.861  34.148  1.00  0.00     0.006 A 
HETATM   29  C17 UNK     1      15.864  14.192  33.409  1.00  0.00     0.045 A 
HETATM   30  C13 UNK     1      17.270  11.980  34.371  1.00  0.00     0.015 A 
HETATM   31  C18 UNK     1      17.935  13.185  34.117  1.00  0.00     0.007 A 
HETATM   32  C19 UNK     1      17.233  14.289  33.637  1.00  0.00    -0.059 A 
HETATM   33  C21 UNK     1      17.948  15.570  33.370  1.00  0.00     0.048 C 
ENDBRANCH  21  22
ENDBRANCH   1  21
TORSDOF 5
ENDMDL
MODEL 3
REMARK VINA RESULT:      -9.5      6.162     15.215
REMARK  5 active torsions:
REMARK  status: ('A' for Active; 'I' for Inactive)
REMARK    1  A    between atoms: C5_11  and  N1_4 
REMARK    2  A    between atoms: C6_12  and  N2_5 
REMARK    3  A    between atoms: C5_11  and  C7_13 
REMARK    4  A    between atoms: C6_12  and  C8_14 
REMARK    5  A    between atoms: C14_20  and  C20_26 
ROOT
HETATM    1  N1  UNK     1      16.818   8.807  33.616  1.00  0.00     0.096 N 
HETATM    2  N2  UNK     1      17.618   6.254  32.520  1.00  0.00     0.097 N 
HETATM    3  C1  UNK     1      15.824   7.834  33.145  1.00  0.00     0.303 C 
HETATM    4  C2  UNK     1      18.024   8.118  34.092  1.00  0.00     0.303 C 
HETATM    5  C3  UNK     1      16.412   6.943  32.046  1.00  0.00     0.303 C 
HETATM    6  C4  UNK     1      18.612   7.226  32.993  1.00  0.00     0.303 C 
ENDROOT
BRANCH   2   7
HETATM    7  C6  UNK     1      18.179   5.407  31.469  1.00  0.00     0.334 C 
BRANCH   7   8
HETATM    8  C8  UNK     1      18.203   3.988  31.941  1.00  0.00     0.095 A 
HETATM    9  C10 UNK     1      18.309   2.835  31.205  1.00  0.00     0.078 A 
HETATM   10  O1  UNK     1      18.288   1.783  32.070  1.00  0.00    -0.294 OA
HETATM   11  C16 UNK     1      18.430   2.524  29.776  1.00  0.00     0.079 C 
HETATM   12  C14 UNK     1      18.170   2.375  33.289  1.00  0.00     0.180 A 
HETATM   13  N3  UNK     1      18.115   3.687  33.276  1.00  0.00    -0.224 NA
BRANCH  12  14
HETATM   14  C20 UNK     1      18.123   1.472  34.406  1.00  0.00     0.017 A 
HETATM   15  C22 UNK     1      18.064   0.096  34.188  1.00  0.00     0.016 A 
HETATM   16  C24 UNK     1      18.019  -0.781  35.272  1.00  0.00     0.007 A 
HETATM   17  C26 UNK     1      18.033  -0.281  36.574  1.00  0.00    -0.062 A 
HETATM   18  C25 UNK     1      18.091   1.095  36.792  1.00  0.00     0.007 A 
HETATM   19  C27 UNK     1      17.985  -1.218  37.733  1.00  0.00     0.048 C 
HETATM   20  C23 UNK     1      18.137   1.972  35.708  1.00  0.00     0.016 A 
ENDBRANCH  12  14
ENDBRANCH   7   8
ENDBRANCH   2   7
BRANCH   1  21
HETATM   21  C5  UNK     1      16.257   9.656  34.665  1.00  0.00     0.312 C 
BRANCH  21  22
HETATM   22  C7  UNK     1      16.265  11.097  34.287  1.00  0.00    -0.011 A 
HETATM   23  C11 UNK     1      17.407  11.797  34.247  1.00  0.00     0.092 A 
HETATM   24  C15 UNK     1      17.464  13.221  33.879  1.00  0.00     0.288 A 
HETATM   25  O2  UNK     1      16.260  13.832  33.566  1.00  0.00    -0.275 OA
HETATM   26  O3  UNK     1      18.529  13.829  33.853  1.00  0.00    -0.260 OA
HETATM   27  C12 UNK     1      15.043  13.121  33.598  1.00  0.00     0.090 A 
HETATM   28  C9  UNK     1      15.005  11.772  33.950  1.00  0.00     0.006 A 
HETATM   29  C17 UNK     1      13.893  13.838  33.265  1.00  0.00     0.045 A 
HETATM   30  C13 UNK     1      13.755  11.138  33.959  1.00  0.00     0.015 A 
HETATM   31  C18 UNK     1      12.592  11.843  33.627  1.00  0.00     0.007 A 
HETATM   32  C19 UNK     1      12.662  13.191  33.280  1.00  0.00    -0.059 A 
HETATM   33  C21 UNK     1      11.420  13.936  32.926  1.00  0.00     0.048 C 
ENDBRANCH  21  22
ENDBRANCH   1  21
TORSDOF 5
ENDMDL
MODEL 4
REMARK VINA RESULT:      -9.5      3.283     11.006
REMARK  5 active torsions:
REMARK  status: ('A' for Active; 'I' for Inactive)
REMARK    1  A    between atoms: C5_11  and  N1_4 
REMARK    2  A    between atoms: C6_12  and  N2_5 
REMARK    3  A    between atoms: C5_11  and  C7_13 
REMARK    4  A    between atoms: C6_12  and  C8_14 
REMARK    5  A    between atoms: C14_20  and  C20_26 
ROOT
HETATM    1  N1  UNK     1      19.994  -3.762  36.691  1.00  0.00     0.096 N 
HETATM    2  N2  UNK     1      20.894  -6.508  36.752  1.00  0.00     0.097 N 
HETATM    3  C1  UNK     1      20.933  -4.235  37.717  1.00  0.00     0.303 C 
HETATM    4  C2  UNK     1      20.152  -4.540  35.456  1.00  0.00     0.303 C 
HETATM    5  C3  UNK     1      20.738  -5.730  37.986  1.00  0.00     0.303 C 
HETATM    6  C4  UNK     1      19.957  -6.035  35.725  1.00  0.00     0.303 C 
ENDROOT
BRANCH   2   7
HETATM    7  C6  UNK     1      20.705  -7.935  37.010  1.00  0.00     0.334 C 
BRANCH   7   8
HETATM    8  C8  UNK     1      22.016  -8.639  36.867  1.00  0.00     0.095 A 
HETATM    9  C10 UNK     1      22.313  -9.779  36.162  1.00  0.00     0.078 A 
HETATM   10  O1  UNK     1      23.639 -10.040  36.326  1.00  0.00    -0.294 OA
HETATM   11  C16 UNK     1      21.546 -10.709  35.326  1.00  0.00     0.079 C 
HETATM   12  C14 UNK     1      24.066  -9.028  37.130  1.00  0.00     0.180 A 
HETATM   13  N3  UNK     1      23.144  -8.163  37.485  1.00  0.00    -0.224 NA
BRANCH  12  14
HETATM   14  C20 UNK     1      25.462  -9.063  37.467  1.00  0.00     0.017 A 
HETATM   15  C22 UNK     1      25.898  -8.549  38.687  1.00  0.00     0.016 A 
HETATM   16  C24 UNK     1      27.254  -8.582  39.015  1.00  0.00     0.007 A 
HETATM   17  C26 UNK     1      28.174  -9.129  38.121  1.00  0.00    -0.062 A 
HETATM   18  C25 UNK     1      27.738  -9.642  36.899  1.00  0.00     0.007 A 
HETATM   19  C27 UNK     1      29.623  -9.165  38.470  1.00  0.00     0.048 C 
HETATM   20  C23 UNK     1      26.382  -9.610  36.571  1.00  0.00     0.016 A 
ENDBRANCH  12  14
ENDBRANCH   7   8
ENDBRANCH   2   7
BRANCH   1  21
HETATM   21  C5  UNK     1      20.181  -2.336  36.434  1.00  0.00     0.312 C 
BRANCH  21  22
HETATM   22  C7  UNK     1      19.204  -1.810  35.440  1.00  0.00    -0.011 A 
HETATM   23  C11 UNK     1      18.012  -1.335  35.824  1.00  0.00     0.092 A 
HETATM   24  C15 UNK     1      17.016  -0.804  34.878  1.00  0.00     0.288 A 
HETATM   25  O2  UNK     1      17.364  -0.814  33.537  1.00  0.00    -0.275 OA
HETATM   26  O3  UNK     1      15.933  -0.378  35.267  1.00  0.00    -0.260 OA
HETATM   27  C12 UNK     1      18.611  -1.306  33.103  1.00  0.00     0.090 A 
HETATM   28  C9  UNK     1      19.545  -1.806  34.011  1.00  0.00     0.006 A 
HETATM   29  C17 UNK     1      18.854  -1.266  31.729  1.00  0.00     0.045 A 
HETATM   30  C13 UNK     1      20.761  -2.278  33.498  1.00  0.00     0.015 A 
HETATM   31  C18 UNK     1      21.020  -2.245  32.124  1.00  0.00     0.007 A 
HETATM   32  C19 UNK     1      20.067  -1.740  31.240  1.00  0.00    -0.059 A 
HETATM   33  C21 UNK     1      20.349  -1.707  29.776  1.00  0.00     0.048 C 
ENDBRANCH  21  22
ENDBRANCH   1  21
TORSDOF 5
ENDMDL
MODEL 5
REMARK VINA RESULT:      -9.5      8.569     12.095
REMARK  5 active torsions:
REMARK  status: ('A' for Active; 'I' for Inactive)
REMARK    1  A    between atoms: C5_11  and  N1_4 
REMARK    2  A    between atoms: C6_12  and  N2_5 
REMARK    3  A    between atoms: C5_11  and  C7_13 
REMARK    4  A    between atoms: C6_12  and  C8_14 
REMARK    5  A    between atoms: C14_20  and  C20_26 
ROOT
HETATM    1  N1  UNK     1      30.343  -6.679  35.170  1.00  0.00     0.096 N 
HETATM    2  N2  UNK     1      29.019  -7.109  37.703  1.00  0.00     0.097 N 
HETATM    3  C1  UNK     1      31.109  -6.930  36.398  1.00  0.00     0.303 C 
HETATM    4  C2  UNK     1      29.031  -7.332  35.242  1.00  0.00     0.303 C 
HETATM    5  C3  UNK     1      30.331  -6.458  37.631  1.00  0.00     0.303 C 
HETATM    6  C4  UNK     1      28.253  -6.860  36.475  1.00  0.00     0.303 C 
ENDROOT
BRANCH   2   7
HETATM    7  C6  UNK     1      28.277  -6.655  38.879  1.00  0.00     0.334 C 
BRANCH   7   8
HETATM    8  C8  UNK     1      27.009  -7.437  38.994  1.00  0.00     0.095 A 
HETATM    9  C10 UNK     1      26.826  -8.731  39.415  1.00  0.00     0.078 A 
HETATM   10  O1  UNK     1      25.495  -9.009  39.350  1.00  0.00    -0.294 OA
HETATM   11  C16 UNK     1      27.711  -9.801  39.888  1.00  0.00     0.079 C 
HETATM   12  C14 UNK     1      24.949  -7.851  38.887  1.00  0.00     0.180 A 
HETATM   13  N3  UNK     1      25.802  -6.878  38.657  1.00  0.00    -0.224 NA
BRANCH  12  14
HETATM   14  C20 UNK     1      23.523  -7.870  38.722  1.00  0.00     0.017 A 
HETATM   15  C22 UNK     1      22.958  -8.478  37.601  1.00  0.00     0.016 A 
HETATM   16  C24 UNK     1      21.573  -8.496  37.440  1.00  0.00     0.007 A 
HETATM   17  C26 UNK     1      20.751  -7.907  38.402  1.00  0.00    -0.062 A 
HETATM   18  C25 UNK     1      21.316  -7.298  39.523  1.00  0.00     0.007 A 
HETATM   19  C27 UNK     1      19.270  -7.926  38.230  1.00  0.00     0.048 C 
HETATM   20  C23 UNK     1      22.701  -7.279  39.683  1.00  0.00     0.016 A 
ENDBRANCH  12  14
ENDBRANCH   7   8
ENDBRANCH   2   7
BRANCH   1  21
HETATM   21  C5  UNK     1      31.084  -7.130  33.994  1.00  0.00     0.312 C 
BRANCH  21  22
HETATM   22  C7  UNK     1      30.533  -6.568  32.730  1.00  0.00    -0.011 A 
HETATM   23  C11 UNK     1      30.497  -5.245  32.518  1.00  0.00     0.092 A 
HETATM   24  C15 UNK     1      29.963  -4.643  31.285  1.00  0.00     0.288 A 
HETATM   25  O2  UNK     1      29.485  -5.518  30.322  1.00  0.00    -0.275 OA
HETATM   26  O3  UNK     1      29.946  -3.427  31.126  1.00  0.00    -0.260 OA
HETATM   27  C12 UNK     1      29.511  -6.913  30.516  1.00  0.00     0.090 A 
HETATM   28  C9  UNK     1      30.020  -7.469  31.691  1.00  0.00     0.006 A 
HETATM   29  C17 UNK     1      29.002  -7.697  29.479  1.00  0.00     0.045 A 
HETATM   30  C13 UNK     1      30.008  -8.866  31.806  1.00  0.00     0.015 A 
HETATM   31  C18 UNK     1      29.503  -9.666  30.775  1.00  0.00     0.007 A 
HETATM   32  C19 UNK     1      29.001  -9.082  29.613  1.00  0.00    -0.059 A 
HETATM   33  C21 UNK     1      28.464  -9.939  28.518  1.00  0.00     0.048 C 
ENDBRANCH  21  22
ENDBRANCH   1  21
TORSDOF 5
ENDMDL
MODEL 6
REMARK VINA RESULT:      -9.3      2.079      2.820
REMARK  5 active torsions:
REMARK  status: ('A' for Active; 'I' for Inactive)
REMARK    1  A    between atoms: C5_11  and  N1_4 
REMARK    2  A    between atoms: C6_12  and  N2_5 
REMARK    3  A    between atoms: C5_11  and  C7_13 
REMARK    4  A    between atoms: C6_12  and  C8_14 
REMARK    5  A    between atoms: C14_20  and  C20_26 
ROOT
HETATM    1  N1  UNK     1      19.656  -3.561  35.856  1.00  0.00     0.096 N 
HETATM    2  N2  UNK     1      19.118  -0.861  36.737  1.00  0.00     0.097 N 
HETATM    3  C1  UNK     1      20.067  -2.401  35.054  1.00  0.00     0.303 C 
HETATM    4  C2  UNK     1      19.632  -3.215  37.282  1.00  0.00     0.303 C 
HETATM    5  C3  UNK     1      19.143  -1.206  35.311  1.00  0.00     0.303 C 
HETATM    6  C4  UNK     1      18.708  -2.020  37.538  1.00  0.00     0.303 C 
ENDROOT
BRANCH   2   7
HETATM    7  C6  UNK     1      18.233   0.278  36.979  1.00  0.00     0.334 C 
BRANCH   7   8
HETATM    8  C8  UNK     1      17.843   0.886  35.671  1.00  0.00     0.095 A 
HETATM    9  C10 UNK     1      16.783   0.578  34.856  1.00  0.00     0.078 A 
HETATM   10  O1  UNK     1      16.835   1.398  33.771  1.00  0.00    -0.294 OA
HETATM   11  C16 UNK     1      15.680  -0.389  34.911  1.00  0.00     0.079 C 
HETATM   12  C14 UNK     1      17.938   2.161  34.001  1.00  0.00     0.180 A 
HETATM   13  N3  UNK     1      18.580   1.902  35.117  1.00  0.00    -0.224 NA
BRANCH  12  14
HETATM   14  C20 UNK     1      18.232   3.135  32.986  1.00  0.00     0.017 A 
HETATM   15  C22 UNK     1      18.350   4.482  33.325  1.00  0.00     0.016 A 
HETATM   16  C24 UNK     1      18.634   5.428  32.340  1.00  0.00     0.007 A 
HETATM   17  C26 UNK     1      18.801   5.025  31.015  1.00  0.00    -0.062 A 
HETATM   18  C25 UNK     1      18.682   3.677  30.675  1.00  0.00     0.007 A 
HETATM   19  C27 UNK     1      19.105   6.036  29.961  1.00  0.00     0.048 C 
HETATM   20  C23 UNK     1      18.398   2.732  31.660  1.00  0.00     0.016 A 
ENDBRANCH  12  14
ENDBRANCH   7   8
ENDBRANCH   2   7
BRANCH   1  21
HETATM   21  C5  UNK     1      20.539  -4.700  35.612  1.00  0.00     0.312 C 
BRANCH  21  22
HETATM   22  C7  UNK     1      19.964  -5.976  36.120  1.00  0.00    -0.011 A 
HETATM   23  C11 UNK     1      18.870  -6.514  35.564  1.00  0.00     0.092 A 
HETATM   24  C15 UNK     1      18.268  -7.774  36.031  1.00  0.00     0.288 A 
HETATM   25  O2  UNK     1      18.890  -8.403  37.098  1.00  0.00    -0.275 OA
HETATM   26  O3  UNK     1      17.265  -8.236  35.498  1.00  0.00    -0.260 OA
HETATM   27  C12 UNK     1      20.042  -7.862  37.703  1.00  0.00     0.090 A 
HETATM   28  C9  UNK     1      20.602  -6.667  37.249  1.00  0.00     0.006 A 
HETATM   29  C17 UNK     1      20.584  -8.582  38.769  1.00  0.00     0.045 A 
HETATM   30  C13 UNK     1      21.747  -6.196  37.905  1.00  0.00     0.015 A 
HETATM   31  C18 UNK     1      22.302  -6.905  38.975  1.00  0.00     0.007 A 
HETATM   32  C19 UNK     1      21.721  -8.097  39.407  1.00  0.00    -0.059 A 
HETATM   33  C21 UNK     1      22.318  -8.849  40.548  1.00  0.00     0.048 C 
ENDBRANCH  21  22
ENDBRANCH   1  21
TORSDOF 5
ENDMDL
MODEL 7
REMARK VINA RESULT:      -9.2     27.585     29.236
REMARK  5 active torsions:
REMARK  status: ('A' for Active; 'I' for Inactive)
REMARK    1  A    between atoms: C5_11  and  N1_4 
REMARK    2  A    between atoms: C6_12  and  N2_5 
REMARK    3  A    between atoms: C5_11  and  C7_13 
REMARK    4  A    between atoms: C6_12  and  C8_14 
REMARK    5  A    between atoms: C14_20  and  C20_26 
ROOT
HETATM    1  N1  UNK     1      15.369   9.352  10.003  1.00  0.00     0.096 N 
HETATM    2  N2  UNK     1      17.610  11.179   9.984  1.00  0.00     0.097 N 
HETATM    3  C1  UNK     1      16.745   8.874  10.192  1.00  0.00     0.303 C 
HETATM    4  C2  UNK     1      15.234  10.729  10.494  1.00  0.00     0.303 C 
HETATM    5  C3  UNK     1      17.746   9.802   9.495  1.00  0.00     0.303 C 
HETATM    6  C4  UNK     1      16.235  11.657   9.797  1.00  0.00     0.303 C 
ENDROOT
BRANCH   2   7
HETATM    7  C6  UNK     1      18.564  12.063   9.315  1.00  0.00     0.334 C 
BRANCH   7   8
HETATM    8  C8  UNK     1      19.686  12.376  10.252  1.00  0.00     0.095 A 
HETATM    9  C10 UNK     1      19.633  12.899  11.520  1.00  0.00     0.078 A 
HETATM   10  O1  UNK     1      20.909  13.007  11.982  1.00  0.00    -0.294 OA
HETATM   11  C16 UNK     1      18.557  13.337  12.416  1.00  0.00     0.079 C 
HETATM   12  C14 UNK     1      21.663  12.536  10.952  1.00  0.00     0.180 A 
HETATM   13  N3  UNK     1      20.989  12.145   9.894  1.00  0.00    -0.224 NA
BRANCH  12  14
HETATM   14  C20 UNK     1      23.081  12.538  11.180  1.00  0.00     0.017 A 
HETATM   15  C22 UNK     1      23.617  13.283  12.230  1.00  0.00     0.016 A 
HETATM   16  C24 UNK     1      24.994  13.286  12.451  1.00  0.00     0.007 A 
HETATM   17  C26 UNK     1      25.835  12.542  11.624  1.00  0.00    -0.062 A 
HETATM   18  C25 UNK     1      25.299  11.797  10.573  1.00  0.00     0.007 A 
HETATM   19  C27 UNK     1      27.307  12.544  11.861  1.00  0.00     0.048 C 
HETATM   20  C23 UNK     1      23.922  11.794  10.351  1.00  0.00     0.016 A 
ENDBRANCH  12  14
ENDBRANCH   7   8
ENDBRANCH   2   7
BRANCH   1  21
HETATM   21  C5  UNK     1      14.416   8.468  10.669  1.00  0.00     0.312 C 
BRANCH  21  22
HETATM   22  C7  UNK     1      14.282   7.158   9.973  1.00  0.00    -0.011 A 
HETATM   23  C11 UNK     1      15.125   6.148  10.227  1.00  0.00     0.092 A 
HETATM   24  C15 UNK     1      15.031   4.836   9.565  1.00  0.00     0.288 A 
HETATM   25  O2  UNK     1      14.009   4.677   8.642  1.00  0.00    -0.275 OA
HETATM   26  O3  UNK     1      15.822   3.935   9.823  1.00  0.00    -0.260 OA
HETATM   27  C12 UNK     1      13.107   5.720   8.354  1.00  0.00     0.090 A 
HETATM   28  C9  UNK     1      13.209   6.958   8.990  1.00  0.00     0.006 A 
HETATM   29  C17 UNK     1      12.118   5.447   7.407  1.00  0.00     0.045 A 
HETATM   30  C13 UNK     1      12.273   7.944   8.647  1.00  0.00     0.015 A 
HETATM   31  C18 UNK     1      11.276   7.686   7.700  1.00  0.00     0.007 A 
HETATM   32  C19 UNK     1      11.198   6.439   7.081  1.00  0.00    -0.059 A 
HETATM   33  C21 UNK     1      10.133   6.169   6.074  1.00  0.00     0.048 C 
ENDBRANCH  21  22
ENDBRANCH   1  21
TORSDOF 5
ENDMDL
MODEL 8
REMARK VINA RESULT:      -9.2      3.266     11.437
REMARK  5 active torsions:
REMARK  status: ('A' for Active; 'I' for Inactive)
REMARK    1  A    between atoms: C5_11  and  N1_4 
REMARK    2  A    between atoms: C6_12  and  N2_5 
REMARK    3  A    between atoms: C5_11  and  C7_13 
REMARK    4  A    between atoms: C6_12  and  C8_14 
REMARK    5  A    between atoms: C14_20  and  C20_26 
ROOT
HETATM    1  N1  UNK     1      20.150  -3.658  36.581  1.00  0.00     0.096 N 
HETATM    2  N2  UNK     1      20.940  -6.438  36.655  1.00  0.00     0.097 N 
HETATM    3  C1  UNK     1      21.074  -4.162  37.606  1.00  0.00     0.303 C 
HETATM    4  C2  UNK     1      20.271  -4.449  35.351  1.00  0.00     0.303 C 
HETATM    5  C3  UNK     1      20.821  -5.648  37.885  1.00  0.00     0.303 C 
HETATM    6  C4  UNK     1      20.018  -5.934  35.629  1.00  0.00     0.303 C 
ENDROOT
BRANCH   2   7
HETATM    7  C6  UNK     1      20.695  -7.855  36.923  1.00  0.00     0.334 C 
BRANCH   7   8
HETATM    8  C8  UNK     1      21.985  -8.604  36.826  1.00  0.00     0.095 A 
HETATM    9  C10 UNK     1      22.251  -9.790  36.187  1.00  0.00     0.078 A 
HETATM   10  O1  UNK     1      23.568 -10.080  36.373  1.00  0.00    -0.294 OA
HETATM   11  C16 UNK     1      21.460 -10.742  35.400  1.00  0.00     0.079 C 
HETATM   12  C14 UNK     1      24.022  -9.038  37.122  1.00  0.00     0.180 A 
HETATM   13  N3  UNK     1      23.125  -8.127  37.423  1.00  0.00    -0.224 NA
BRANCH  12  14
HETATM   14  C20 UNK     1      25.415  -9.095  37.468  1.00  0.00     0.017 A 
HETATM   15  C22 UNK     1      26.318  -9.737  36.622  1.00  0.00     0.016 A 
HETATM   16  C24 UNK     1      27.671  -9.793  36.958  1.00  0.00     0.007 A 
HETATM   17  C26 UNK     1      28.120  -9.205  38.140  1.00  0.00    -0.062 A 
HETATM   18  C25 UNK     1      27.217  -8.564  38.988  1.00  0.00     0.007 A 
HETATM   19  C27 UNK     1      29.566  -9.264  38.500  1.00  0.00     0.048 C 
HETATM   20  C23 UNK     1      25.864  -8.508  38.651  1.00  0.00     0.016 A 
ENDBRANCH  12  14
ENDBRANCH   7   8
ENDBRANCH   2   7
BRANCH   1  21
HETATM   21  C5  UNK     1      20.393  -2.242  36.315  1.00  0.00     0.312 C 
BRANCH  21  22
HETATM   22  C7  UNK     1      19.458  -1.693  35.294  1.00  0.00    -0.011 A 
HETATM   23  C11 UNK     1      19.686  -1.861  33.984  1.00  0.00     0.092 A 
HETATM   24  C15 UNK     1      18.790  -1.338  32.939  1.00  0.00     0.288 A 
HETATM   25  O2  UNK     1      17.669  -0.645  33.370  1.00  0.00    -0.275 OA
HETATM   26  O3  UNK     1      19.031  -1.510  31.749  1.00  0.00    -0.260 OA
HETATM   27  C12 UNK     1      17.402  -0.454  34.740  1.00  0.00     0.090 A 
HETATM   28  C9  UNK     1      18.261  -0.956  35.719  1.00  0.00     0.006 A 
HETATM   29  C17 UNK     1      16.245   0.258  35.057  1.00  0.00     0.045 A 
HETATM   30  C13 UNK     1      17.925  -0.722  37.060  1.00  0.00     0.015 A 
HETATM   31  C18 UNK     1      16.768  -0.009  37.394  1.00  0.00     0.007 A 
HETATM   32  C19 UNK     1      15.929   0.480  36.394  1.00  0.00    -0.059 A 
HETATM   33  C21 UNK     1      14.697   1.238  36.757  1.00  0.00     0.048 C 
ENDBRANCH  21  22
ENDBRANCH   1  21
TORSDOF 5
ENDMDL
MODEL 9
REMARK VINA RESULT:      -9.2     11.875     17.178
REMARK  5 active torsions:
REMARK  status: ('A' for Active; 'I' for Inactive)
REMARK    1  A    between atoms: C5_11  and  N1_4 
REMARK    2  A    between atoms: C6_12  and  N2_5 
REMARK    3  A    between atoms: C5_11  and  C7_13 
REMARK    4  A    between atoms: C6_12  and  C8_14 
REMARK    5  A    between atoms: C14_20  and  C20_26 
ROOT
HETATM    1  N1  UNK     1      31.768  -5.843  35.718  1.00  0.00     0.096 N 
HETATM    2  N2  UNK     1      34.319  -6.238  34.418  1.00  0.00     0.097 N 
HETATM    3  C1  UNK     1      32.310  -4.848  34.783  1.00  0.00     0.303 C 
HETATM    4  C2  UNK     1      32.245  -7.187  35.369  1.00  0.00     0.303 C 
HETATM    5  C3  UNK     1      33.841  -4.895  34.765  1.00  0.00     0.303 C 
HETATM    6  C4  UNK     1      33.777  -7.233  35.351  1.00  0.00     0.303 C 
ENDROOT
BRANCH   2   7
HETATM    7  C6  UNK     1      35.781  -6.281  34.404  1.00  0.00     0.334 C 
BRANCH   7   8
HETATM    8  C8  UNK     1      36.232  -7.413  33.538  1.00  0.00     0.095 A 
HETATM    9  C10 UNK     1      35.995  -7.627  32.203  1.00  0.00     0.078 A 
HETATM   10  O1  UNK     1      36.607  -8.791  31.850  1.00  0.00    -0.294 OA
HETATM   11  C16 UNK     1      35.268  -6.908  31.151  1.00  0.00     0.079 C 
HETATM   12  C14 UNK     1      37.183  -9.213  33.009  1.00  0.00     0.180 A 
HETATM   13  N3  UNK     1      36.994  -8.433  34.049  1.00  0.00    -0.224 NA
BRANCH  12  14
HETATM   14  C20 UNK     1      37.910 -10.448  32.916  1.00  0.00     0.017 A 
HETATM   15  C22 UNK     1      38.833 -10.638  31.889  1.00  0.00     0.016 A 
HETATM   16  C24 UNK     1      39.540 -11.838  31.798  1.00  0.00     0.007 A 
HETATM   17  C26 UNK     1      39.323 -12.847  32.737  1.00  0.00    -0.062 A 
HETATM   18  C25 UNK     1      38.399 -12.657  33.764  1.00  0.00     0.007 A 
HETATM   19  C27 UNK     1      40.078 -14.129  32.640  1.00  0.00     0.048 C 
HETATM   20  C23 UNK     1      37.692 -11.458  33.854  1.00  0.00     0.016 A 
ENDBRANCH  12  14
ENDBRANCH   7   8
ENDBRANCH   2   7
BRANCH   1  21
HETATM   21  C5  UNK     1      30.307  -5.799  35.734  1.00  0.00     0.312 C 
BRANCH  21  22
HETATM   22  C7  UNK     1      29.761  -5.735  37.118  1.00  0.00    -0.011 A 
HETATM   23  C11 UNK     1      29.875  -4.624  37.858  1.00  0.00     0.092 A 
HETATM   24  C15 UNK     1      29.350  -4.514  39.229  1.00  0.00     0.288 A 
HETATM   25  O2  UNK     1      28.715  -5.633  39.744  1.00  0.00    -0.275 OA
HETATM   26  O3  UNK     1      29.474  -3.480  39.877  1.00  0.00    -0.260 OA
HETATM   27  C12 UNK     1      28.578  -6.815  38.989  1.00  0.00     0.090 A 
HETATM   28  C9  UNK     1      29.081  -6.904  37.691  1.00  0.00     0.006 A 
HETATM   29  C17 UNK     1      27.920  -7.879  39.609  1.00  0.00     0.045 A 
HETATM   30  C13 UNK     1      28.905  -8.116  37.008  1.00  0.00     0.015 A 
HETATM   31  C18 UNK     1      28.248  -9.191  37.615  1.00  0.00     0.007 A 
HETATM   32  C19 UNK     1      27.756  -9.073  38.914  1.00  0.00    -0.059 A 
HETATM   33  C21 UNK     1      27.055 -10.222  39.555  1.00  0.00     0.048 C 
ENDBRANCH  21  22
ENDBRANCH   1  21
TORSDOF 5
ENDMDL
MODEL 10
REMARK VINA RESULT:      -9.1      2.152      3.040
REMARK  5 active torsions:
REMARK  status: ('A' for Active; 'I' for Inactive)
REMARK    1  A    between atoms: C5_11  and  N1_4 
REMARK    2  A    between atoms: C6_12  and  N2_5 
REMARK    3  A    between atoms: C5_11  and  C7_13 
REMARK    4  A    between atoms: C6_12  and  C8_14 
REMARK    5  A    between atoms: C14_20  and  C20_26 
ROOT
HETATM    1  N1  UNK     1      19.214  -3.712  36.297  1.00  0.00     0.096 N 
HETATM    2  N2  UNK     1      17.911  -1.151  35.975  1.00  0.00     0.097 N 
HETATM    3  C1  UNK     1      19.797  -2.659  35.454  1.00  0.00     0.303 C 
HETATM    4  C2  UNK     1      18.420  -3.119  37.380  1.00  0.00     0.303 C 
HETATM    5  C3  UNK     1      18.705  -1.743  34.892  1.00  0.00     0.303 C 
HETATM    6  C4  UNK     1      17.329  -2.202  36.818  1.00  0.00     0.303 C 
ENDROOT
BRANCH   2   7
HETATM    7  C6  UNK     1      16.868  -0.279  35.437  1.00  0.00     0.334 C 
BRANCH   7   8
HETATM    8  C8  UNK     1      17.481   1.014  35.004  1.00  0.00     0.095 A 
HETATM    9  C10 UNK     1      18.120   1.964  35.762  1.00  0.00     0.078 A 
HETATM   10  O1  UNK     1      18.511   2.969  34.931  1.00  0.00    -0.294 OA
HETATM   11  C16 UNK     1      18.444   2.108  37.186  1.00  0.00     0.079 C 
HETATM   12  C14 UNK     1      18.080   2.558  33.708  1.00  0.00     0.180 A 
HETATM   13  N3  UNK     1      17.459   1.400  33.688  1.00  0.00    -0.224 NA
BRANCH  12  14
HETATM   14  C20 UNK     1      18.370   3.454  32.623  1.00  0.00     0.017 A 
HETATM   15  C22 UNK     1      18.522   2.957  31.329  1.00  0.00     0.016 A 
HETATM   16  C24 UNK     1      18.805   3.828  30.276  1.00  0.00     0.007 A 
HETATM   17  C26 UNK     1      18.934   5.196  30.518  1.00  0.00    -0.062 A 
HETATM   18  C25 UNK     1      18.783   5.693  31.813  1.00  0.00     0.007 A 
HETATM   19  C27 UNK     1      19.236   6.126  29.392  1.00  0.00     0.048 C 
HETATM   20  C23 UNK     1      18.500   4.822  32.866  1.00  0.00     0.016 A 
ENDBRANCH  12  14
ENDBRANCH   7   8
ENDBRANCH   2   7
BRANCH   1  21
HETATM   21  C5  UNK     1      20.255  -4.585  36.833  1.00  0.00     0.312 C 
BRANCH  21  22
HETATM   22  C7  UNK     1      20.284  -5.910  36.154  1.00  0.00    -0.011 A 
HETATM   23  C11 UNK     1      20.528  -6.011  34.840  1.00  0.00     0.092 A 
HETATM   24  C15 UNK     1      20.567  -7.298  34.127  1.00  0.00     0.288 A 
HETATM   25  O2  UNK     1      20.337  -8.436  34.883  1.00  0.00    -0.275 OA
HETATM   26  O3  UNK     1      20.793  -7.352  32.923  1.00  0.00    -0.260 OA
HETATM   27  C12 UNK     1      20.079  -8.362  36.267  1.00  0.00     0.090 A 
HETATM   28  C9  UNK     1      20.045  -7.134  36.929  1.00  0.00     0.006 A 
HETATM   29  C17 UNK     1      19.861  -9.572  36.927  1.00  0.00     0.045 A 
HETATM   30  C13 UNK     1      19.780  -7.146  38.306  1.00  0.00     0.015 A 
HETATM   31  C18 UNK     1      19.560  -8.351  38.982  1.00  0.00     0.007 A 
HETATM   32  C19 UNK     1      19.601  -9.562  38.294  1.00  0.00    -0.059 A 
HETATM   33  C21 UNK     1      19.366 -10.843  39.020  1.00  0.00     0.048 C 
ENDBRANCH  21  22
ENDBRANCH   1  21
TORSDOF 5
ENDMDL
