MODEL 1
REMARK VINA RESULT:      -9.7      0.000      0.000
REMARK  5 active torsions:
REMARK  status: ('A' for Active; 'I' for Inactive)
REMARK    1  A    between atoms: C10_17  and  O2_3 
REMARK    2  A    between atoms: C20_27  and  O2_3 
REMARK    3  A    between atoms: C4_11  and  N1_7 
REMARK       I    between atoms: C9_16  and  N1_7 
REMARK    4  A    between atoms: C10_17  and  C2_9 
REMARK    5  A    between atoms: C7_14  and  C9_16 
ROOT
HETATM    1  O3  UNK     1      21.259  -3.939  37.236  1.00  0.00    -0.267 OA
HETATM    2  N1  UNK     1      19.036  -3.879  36.448  1.00  0.00    -0.316 N 
HETATM    3  C9  UNK     1      20.220  -4.476  36.856  1.00  0.00     0.262 C 
HETATM    4  H2  UNK     1      18.249  -4.461  36.177  1.00  0.00     0.169 HD
ENDROOT
BRANCH   2   5
HETATM    5  C4  UNK     1      18.785  -2.505  36.387  1.00  0.00     0.094 A 
HETATM    6  C2  UNK     1      19.088  -1.598  35.425  1.00  0.00     0.085 A 
HETATM    7  C1  UNK     1      18.641  -0.280  35.770  1.00  0.00     0.000 A 
HETATM    8  C3  UNK     1      18.005  -0.270  37.016  1.00  0.00     0.018 A 
HETATM    9  C5  UNK     1      18.749   0.943  35.064  1.00  0.00     0.014 A 
HETATM   10  S1  UNK     1      17.973  -1.845  37.716  1.00  0.00    -0.071 SA
HETATM   11  C6  UNK     1      17.481   0.915  37.567  1.00  0.00     0.020 A 
HETATM   12  C14 UNK     1      17.602   2.106  36.846  1.00  0.00     0.001 A 
HETATM   13  C12 UNK     1      18.229   2.122  35.608  1.00  0.00     0.001 A 
BRANCH   6  14
HETATM   14  C10 UNK     1      19.779  -1.948  34.207  1.00  0.00     0.297 C 
HETATM   15  O4  UNK     1      20.925  -2.420  34.175  1.00  0.00    -0.259 OA
BRANCH  14  16
HETATM   16  O2  UNK     1      19.050  -1.708  33.063  1.00  0.00    -0.318 OA
BRANCH  16  17
HETATM   17  C20 UNK     1      19.785  -1.618  31.837  1.00  0.00     0.174 C 
HETATM   18  C21 UNK     1      19.604  -0.232  31.256  1.00  0.00     0.034 C 
ENDBRANCH  16  17
ENDBRANCH  14  16
ENDBRANCH   6  14
ENDBRANCH   2   5
BRANCH   3  19
HETATM   19  C7  UNK     1      20.142  -5.941  36.799  1.00  0.00     0.108 A 
HETATM   20  C11 UNK     1      19.993  -6.571  37.970  1.00  0.00     0.037 A 
HETATM   21  C8  UNK     1      19.907  -8.023  38.015  1.00  0.00    -0.001 A 
HETATM   22  C13 UNK     1      19.981  -8.740  36.824  1.00  0.00     0.089 A 
HETATM   23  C16 UNK     1      19.752  -8.723  39.214  1.00  0.00     0.014 A 
HETATM   24  O1  UNK     1      20.137  -8.069  35.596  1.00  0.00    -0.274 OA
HETATM   25  C17 UNK     1      19.905 -10.130  36.799  1.00  0.00     0.038 A 
HETATM   26  C15 UNK     1      20.223  -6.682  35.521  1.00  0.00     0.304 A 
HETATM   27  O5  UNK     1      20.361  -6.108  34.445  1.00  0.00    -0.259 OA
HETATM   28  C19 UNK     1      19.750 -10.820  37.999  1.00  0.00     0.003 A 
HETATM   29  C18 UNK     1      19.674 -10.119  39.204  1.00  0.00     0.001 A 
ENDBRANCH   3  19
TORSDOF 5
ENDMDL
MODEL 2
REMARK VINA RESULT:      -9.4      1.702      7.974
REMARK  5 active torsions:
REMARK  status: ('A' for Active; 'I' for Inactive)
REMARK    1  A    between atoms: C10_17  and  O2_3 
REMARK    2  A    between atoms: C20_27  and  O2_3 
REMARK    3  A    between atoms: C4_11  and  N1_7 
REMARK       I    between atoms: C9_16  and  N1_7 
REMARK    4  A    between atoms: C10_17  and  C2_9 
REMARK    5  A    between atoms: C7_14  and  C9_16 
ROOT
HETATM    1  O3  UNK     1      21.366  -4.281  36.831  1.00  0.00    -0.267 OA
HETATM    2  N1  UNK     1      19.106  -4.926  37.044  1.00  0.00    -0.316 N 
HETATM    3  C9  UNK     1      20.158  -4.060  36.778  1.00  0.00     0.262 C 
HETATM    4  H2  UNK     1      18.150  -4.600  36.937  1.00  0.00     0.169 HD
ENDROOT
BRANCH   2   5
HETATM    5  C4  UNK     1      19.220  -6.262  37.438  1.00  0.00     0.094 A 
HETATM    6  C2  UNK     1      18.883  -7.402  36.785  1.00  0.00     0.085 A 
HETATM    7  C1  UNK     1      19.174  -8.572  37.563  1.00  0.00     0.000 A 
HETATM    8  C3  UNK     1      19.732  -8.233  38.800  1.00  0.00     0.018 A 
HETATM    9  C5  UNK     1      18.985  -9.944  37.269  1.00  0.00     0.014 A 
HETATM   10  S1  UNK     1      19.882  -6.524  38.972  1.00  0.00    -0.071 SA
HETATM   11  C6  UNK     1      20.100  -9.217  39.738  1.00  0.00     0.020 A 
HETATM   12  C14 UNK     1      19.901 -10.562  39.417  1.00  0.00     0.001 A 
HETATM   13  C12 UNK     1      19.350 -10.924  38.196  1.00  0.00     0.001 A 
BRANCH   6  14
HETATM   14  C10 UNK     1      18.304  -7.407  35.464  1.00  0.00     0.297 C 
HETATM   15  O4  UNK     1      17.168  -7.832  35.210  1.00  0.00    -0.259 OA
BRANCH  14  16
HETATM   16  O2  UNK     1      19.131  -6.893  34.490  1.00  0.00    -0.318 OA
BRANCH  16  17
HETATM   17  C20 UNK     1      20.484  -7.365  34.477  1.00  0.00     0.174 C 
HETATM   18  C21 UNK     1      21.035  -7.243  33.072  1.00  0.00     0.034 C 
ENDBRANCH  16  17
ENDBRANCH  14  16
ENDBRANCH   6  14
ENDBRANCH   2   5
BRANCH   3  19
HETATM   19  C7  UNK     1      19.683  -2.727  36.389  1.00  0.00     0.108 A 
HETATM   20  C11 UNK     1      18.969  -2.062  37.305  1.00  0.00     0.037 A 
HETATM   21  C8  UNK     1      18.454  -0.733  37.011  1.00  0.00    -0.001 A 
HETATM   22  C13 UNK     1      18.718  -0.169  35.767  1.00  0.00     0.089 A 
HETATM   23  C16 UNK     1      17.704  -0.004  37.936  1.00  0.00     0.014 A 
HETATM   24  O1  UNK     1      19.470  -0.874  34.807  1.00  0.00    -0.274 OA
HETATM   25  C17 UNK     1      18.254   1.098  35.423  1.00  0.00     0.038 A 
HETATM   26  C15 UNK     1      19.976  -2.146  35.060  1.00  0.00     0.304 A 
HETATM   27  O5  UNK     1      20.629  -2.753  34.216  1.00  0.00    -0.259 OA
HETATM   28  C19 UNK     1      17.507   1.819  36.351  1.00  0.00     0.003 A 
HETATM   29  C18 UNK     1      17.232   1.270  37.606  1.00  0.00     0.001 A 
ENDBRANCH   3  19
TORSDOF 5
ENDMDL
MODEL 3
REMARK VINA RESULT:      -9.4      6.385     11.846
REMARK  5 active torsions:
REMARK  status: ('A' for Active; 'I' for Inactive)
REMARK    1  A    between atoms: C10_17  and  O2_3 
REMARK    2  A    between atoms: C20_27  and  O2_3 
REMARK    3  A    between atoms: C4_11  and  N1_7 
REMARK       I    between atoms: C9_16  and  N1_7 
REMARK    4  A    between atoms: C10_17  and  C2_9 
REMARK    5  A    between atoms: C7_14  and  C9_16 
ROOT
HETATM    1  O3  UNK     1      19.521   5.068  31.166  1.00  0.00    -0.267 OA
HETATM    2  N1  UNK     1      18.104   3.520  32.245  1.00  0.00    -0.316 N 
HETATM    3  C9  UNK     1      18.600   4.777  31.927  1.00  0.00     0.262 C 
HETATM    4  H2  UNK     1      17.318   3.439  32.882  1.00  0.00     0.169 HD
ENDROOT
BRANCH   2   5
HETATM    5  C4  UNK     1      18.571   2.300  31.746  1.00  0.00     0.094 A 
HETATM    6  C2  UNK     1      18.687   1.091  32.349  1.00  0.00     0.085 A 
HETATM    7  C1  UNK     1      19.218   0.097  31.461  1.00  0.00     0.000 A 
HETATM    8  C3  UNK     1      19.480   0.636  30.197  1.00  0.00     0.018 A 
HETATM    9  C5  UNK     1      19.498  -1.274  31.675  1.00  0.00     0.014 A 
HETATM   10  S1  UNK     1      19.077   2.311  30.132  1.00  0.00    -0.071 SA
HETATM   11  C6  UNK     1      20.008  -0.151  29.155  1.00  0.00     0.020 A 
HETATM   12  C14 UNK     1      20.273  -1.502  29.398  1.00  0.00     0.001 A 
HETATM   13  C12 UNK     1      20.021  -2.059  30.644  1.00  0.00     0.001 A 
BRANCH   6  14
HETATM   14  C10 UNK     1      18.312   0.861  33.723  1.00  0.00     0.297 C 
HETATM   15  O4  UNK     1      19.115   0.556  34.616  1.00  0.00    -0.259 OA
BRANCH  14  16
HETATM   16  O2  UNK     1      16.964   1.007  33.965  1.00  0.00    -0.318 OA
BRANCH  16  17
HETATM   17  C20 UNK     1      16.459   0.431  35.176  1.00  0.00     0.174 C 
HETATM   18  C21 UNK     1      16.072  -1.009  34.911  1.00  0.00     0.034 C 
ENDBRANCH  16  17
ENDBRANCH  14  16
ENDBRANCH   6  14
ENDBRANCH   2   5
BRANCH   3  19
HETATM   19  C7  UNK     1      17.878   5.843  32.631  1.00  0.00     0.108 A 
HETATM   20  C11 UNK     1      16.653   6.130  32.173  1.00  0.00     0.037 A 
HETATM   21  C8  UNK     1      15.860   7.174  32.805  1.00  0.00    -0.001 A 
HETATM   22  C13 UNK     1      16.395   7.864  33.888  1.00  0.00     0.089 A 
HETATM   23  C16 UNK     1      14.578   7.507  32.361  1.00  0.00     0.014 A 
HETATM   24  O1  UNK     1      17.684   7.556  34.365  1.00  0.00    -0.274 OA
HETATM   25  C17 UNK     1      15.688   8.872  34.538  1.00  0.00     0.038 A 
HETATM   26  C15 UNK     1      18.467   6.564  33.781  1.00  0.00     0.304 A 
HETATM   27  O5  UNK     1      19.589   6.305  34.203  1.00  0.00    -0.259 OA
HETATM   28  C19 UNK     1      14.410   9.198  34.088  1.00  0.00     0.003 A 
HETATM   29  C18 UNK     1      13.855   8.517  33.002  1.00  0.00     0.001 A 
ENDBRANCH   3  19
TORSDOF 5
ENDMDL
MODEL 4
REMARK VINA RESULT:      -9.3      7.944     10.429
REMARK  5 active torsions:
REMARK  status: ('A' for Active; 'I' for Inactive)
REMARK    1  A    between atoms: C10_17  and  O2_3 
REMARK    2  A    between atoms: C20_27  and  O2_3 
REMARK    3  A    between atoms: C4_11  and  N1_7 
REMARK       I    between atoms: C9_16  and  N1_7 
REMARK    4  A    between atoms: C10_17  and  C2_9 
REMARK    5  A    between atoms: C7_14  and  C9_16 
ROOT
HETATM    1  O3  UNK     1      17.557   3.731  32.693  1.00  0.00    -0.267 OA
HETATM    2  N1  UNK     1      19.187   4.997  31.549  1.00  0.00    -0.316 N 
HETATM    3  C9  UNK     1      18.419   3.875  31.828  1.00  0.00     0.262 C 
HETATM    4  H2  UNK     1      19.853   4.971  30.783  1.00  0.00     0.169 HD
ENDROOT
BRANCH   2   5
HETATM    5  C4  UNK     1      19.128   6.222  32.220  1.00  0.00     0.094 A 
HETATM    6  C2  UNK     1      18.153   7.164  32.246  1.00  0.00     0.085 A 
HETATM    7  C1  UNK     1      18.506   8.281  33.074  1.00  0.00     0.000 A 
HETATM    8  C3  UNK     1      19.773   8.109  33.643  1.00  0.00     0.018 A 
HETATM    9  C5  UNK     1      17.792   9.465  33.377  1.00  0.00     0.014 A 
HETATM   10  S1  UNK     1      20.481   6.614  33.158  1.00  0.00    -0.071 SA
HETATM   11  C6  UNK     1      20.336   9.079  34.495  1.00  0.00     0.020 A 
HETATM   12  C14 UNK     1      19.605  10.236  34.775  1.00  0.00     0.001 A 
HETATM   13  C12 UNK     1      18.347  10.429  34.223  1.00  0.00     0.001 A 
BRANCH   6  14
HETATM   14  C10 UNK     1      16.914   7.030  31.518  1.00  0.00     0.297 C 
HETATM   15  O4  UNK     1      16.770   7.368  30.335  1.00  0.00    -0.259 OA
BRANCH  14  16
HETATM   16  O2  UNK     1      15.887   6.488  32.259  1.00  0.00    -0.318 OA
BRANCH  16  17
HETATM   17  C20 UNK     1      14.689   7.267  32.368  1.00  0.00     0.174 C 
HETATM   18  C21 UNK     1      14.521   7.713  33.804  1.00  0.00     0.034 C 
ENDBRANCH  16  17
ENDBRANCH  14  16
ENDBRANCH   6  14
ENDBRANCH   2   5
BRANCH   3  19
HETATM   19  C7  UNK     1      18.737   2.759  30.930  1.00  0.00     0.108 A 
HETATM   20  C11 UNK     1      19.141   1.625  31.515  1.00  0.00     0.037 A 
HETATM   21  C8  UNK     1      19.480   0.463  30.707  1.00  0.00    -0.001 A 
HETATM   22  C13 UNK     1      19.375   0.552  29.323  1.00  0.00     0.089 A 
HETATM   23  C16 UNK     1      19.907  -0.740  31.275  1.00  0.00     0.014 A 
HETATM   24  O1  UNK     1      18.948   1.747  28.713  1.00  0.00    -0.274 OA
HETATM   25  C17 UNK     1      19.684  -0.524  28.493  1.00  0.00     0.038 A 
HETATM   26  C15 UNK     1      18.618   2.875  29.459  1.00  0.00     0.304 A 
HETATM   27  O5  UNK     1      18.248   3.913  28.919  1.00  0.00    -0.259 OA
HETATM   28  C19 UNK     1      20.109  -1.720  29.068  1.00  0.00     0.003 A 
HETATM   29  C18 UNK     1      20.221  -1.828  30.456  1.00  0.00     0.001 A 
ENDBRANCH   3  19
TORSDOF 5
ENDMDL
MODEL 5
REMARK VINA RESULT:      -9.1      2.113      8.504
REMARK  5 active torsions:
REMARK  status: ('A' for Active; 'I' for Inactive)
REMARK    1  A    between atoms: C10_17  and  O2_3 
REMARK    2  A    between atoms: C20_27  and  O2_3 
REMARK    3  A    between atoms: C4_11  and  N1_7 
REMARK       I    between atoms: C9_16  and  N1_7 
REMARK    4  A    between atoms: C10_17  and  C2_9 
REMARK    5  A    between atoms: C7_14  and  C9_16 
ROOT
HETATM    1  O3  UNK     1      21.278  -4.288  37.116  1.00  0.00    -0.267 OA
HETATM    2  N1  UNK     1      19.747  -5.309  35.639  1.00  0.00    -0.316 N 
HETATM    3  C9  UNK     1      20.353  -4.253  36.306  1.00  0.00     0.262 C 
HETATM    4  H2  UNK     1      18.999  -5.120  34.978  1.00  0.00     0.169 HD
ENDROOT
BRANCH   2   5
HETATM    5  C4  UNK     1      20.081  -6.661  35.762  1.00  0.00     0.094 A 
HETATM    6  C2  UNK     1      19.791  -7.552  36.743  1.00  0.00     0.085 A 
HETATM    7  C1  UNK     1      20.333  -8.851  36.465  1.00  0.00     0.000 A 
HETATM    8  C3  UNK     1      21.025  -8.862  35.250  1.00  0.00     0.018 A 
HETATM    9  C5  UNK     1      20.270 -10.053  37.210  1.00  0.00     0.014 A 
HETATM   10  S1  UNK     1      20.991  -7.312  34.494  1.00  0.00    -0.071 SA
HETATM   11  C6  UNK     1      21.646 -10.029  34.766  1.00  0.00     0.020 A 
HETATM   12  C14 UNK     1      21.565 -11.200  35.523  1.00  0.00     0.001 A 
HETATM   13  C12 UNK     1      20.884 -11.214  36.733  1.00  0.00     0.001 A 
BRANCH   6  14
HETATM   14  C10 UNK     1      19.024  -7.206  37.915  1.00  0.00     0.297 C 
HETATM   15  O4  UNK     1      17.890  -6.708  37.876  1.00  0.00    -0.259 OA
BRANCH  14  16
HETATM   16  O2  UNK     1      19.668  -7.476  39.103  1.00  0.00    -0.318 OA
BRANCH  16  17
HETATM   17  C20 UNK     1      20.913  -6.805  39.329  1.00  0.00     0.174 C 
HETATM   18  C21 UNK     1      21.951  -7.822  39.754  1.00  0.00     0.034 C 
ENDBRANCH  16  17
ENDBRANCH  14  16
ENDBRANCH   6  14
ENDBRANCH   2   5
BRANCH   3  19
HETATM   19  C7  UNK     1      19.756  -2.963  35.944  1.00  0.00     0.108 A 
HETATM   20  C11 UNK     1      19.029  -2.360  36.892  1.00  0.00     0.037 A 
HETATM   21  C8  UNK     1      18.396  -1.077  36.626  1.00  0.00    -0.001 A 
HETATM   22  C13 UNK     1      18.562  -0.491  35.375  1.00  0.00     0.089 A 
HETATM   23  C16 UNK     1      17.628  -0.412  37.585  1.00  0.00     0.014 A 
HETATM   24  O1  UNK     1      19.330  -1.130  34.382  1.00  0.00    -0.274 OA
HETATM   25  C17 UNK     1      17.984   0.736  35.057  1.00  0.00     0.038 A 
HETATM   26  C15 UNK     1      19.946  -2.358  34.607  1.00  0.00     0.304 A 
HETATM   27  O5  UNK     1      20.611  -2.907  33.735  1.00  0.00    -0.259 OA
HETATM   28  C19 UNK     1      17.219   1.392  36.019  1.00  0.00     0.003 A 
HETATM   29  C18 UNK     1      17.041   0.819  37.281  1.00  0.00     0.001 A 
ENDBRANCH   3  19
TORSDOF 5
ENDMDL
MODEL 6
REMARK VINA RESULT:      -8.9      1.765      2.257
REMARK  5 active torsions:
REMARK  status: ('A' for Active; 'I' for Inactive)
REMARK    1  A    between atoms: C10_17  and  O2_3 
REMARK    2  A    between atoms: C20_27  and  O2_3 
REMARK    3  A    between atoms: C4_11  and  N1_7 
REMARK       I    between atoms: C9_16  and  N1_7 
REMARK    4  A    between atoms: C10_17  and  C2_9 
REMARK    5  A    between atoms: C7_14  and  C9_16 
ROOT
HETATM    1  O3  UNK     1      18.391  -5.389  36.471  1.00  0.00    -0.267 OA
HETATM    2  N1  UNK     1      20.213  -3.891  36.481  1.00  0.00    -0.316 N 
HETATM    3  C9  UNK     1      19.592  -5.131  36.527  1.00  0.00     0.262 C 
HETATM    4  H2  UNK     1      21.227  -3.837  36.519  1.00  0.00     0.169 HD
ENDROOT
BRANCH   2   5
HETATM    5  C4  UNK     1      19.574  -2.653  36.357  1.00  0.00     0.094 A 
HETATM    6  C2  UNK     1      19.502  -1.803  35.304  1.00  0.00     0.085 A 
HETATM    7  C1  UNK     1      18.734  -0.631  35.611  1.00  0.00     0.000 A 
HETATM    8  C3  UNK     1      18.257  -0.668  36.925  1.00  0.00     0.018 A 
HETATM    9  C5  UNK     1      18.412   0.495  34.815  1.00  0.00     0.014 A 
HETATM   10  S1  UNK     1      18.751  -2.110  37.731  1.00  0.00    -0.071 SA
HETATM   11  C6  UNK     1      17.477   0.377  37.456  1.00  0.00     0.020 A 
HETATM   12  C14 UNK     1      17.175   1.473  36.645  1.00  0.00     0.001 A 
HETATM   13  C12 UNK     1      17.637   1.533  35.338  1.00  0.00     0.001 A 
BRANCH   6  14
HETATM   14  C10 UNK     1      20.133  -2.072  34.034  1.00  0.00     0.297 C 
HETATM   15  O4  UNK     1      21.314  -2.425  33.911  1.00  0.00    -0.259 OA
BRANCH  14  16
HETATM   16  O2  UNK     1      19.300  -1.900  32.950  1.00  0.00    -0.318 OA
BRANCH  16  17
HETATM   17  C20 UNK     1      19.929  -1.695  31.679  1.00  0.00     0.174 C 
HETATM   18  C21 UNK     1      19.707  -0.262  31.245  1.00  0.00     0.034 C 
ENDBRANCH  16  17
ENDBRANCH  14  16
ENDBRANCH   6  14
ENDBRANCH   2   5
BRANCH   3  19
HETATM   19  C7  UNK     1      20.561  -6.224  36.660  1.00  0.00     0.108 A 
HETATM   20  C11 UNK     1      20.416  -7.250  35.814  1.00  0.00     0.037 A 
HETATM   21  C8  UNK     1      21.329  -8.382  35.870  1.00  0.00    -0.001 A 
HETATM   22  C13 UNK     1      22.350  -8.377  36.814  1.00  0.00     0.089 A 
HETATM   23  C16 UNK     1      21.214  -9.475  35.006  1.00  0.00     0.014 A 
HETATM   24  O1  UNK     1      22.498  -7.294  37.702  1.00  0.00    -0.274 OA
HETATM   25  C17 UNK     1      23.257  -9.429  36.920  1.00  0.00     0.038 A 
HETATM   26  C15 UNK     1      21.640  -6.197  37.672  1.00  0.00     0.304 A 
HETATM   27  O5  UNK     1      21.776  -5.260  38.451  1.00  0.00    -0.259 OA
HETATM   28  C19 UNK     1      23.136 -10.515  36.055  1.00  0.00     0.003 A 
HETATM   29  C18 UNK     1      22.117 -10.538  35.100  1.00  0.00     0.001 A 
ENDBRANCH   3  19
TORSDOF 5
ENDMDL
MODEL 7
REMARK VINA RESULT:      -8.9      7.329     10.296
REMARK  5 active torsions:
REMARK  status: ('A' for Active; 'I' for Inactive)
REMARK    1  A    between atoms: C10_17  and  O2_3 
REMARK    2  A    between atoms: C20_27  and  O2_3 
REMARK    3  A    between atoms: C4_11  and  N1_7 
REMARK       I    between atoms: C9_16  and  N1_7 
REMARK    4  A    between atoms: C10_17  and  C2_9 
REMARK    5  A    between atoms: C7_14  and  C9_16 
ROOT
HETATM    1  O3  UNK     1      18.472   5.229  30.433  1.00  0.00    -0.267 OA
HETATM    2  N1  UNK     1      17.468   4.991  32.555  1.00  0.00    -0.316 N 
HETATM    3  C9  UNK     1      18.148   4.572  31.420  1.00  0.00     0.262 C 
HETATM    4  H2  UNK     1      17.287   4.330  33.304  1.00  0.00     0.169 HD
ENDROOT
BRANCH   2   5
HETATM    5  C4  UNK     1      17.003   6.286  32.805  1.00  0.00     0.094 A 
HETATM    6  C2  UNK     1      17.631   7.354  33.356  1.00  0.00     0.085 A 
HETATM    7  C1  UNK     1      16.776   8.503  33.424  1.00  0.00     0.000 A 
HETATM    8  C3  UNK     1      15.508   8.223  32.903  1.00  0.00     0.018 A 
HETATM    9  C5  UNK     1      17.022   9.807  33.919  1.00  0.00     0.014 A 
HETATM   10  S1  UNK     1      15.402   6.593  32.353  1.00  0.00    -0.071 SA
HETATM   11  C6  UNK     1      14.494   9.200  32.865  1.00  0.00     0.020 A 
HETATM   12  C14 UNK     1      14.769  10.477  33.360  1.00  0.00     0.001 A 
HETATM   13  C12 UNK     1      16.019  10.779  33.882  1.00  0.00     0.001 A 
BRANCH   6  14
HETATM   14  C10 UNK     1      19.000   7.310  33.809  1.00  0.00     0.297 C 
HETATM   15  O4  UNK     1      19.335   7.375  35.001  1.00  0.00    -0.259 OA
BRANCH  14  16
HETATM   16  O2  UNK     1      19.922   7.191  32.792  1.00  0.00    -0.318 OA
BRANCH  16  17
HETATM   17  C20 UNK     1      21.015   6.292  33.013  1.00  0.00     0.174 C 
HETATM   18  C21 UNK     1      21.654   5.958  31.682  1.00  0.00     0.034 C 
ENDBRANCH  16  17
ENDBRANCH  14  16
ENDBRANCH   6  14
ENDBRANCH   2   5
BRANCH   3  19
HETATM   19  C7  UNK     1      18.490   3.146  31.484  1.00  0.00     0.108 A 
HETATM   20  C11 UNK     1      18.943   2.595  30.351  1.00  0.00     0.037 A 
HETATM   21  C8  UNK     1      19.307   1.187  30.315  1.00  0.00    -0.001 A 
HETATM   22  C13 UNK     1      19.177   0.428  31.474  1.00  0.00     0.089 A 
HETATM   23  C16 UNK     1      19.784   0.570  29.156  1.00  0.00     0.014 A 
HETATM   24  O1  UNK     1      18.700   1.014  32.662  1.00  0.00    -0.274 OA
HETATM   25  C17 UNK     1      19.508  -0.925  31.506  1.00  0.00     0.038 A 
HETATM   26  C15 UNK     1      18.344   2.358  32.728  1.00  0.00     0.304 A 
HETATM   27  O5  UNK     1      17.928   2.858  33.768  1.00  0.00    -0.259 OA
HETATM   28  C19 UNK     1      19.983  -1.532  30.345  1.00  0.00     0.003 A 
HETATM   29  C18 UNK     1      20.121  -0.786  29.172  1.00  0.00     0.001 A 
ENDBRANCH   3  19
TORSDOF 5
ENDMDL
MODEL 8
REMARK VINA RESULT:      -8.8     17.461     21.978
REMARK  5 active torsions:
REMARK  status: ('A' for Active; 'I' for Inactive)
REMARK    1  A    between atoms: C10_17  and  O2_3 
REMARK    2  A    between atoms: C20_27  and  O2_3 
REMARK    3  A    between atoms: C4_11  and  N1_7 
REMARK       I    between atoms: C9_16  and  N1_7 
REMARK    4  A    between atoms: C10_17  and  C2_9 
REMARK    5  A    between atoms: C7_14  and  C9_16 
ROOT
HETATM    1  O3  UNK     1      17.925  -2.184  15.967  1.00  0.00    -0.267 OA
HETATM    2  N1  UNK     1      19.712  -1.276  14.722  1.00  0.00    -0.316 N 
HETATM    3  C9  UNK     1      18.820  -1.361  15.781  1.00  0.00     0.262 C 
HETATM    4  H2  UNK     1      20.416  -0.544  14.717  1.00  0.00     0.169 HD
ENDROOT
BRANCH   2   5
HETATM    5  C4  UNK     1      19.769  -2.138  13.622  1.00  0.00     0.094 A 
HETATM    6  C2  UNK     1      20.299  -3.381  13.506  1.00  0.00     0.085 A 
HETATM    7  C1  UNK     1      20.137  -3.913  12.184  1.00  0.00     0.000 A 
HETATM    8  C3  UNK     1      19.471  -3.007  11.352  1.00  0.00     0.018 A 
HETATM    9  C5  UNK     1      20.535  -5.156  11.636  1.00  0.00     0.014 A 
HETATM   10  S1  UNK     1      19.070  -1.557  12.196  1.00  0.00    -0.071 SA
HETATM   11  C6  UNK     1      19.197  -3.308  10.004  1.00  0.00     0.020 A 
HETATM   12  C14 UNK     1      19.602  -4.544   9.493  1.00  0.00     0.001 A 
HETATM   13  C12 UNK     1      20.264  -5.459  10.299  1.00  0.00     0.001 A 
BRANCH   6  14
HETATM   14  C10 UNK     1      20.943  -4.064  14.602  1.00  0.00     0.297 C 
HETATM   15  O4  UNK     1      20.575  -5.161  15.044  1.00  0.00    -0.259 OA
BRANCH  14  16
HETATM   16  O2  UNK     1      22.020  -3.383  15.128  1.00  0.00    -0.318 OA
BRANCH  16  17
HETATM   17  C20 UNK     1      22.625  -3.940  16.301  1.00  0.00     0.174 C 
HETATM   18  C21 UNK     1      22.058  -3.248  17.523  1.00  0.00     0.034 C 
ENDBRANCH  16  17
ENDBRANCH  14  16
ENDBRANCH   6  14
ENDBRANCH   2   5
BRANCH   3  19
HETATM   19  C7  UNK     1      19.038  -0.295  16.766  1.00  0.00     0.108 A 
HETATM   20  C11 UNK     1      19.038  -0.668  18.051  1.00  0.00     0.037 A 
HETATM   21  C8  UNK     1      19.245   0.318  19.101  1.00  0.00    -0.001 A 
HETATM   22  C13 UNK     1      19.443   1.648  18.746  1.00  0.00     0.089 A 
HETATM   23  C16 UNK     1      19.252  -0.027  20.455  1.00  0.00     0.014 A 
HETATM   24  O1  UNK     1      19.442   2.034  17.392  1.00  0.00    -0.274 OA
HETATM   25  C17 UNK     1      19.647   2.640  19.702  1.00  0.00     0.038 A 
HETATM   26  C15 UNK     1      19.247   1.114  16.366  1.00  0.00     0.304 A 
HETATM   27  O5  UNK     1      19.247   1.461  15.189  1.00  0.00    -0.259 OA
HETATM   28  C19 UNK     1      19.652   2.288  21.050  1.00  0.00     0.003 A 
HETATM   29  C18 UNK     1      19.456   0.958  21.427  1.00  0.00     0.001 A 
ENDBRANCH   3  19
TORSDOF 5
ENDMDL
MODEL 9
REMARK VINA RESULT:      -8.6      2.341      4.465
REMARK  5 active torsions:
REMARK  status: ('A' for Active; 'I' for Inactive)
REMARK    1  A    between atoms: C10_17  and  O2_3 
REMARK    2  A    between atoms: C20_27  and  O2_3 
REMARK    3  A    between atoms: C4_11  and  N1_7 
REMARK       I    between atoms: C9_16  and  N1_7 
REMARK    4  A    between atoms: C10_17  and  C2_9 
REMARK    5  A    between atoms: C7_14  and  C9_16 
ROOT
HETATM    1  O3  UNK     1      21.554  -2.016  34.728  1.00  0.00    -0.267 OA
HETATM    2  N1  UNK     1      19.305  -2.207  34.040  1.00  0.00    -0.316 N 
HETATM    3  C9  UNK     1      20.439  -2.533  34.770  1.00  0.00     0.262 C 
HETATM    4  H2  UNK     1      18.442  -2.718  34.201  1.00  0.00     0.169 HD
ENDROOT
BRANCH   2   5
HETATM    5  C4  UNK     1      19.206  -1.195  33.080  1.00  0.00     0.094 A 
HETATM    6  C2  UNK     1      18.732   0.071  33.185  1.00  0.00     0.085 A 
HETATM    7  C1  UNK     1      18.818   0.781  31.942  1.00  0.00     0.000 A 
HETATM    8  C3  UNK     1      19.370  -0.021  30.937  1.00  0.00     0.018 A 
HETATM    9  C5  UNK     1      18.441   2.105  31.609  1.00  0.00     0.014 A 
HETATM   10  S1  UNK     1      19.763  -1.590  31.533  1.00  0.00    -0.071 SA
HETATM   11  C6  UNK     1      19.553   0.461  29.627  1.00  0.00     0.020 A 
HETATM   12  C14 UNK     1      19.173   1.772  29.331  1.00  0.00     0.001 A 
HETATM   13  C12 UNK     1      18.622   2.587  30.310  1.00  0.00     0.001 A 
BRANCH   6  14
HETATM   14  C10 UNK     1      18.210   0.614  34.416  1.00  0.00     0.297 C 
HETATM   15  O4  UNK     1      18.888   0.776  35.441  1.00  0.00    -0.259 OA
BRANCH  14  16
HETATM   16  O2  UNK     1      16.873   0.940  34.359  1.00  0.00    -0.318 OA
BRANCH  16  17
HETATM   17  C20 UNK     1      15.966   0.068  35.044  1.00  0.00     0.174 C 
HETATM   18  C21 UNK     1      15.647   0.657  36.401  1.00  0.00     0.034 C 
ENDBRANCH  16  17
ENDBRANCH  14  16
ENDBRANCH   6  14
ENDBRANCH   2   5
BRANCH   3  19
HETATM   19  C7  UNK     1      20.194  -3.649  35.692  1.00  0.00     0.108 A 
HETATM   20  C11 UNK     1      20.079  -4.860  35.136  1.00  0.00     0.037 A 
HETATM   21  C8  UNK     1      19.834  -6.029  35.968  1.00  0.00    -0.001 A 
HETATM   22  C13 UNK     1      19.724  -5.864  37.345  1.00  0.00     0.089 A 
HETATM   23  C16 UNK     1      19.707  -7.312  35.431  1.00  0.00     0.014 A 
HETATM   24  O1  UNK     1      19.847  -4.585  37.924  1.00  0.00    -0.274 OA
HETATM   25  C17 UNK     1      19.491  -6.940  38.197  1.00  0.00     0.038 A 
HETATM   26  C15 UNK     1      20.081  -3.449  37.154  1.00  0.00     0.304 A 
HETATM   27  O5  UNK     1      20.185  -2.340  37.667  1.00  0.00    -0.259 OA
HETATM   28  C19 UNK     1      19.364  -8.217  37.653  1.00  0.00     0.003 A 
HETATM   29  C18 UNK     1      19.472  -8.403  36.273  1.00  0.00     0.001 A 
ENDBRANCH   3  19
TORSDOF 5
ENDMDL
MODEL 10
REMARK VINA RESULT:      -8.5     18.352     22.499
REMARK  5 active torsions:
REMARK  status: ('A' for Active; 'I' for Inactive)
REMARK    1  A    between atoms: C10_17  and  O2_3 
REMARK    2  A    between atoms: C20_27  and  O2_3 
REMARK    3  A    between atoms: C4_11  and  N1_7 
REMARK       I    between atoms: C9_16  and  N1_7 
REMARK    4  A    between atoms: C10_17  and  C2_9 
REMARK    5  A    between atoms: C7_14  and  C9_16 
ROOT
HETATM    1  O3  UNK     1      20.431  -3.318  16.085  1.00  0.00    -0.267 OA
HETATM    2  N1  UNK     1      18.292  -3.074  15.118  1.00  0.00    -0.316 N 
HETATM    3  C9  UNK     1      19.415  -2.673  15.827  1.00  0.00     0.262 C 
HETATM    4  H2  UNK     1      17.533  -2.416  14.969  1.00  0.00     0.169 HD
ENDROOT
BRANCH   2   5
HETATM    5  C4  UNK     1      18.088  -4.331  14.540  1.00  0.00     0.094 A 
HETATM    6  C2  UNK     1      18.475  -4.817  13.334  1.00  0.00     0.085 A 
HETATM    7  C1  UNK     1      18.052  -6.174  13.141  1.00  0.00     0.000 A 
HETATM    8  C3  UNK     1      17.346  -6.647  14.252  1.00  0.00     0.018 A 
HETATM    9  C5  UNK     1      18.239  -7.050  12.045  1.00  0.00     0.014 A 
HETATM   10  S1  UNK     1      17.223  -5.441  15.478  1.00  0.00    -0.071 SA
HETATM   11  C6  UNK     1      16.829  -7.956  14.294  1.00  0.00     0.020 A 
HETATM   12  C14 UNK     1      17.031  -8.797  13.196  1.00  0.00     0.001 A 
HETATM   13  C12 UNK     1      17.728  -8.350  12.083  1.00  0.00     0.001 A 
BRANCH   6  14
HETATM   14  C10 UNK     1      19.224  -4.037  12.379  1.00  0.00     0.297 C 
HETATM   15  O4  UNK     1      20.401  -3.686  12.546  1.00  0.00    -0.259 OA
BRANCH  14  16
HETATM   16  O2  UNK     1      18.512  -3.707  11.247  1.00  0.00    -0.318 OA
BRANCH  16  17
HETATM   17  C20 UNK     1      19.264  -3.523  10.042  1.00  0.00     0.174 C 
HETATM   18  C21 UNK     1      18.813  -4.543   9.018  1.00  0.00     0.034 C 
ENDBRANCH  16  17
ENDBRANCH  14  16
ENDBRANCH   6  14
ENDBRANCH   2   5
BRANCH   3  19
HETATM   19  C7  UNK     1      19.300  -1.288  16.296  1.00  0.00     0.108 A 
HETATM   20  C11 UNK     1      19.142  -1.120  17.614  1.00  0.00     0.037 A 
HETATM   21  C8  UNK     1      19.017   0.217  18.174  1.00  0.00    -0.001 A 
HETATM   22  C13 UNK     1      19.066   1.313  17.318  1.00  0.00     0.089 A 
HETATM   23  C16 UNK     1      18.849   0.438  19.543  1.00  0.00     0.014 A 
HETATM   24  O1  UNK     1      19.234   1.130  15.932  1.00  0.00    -0.274 OA
HETATM   25  C17 UNK     1      18.954   2.618  17.790  1.00  0.00     0.038 A 
HETATM   26  C15 UNK     1      19.356  -0.137  15.367  1.00  0.00     0.304 A 
HETATM   27  O5  UNK     1      19.500  -0.286  14.158  1.00  0.00    -0.259 OA
HETATM   28  C19 UNK     1      18.787   2.830  19.157  1.00  0.00     0.003 A 
HETATM   29  C18 UNK     1      18.735   1.743  20.033  1.00  0.00     0.001 A 
ENDBRANCH   3  19
TORSDOF 5
ENDMDL
