MODEL 1
REMARK VINA RESULT:     -10.2      0.000      0.000
REMARK  3 active torsions:
REMARK  status: ('A' for Active; 'I' for Inactive)
REMARK       I    between atoms: C18_25  and  N1_6 
REMARK    1  A    between atoms: N1_6  and  N2_7 
REMARK    2  A    between atoms: C18_25  and  C7_14 
REMARK    3  A    between atoms: C14_21  and  C21_28 
ROOT
HETATM    1  O3  UNK     1      19.190   6.654  31.927  1.00  0.00    -0.265 OA
HETATM    2  N1  UNK     1      17.544   5.238  32.669  1.00  0.00    -0.243 N 
HETATM    3  C18 UNK     1      18.076   6.499  32.432  1.00  0.00     0.280 C 
HETATM    4  H15 UNK     1      16.633   5.097  33.095  1.00  0.00     0.192 HD
ENDROOT
BRANCH   2   5
HETATM    5  N2  UNK     1      18.276   4.149  32.331  1.00  0.00    -0.183 NA
HETATM    6  C21 UNK     1      17.831   3.516  31.294  1.00  0.00     0.156 C 
BRANCH   6   7
HETATM    7  C14 UNK     1      18.480   2.314  30.770  1.00  0.00     0.056 A 
HETATM    8  C13 UNK     1      18.864   1.159  31.609  1.00  0.00     0.198 A 
HETATM    9  O2  UNK     1      18.661   1.133  32.815  1.00  0.00    -0.286 OA
HETATM   10  C3  UNK     1      19.511   0.036  30.905  1.00  0.00     0.049 A 
HETATM   11  C12 UNK     1      19.914  -1.105  31.603  1.00  0.00     0.025 A 
HETATM   12  C9  UNK     1      19.715   0.127  29.527  1.00  0.00     0.089 A 
HETATM   13  C11 UNK     1      20.523  -2.155  30.913  1.00  0.00    -0.061 A 
HETATM   14  C16 UNK     1      20.728  -2.064  29.535  1.00  0.00     0.009 A 
HETATM   15  C20 UNK     1      20.957  -3.377  31.651  1.00  0.00     0.048 C 
HETATM   16  C15 UNK     1      20.325  -0.923  28.840  1.00  0.00     0.039 A 
HETATM   17  O1  UNK     1      19.340   1.224  28.790  1.00  0.00    -0.321 OA
HETATM   18  C19 UNK     1      18.738   2.264  29.458  1.00  0.00     0.159 A 
ENDBRANCH   6   7
ENDBRANCH   2   5
BRANCH   3  19
HETATM   19  C7  UNK     1      17.239   7.633  32.849  1.00  0.00     0.097 A 
HETATM   20  C6  UNK     1      17.594   8.706  33.583  1.00  0.00     0.068 A 
HETATM   21  C1  UNK     1      16.489   9.601  33.778  1.00  0.00     0.004 A 
HETATM   22 Cl1  UNK     1      19.162   9.003  34.223  1.00  0.00    -0.082 Cl
HETATM   23  C2  UNK     1      15.333   9.123  33.154  1.00  0.00     0.018 A 
HETATM   24  C8  UNK     1      16.413  10.832  34.475  1.00  0.00     0.015 A 
HETATM   25  S1  UNK     1      15.625   7.619  32.361  1.00  0.00    -0.082 SA
HETATM   26  C5  UNK     1      14.119   9.833  33.208  1.00  0.00     0.026 A 
HETATM   27  C4  UNK     1      14.075  11.044  33.904  1.00  0.00    -0.061 A 
HETATM   28  C10 UNK     1      15.209  11.539  34.531  1.00  0.00     0.007 A 
HETATM   29  C17 UNK     1      12.796  11.809  33.970  1.00  0.00     0.048 C 
ENDBRANCH   3  19
TORSDOF 3
ENDMDL
MODEL 2
REMARK VINA RESULT:      -9.7      6.436      9.294
REMARK  3 active torsions:
REMARK  status: ('A' for Active; 'I' for Inactive)
REMARK       I    between atoms: C18_25  and  N1_6 
REMARK    1  A    between atoms: N1_6  and  N2_7 
REMARK    2  A    between atoms: C18_25  and  C7_14 
REMARK    3  A    between atoms: C14_21  and  C21_28 
ROOT
HETATM    1  O3  UNK     1      17.394  -0.774  36.577  1.00  0.00    -0.265 OA
HETATM    2  N1  UNK     1      19.463  -1.375  35.787  1.00  0.00    -0.243 N 
HETATM    3  C18 UNK     1      18.338  -0.561  35.812  1.00  0.00     0.280 C 
HETATM    4  H15 UNK     1      20.242  -1.218  35.155  1.00  0.00     0.192 HD
ENDROOT
BRANCH   2   5
HETATM    5  N2  UNK     1      19.519  -2.433  36.632  1.00  0.00    -0.183 NA
HETATM    6  C21 UNK     1      19.605  -3.579  36.036  1.00  0.00     0.156 C 
BRANCH   6   7
HETATM    7  C14 UNK     1      19.675  -4.842  36.771  1.00  0.00     0.056 A 
HETATM    8  C13 UNK     1      20.856  -5.271  37.552  1.00  0.00     0.198 A 
HETATM    9  O2  UNK     1      21.866  -4.585  37.635  1.00  0.00    -0.286 OA
HETATM   10  C3  UNK     1      20.745  -6.578  38.226  1.00  0.00     0.049 A 
HETATM   11  C12 UNK     1      21.802  -7.078  38.990  1.00  0.00     0.025 A 
HETATM   12  C9  UNK     1      19.565  -7.312  38.091  1.00  0.00     0.089 A 
HETATM   13  C11 UNK     1      21.672  -8.317  39.618  1.00  0.00    -0.061 A 
HETATM   14  C16 UNK     1      20.492  -9.052  39.483  1.00  0.00     0.009 A 
HETATM   15  C20 UNK     1      22.796  -8.859  40.436  1.00  0.00     0.048 C 
HETATM   16  C15 UNK     1      19.437  -8.551  38.720  1.00  0.00     0.039 A 
HETATM   17  O1  UNK     1      18.494  -6.870  37.353  1.00  0.00    -0.321 OA
HETATM   18  C19 UNK     1      18.610  -5.650  36.730  1.00  0.00     0.159 A 
ENDBRANCH   6   7
ENDBRANCH   2   5
BRANCH   3  19
HETATM   19  C7  UNK     1      18.334   0.551  34.851  1.00  0.00     0.097 A 
HETATM   20  C6  UNK     1      18.428   0.491  33.507  1.00  0.00     0.068 A 
HETATM   21  C1  UNK     1      18.386   1.798  32.916  1.00  0.00     0.004 A 
HETATM   22 Cl1  UNK     1      18.580  -0.950  32.580  1.00  0.00    -0.082 Cl
HETATM   23  C2  UNK     1      18.259   2.791  33.892  1.00  0.00     0.018 A 
HETATM   24  C8  UNK     1      18.452   2.198  31.559  1.00  0.00     0.015 A 
HETATM   25  S1  UNK     1      18.195   2.110  35.476  1.00  0.00    -0.082 SA
HETATM   26  C5  UNK     1      18.197   4.156  33.551  1.00  0.00     0.026 A 
HETATM   27  C4  UNK     1      18.264   4.519  32.204  1.00  0.00    -0.061 A 
HETATM   28  C10 UNK     1      18.390   3.552  31.218  1.00  0.00     0.007 A 
HETATM   29  C17 UNK     1      18.198   5.961  31.826  1.00  0.00     0.048 C 
ENDBRANCH   3  19
TORSDOF 3
ENDMDL
MODEL 3
REMARK VINA RESULT:      -9.7      6.484      9.387
REMARK  3 active torsions:
REMARK  status: ('A' for Active; 'I' for Inactive)
REMARK       I    between atoms: C18_25  and  N1_6 
REMARK    1  A    between atoms: N1_6  and  N2_7 
REMARK    2  A    between atoms: C18_25  and  C7_14 
REMARK    3  A    between atoms: C14_21  and  C21_28 
ROOT
HETATM    1  O3  UNK     1      17.407  -0.987  36.688  1.00  0.00    -0.265 OA
HETATM    2  N1  UNK     1      19.531  -1.454  35.956  1.00  0.00    -0.243 N 
HETATM    3  C18 UNK     1      18.364  -0.702  35.963  1.00  0.00     0.280 C 
HETATM    4  H15 UNK     1      20.321  -1.237  35.357  1.00  0.00     0.192 HD
ENDROOT
BRANCH   2   5
HETATM    5  N2  UNK     1      19.615  -2.532  36.773  1.00  0.00    -0.183 NA
HETATM    6  C21 UNK     1      20.467  -3.425  36.381  1.00  0.00     0.156 C 
BRANCH   6   7
HETATM    7  C14 UNK     1      20.705  -4.663  37.125  1.00  0.00     0.056 A 
HETATM    8  C13 UNK     1      19.854  -5.866  37.004  1.00  0.00     0.198 A 
HETATM    9  O2  UNK     1      18.881  -5.905  36.263  1.00  0.00    -0.286 OA
HETATM   10  C3  UNK     1      20.247  -7.020  37.834  1.00  0.00     0.049 A 
HETATM   11  C12 UNK     1      19.512  -8.208  37.797  1.00  0.00     0.025 A 
HETATM   12  C9  UNK     1      21.367  -6.912  38.659  1.00  0.00     0.089 A 
HETATM   13  C11 UNK     1      19.905  -9.286  38.590  1.00  0.00    -0.061 A 
HETATM   14  C16 UNK     1      21.025  -9.178  39.417  1.00  0.00     0.009 A 
HETATM   15  C20 UNK     1      19.125 -10.558  38.557  1.00  0.00     0.048 C 
HETATM   16  C15 UNK     1      21.758  -7.991  39.453  1.00  0.00     0.039 A 
HETATM   17  O1  UNK     1      22.127  -5.770  38.737  1.00  0.00    -0.321 OA
HETATM   18  C19 UNK     1      21.750  -4.701  37.958  1.00  0.00     0.159 A 
ENDBRANCH   6   7
ENDBRANCH   2   5
BRANCH   3  19
HETATM   19  C7  UNK     1      18.333   0.436  35.033  1.00  0.00     0.097 A 
HETATM   20  C6  UNK     1      18.385   0.413  33.686  1.00  0.00     0.068 A 
HETATM   21  C1  UNK     1      18.328   1.736  33.133  1.00  0.00     0.004 A 
HETATM   22 Cl1  UNK     1      18.506  -1.002  32.716  1.00  0.00    -0.082 Cl
HETATM   23  C2  UNK     1      18.232   2.702  34.139  1.00  0.00     0.018 A 
HETATM   24  C8  UNK     1      18.353   2.173  31.786  1.00  0.00     0.015 A 
HETATM   25  S1  UNK     1      18.216   1.977  35.705  1.00  0.00    -0.082 SA
HETATM   26  C5  UNK     1      18.163   4.075  33.838  1.00  0.00     0.026 A 
HETATM   27  C4  UNK     1      18.190   4.475  32.500  1.00  0.00    -0.061 A 
HETATM   28  C10 UNK     1      18.284   3.535  31.484  1.00  0.00     0.007 A 
HETATM   29  C17 UNK     1      18.115   5.927  32.163  1.00  0.00     0.048 C 
ENDBRANCH   3  19
TORSDOF 3
ENDMDL
MODEL 4
REMARK VINA RESULT:      -9.5      6.356      9.449
REMARK  3 active torsions:
REMARK  status: ('A' for Active; 'I' for Inactive)
REMARK       I    between atoms: C18_25  and  N1_6 
REMARK    1  A    between atoms: N1_6  and  N2_7 
REMARK    2  A    between atoms: C18_25  and  C7_14 
REMARK    3  A    between atoms: C14_21  and  C21_28 
ROOT
HETATM    1  O3  UNK     1      17.359  -1.332  35.861  1.00  0.00    -0.265 OA
HETATM    2  N1  UNK     1      19.627  -1.540  35.575  1.00  0.00    -0.243 N 
HETATM    3  C18 UNK     1      18.397  -0.949  35.316  1.00  0.00     0.280 C 
HETATM    4  H15 UNK     1      20.487  -1.242  35.126  1.00  0.00     0.192 HD
ENDROOT
BRANCH   2   5
HETATM    5  N2  UNK     1      19.680  -2.570  36.455  1.00  0.00    -0.183 NA
HETATM    6  C21 UNK     1      19.731  -3.737  35.897  1.00  0.00     0.156 C 
BRANCH   6   7
HETATM    7  C14 UNK     1      19.793  -4.976  36.674  1.00  0.00     0.056 A 
HETATM    8  C13 UNK     1      20.958  -5.370  37.495  1.00  0.00     0.198 A 
HETATM    9  O2  UNK     1      21.961  -4.675  37.580  1.00  0.00    -0.286 OA
HETATM   10  C3  UNK     1      20.839  -6.656  38.208  1.00  0.00     0.049 A 
HETATM   11  C12 UNK     1      21.882  -7.124  39.012  1.00  0.00     0.025 A 
HETATM   12  C9  UNK     1      19.668  -7.402  38.070  1.00  0.00     0.089 A 
HETATM   13  C11 UNK     1      21.745  -8.343  39.677  1.00  0.00    -0.061 A 
HETATM   14  C16 UNK     1      20.574  -9.090  39.538  1.00  0.00     0.009 A 
HETATM   15  C20 UNK     1      22.854  -8.850  40.537  1.00  0.00     0.048 C 
HETATM   16  C15 UNK     1      19.534  -8.621  38.735  1.00  0.00     0.039 A 
HETATM   17  O1  UNK     1      18.611  -6.992  37.294  1.00  0.00    -0.321 OA
HETATM   18  C19 UNK     1      18.734  -5.792  36.635  1.00  0.00     0.159 A 
ENDBRANCH   6   7
ENDBRANCH   2   5
BRANCH   3  19
HETATM   19  C7  UNK     1      18.411   0.143  34.332  1.00  0.00     0.097 A 
HETATM   20  C6  UNK     1      18.188   1.457  34.542  1.00  0.00     0.068 A 
HETATM   21  C1  UNK     1      18.291   2.210  33.324  1.00  0.00     0.004 A 
HETATM   22 Cl1  UNK     1      17.824   2.178  36.060  1.00  0.00    -0.082 Cl
HETATM   23  C2  UNK     1      18.595   1.382  32.240  1.00  0.00     0.018 A 
HETATM   24  C8  UNK     1      18.135   3.597  33.084  1.00  0.00     0.015 A 
HETATM   25  S1  UNK     1      18.744  -0.265  32.731  1.00  0.00    -0.082 SA
HETATM   26  C5  UNK     1      18.746   1.897  30.939  1.00  0.00     0.026 A 
HETATM   27  C4  UNK     1      18.587   3.269  30.734  1.00  0.00    -0.061 A 
HETATM   28  C10 UNK     1      18.285   4.111  31.793  1.00  0.00     0.007 A 
HETATM   29  C17 UNK     1      18.745   3.832  29.360  1.00  0.00     0.048 C 
ENDBRANCH   3  19
TORSDOF 3
ENDMDL
MODEL 5
REMARK VINA RESULT:      -9.5      6.284      9.523
REMARK  3 active torsions:
REMARK  status: ('A' for Active; 'I' for Inactive)
REMARK       I    between atoms: C18_25  and  N1_6 
REMARK    1  A    between atoms: N1_6  and  N2_7 
REMARK    2  A    between atoms: C18_25  and  C7_14 
REMARK    3  A    between atoms: C14_21  and  C21_28 
ROOT
HETATM    1  O3  UNK     1      17.581  -1.457  35.943  1.00  0.00    -0.265 OA
HETATM    2  N1  UNK     1      19.847  -1.589  35.604  1.00  0.00    -0.243 N 
HETATM    3  C18 UNK     1      18.590  -1.051  35.362  1.00  0.00     0.280 C 
HETATM    4  H15 UNK     1      20.683  -1.271  35.125  1.00  0.00     0.192 HD
ENDROOT
BRANCH   2   5
HETATM    5  N2  UNK     1      19.961  -2.591  36.510  1.00  0.00    -0.183 NA
HETATM    6  C21 UNK     1      20.221  -3.747  35.987  1.00  0.00     0.156 C 
BRANCH   6   7
HETATM    7  C14 UNK     1      20.380  -4.956  36.795  1.00  0.00     0.056 A 
HETATM    8  C13 UNK     1      19.890  -6.288  36.381  1.00  0.00     0.198 A 
HETATM    9  O2  UNK     1      19.310  -6.468  35.319  1.00  0.00    -0.286 OA
HETATM   10  C3  UNK     1      20.141  -7.391  37.328  1.00  0.00     0.049 A 
HETATM   11  C12 UNK     1      19.720  -8.691  37.035  1.00  0.00     0.025 A 
HETATM   12  C9  UNK     1      20.808  -7.120  38.523  1.00  0.00     0.089 A 
HETATM   13  C11 UNK     1      19.970  -9.717  37.947  1.00  0.00    -0.061 A 
HETATM   14  C16 UNK     1      20.636  -9.446  39.143  1.00  0.00     0.009 A 
HETATM   15  C20 UNK     1      19.524 -11.108  37.642  1.00  0.00     0.048 C 
HETATM   16  C15 UNK     1      21.056  -8.147  39.434  1.00  0.00     0.039 A 
HETATM   17  O1  UNK     1      21.245  -5.862  38.864  1.00  0.00    -0.321 OA
HETATM   18  C19 UNK     1      21.005  -4.843  37.972  1.00  0.00     0.159 A 
ENDBRANCH   6   7
ENDBRANCH   2   5
BRANCH   3  19
HETATM   19  C7  UNK     1      18.537   0.013  34.349  1.00  0.00     0.097 A 
HETATM   20  C6  UNK     1      18.263   1.321  34.527  1.00  0.00     0.068 A 
HETATM   21  C1  UNK     1      18.310   2.044  33.288  1.00  0.00     0.004 A 
HETATM   22 Cl1  UNK     1      17.898   2.068  36.033  1.00  0.00    -0.082 Cl
HETATM   23  C2  UNK     1      18.628   1.200  32.221  1.00  0.00     0.018 A 
HETATM   24  C8  UNK     1      18.091   3.416  33.014  1.00  0.00     0.015 A 
HETATM   25  S1  UNK     1      18.857  -0.425  32.753  1.00  0.00    -0.082 SA
HETATM   26  C5  UNK     1      18.732   1.685  30.903  1.00  0.00     0.026 A 
HETATM   27  C4  UNK     1      18.510   3.043  30.665  1.00  0.00    -0.061 A 
HETATM   28  C10 UNK     1      18.193   3.901  31.707  1.00  0.00     0.007 A 
HETATM   29  C17 UNK     1      18.617   3.573  29.274  1.00  0.00     0.048 C 
ENDBRANCH   3  19
TORSDOF 3
ENDMDL
MODEL 6
REMARK VINA RESULT:      -9.3      7.403     13.473
REMARK  3 active torsions:
REMARK  status: ('A' for Active; 'I' for Inactive)
REMARK       I    between atoms: C18_25  and  N1_6 
REMARK    1  A    between atoms: N1_6  and  N2_7 
REMARK    2  A    between atoms: C18_25  and  C7_14 
REMARK    3  A    between atoms: C14_21  and  C21_28 
ROOT
HETATM    1  O3  UNK     1      21.480  -3.992  37.128  1.00  0.00    -0.265 OA
HETATM    2  N1  UNK     1      19.239  -3.753  36.699  1.00  0.00    -0.243 N 
HETATM    3  C18 UNK     1      20.356  -4.495  37.058  1.00  0.00     0.280 C 
HETATM    4  H15 UNK     1      18.310  -4.157  36.627  1.00  0.00     0.192 HD
ENDROOT
BRANCH   2   5
HETATM    5  N2  UNK     1      19.395  -2.437  36.420  1.00  0.00    -0.183 NA
HETATM    6  C21 UNK     1      18.416  -1.921  35.746  1.00  0.00     0.156 C 
BRANCH   6   7
HETATM    7  C14 UNK     1      18.395  -0.514  35.345  1.00  0.00     0.056 A 
HETATM    8  C13 UNK     1      18.327  -0.066  33.937  1.00  0.00     0.198 A 
HETATM    9  O2  UNK     1      18.283  -0.855  33.003  1.00  0.00    -0.286 OA
HETATM   10  C3  UNK     1      18.317   1.393  33.724  1.00  0.00     0.049 A 
HETATM   11  C12 UNK     1      18.254   1.925  32.434  1.00  0.00     0.025 A 
HETATM   12  C9  UNK     1      18.370   2.241  34.832  1.00  0.00     0.089 A 
HETATM   13  C11 UNK     1      18.245   3.309  32.259  1.00  0.00    -0.061 A 
HETATM   14  C16 UNK     1      18.299   4.157  33.367  1.00  0.00     0.009 A 
HETATM   15  C20 UNK     1      18.179   3.885  30.884  1.00  0.00     0.048 C 
HETATM   16  C15 UNK     1      18.361   3.624  34.655  1.00  0.00     0.039 A 
HETATM   17  O1  UNK     1      18.432   1.775  36.123  1.00  0.00    -0.321 OA
HETATM   18  C19 UNK     1      18.441   0.412  36.308  1.00  0.00     0.159 A 
ENDBRANCH   6   7
ENDBRANCH   2   5
BRANCH   3  19
HETATM   19  C7  UNK     1      20.117  -5.922  37.320  1.00  0.00     0.097 A 
HETATM   20  C6  UNK     1      19.891  -6.907  36.428  1.00  0.00     0.068 A 
HETATM   21  C1  UNK     1      19.703  -8.173  37.077  1.00  0.00     0.004 A 
HETATM   22 Cl1  UNK     1      19.828  -6.712  34.721  1.00  0.00    -0.082 Cl
HETATM   23  C2  UNK     1      19.804  -8.051  38.466  1.00  0.00     0.018 A 
HETATM   24  C8  UNK     1      19.445  -9.456  36.535  1.00  0.00     0.015 A 
HETATM   25  S1  UNK     1      20.120  -6.420  38.931  1.00  0.00    -0.082 SA
HETATM   26  C5  UNK     1      19.656  -9.163  39.316  1.00  0.00     0.026 A 
HETATM   27  C4  UNK     1      19.401 -10.415  38.752  1.00  0.00    -0.061 A 
HETATM   28  C10 UNK     1      19.297 -10.562  37.377  1.00  0.00     0.007 A 
HETATM   29  C17 UNK     1      19.242 -11.604  39.640  1.00  0.00     0.048 C 
ENDBRANCH   3  19
TORSDOF 3
ENDMDL
MODEL 7
REMARK VINA RESULT:      -9.2      6.415     12.467
REMARK  3 active torsions:
REMARK  status: ('A' for Active; 'I' for Inactive)
REMARK       I    between atoms: C18_25  and  N1_6 
REMARK    1  A    between atoms: N1_6  and  N2_7 
REMARK    2  A    between atoms: C18_25  and  C7_14 
REMARK    3  A    between atoms: C14_21  and  C21_28 
ROOT
HETATM    1  O3  UNK     1      20.553  -4.041  33.826  1.00  0.00    -0.265 OA
HETATM    2  N1  UNK     1      19.766  -2.711  35.523  1.00  0.00    -0.243 N 
HETATM    3  C18 UNK     1      20.154  -3.933  34.988  1.00  0.00     0.280 C 
HETATM    4  H15 UNK     1      19.426  -2.610  36.474  1.00  0.00     0.192 HD
ENDROOT
BRANCH   2   5
HETATM    5  N2  UNK     1      19.831  -1.608  34.738  1.00  0.00    -0.183 NA
HETATM    6  C21 UNK     1      18.720  -0.947  34.665  1.00  0.00     0.156 C 
BRANCH   6   7
HETATM    7  C14 UNK     1      18.584   0.272  33.868  1.00  0.00     0.056 A 
HETATM    8  C13 UNK     1      18.396   1.617  34.454  1.00  0.00     0.198 A 
HETATM    9  O2  UNK     1      18.342   1.799  35.663  1.00  0.00    -0.286 OA
HETATM   10  C3  UNK     1      18.275   2.729  33.493  1.00  0.00     0.049 A 
HETATM   11  C12 UNK     1      18.096   4.040  33.939  1.00  0.00     0.025 A 
HETATM   12  C9  UNK     1      18.345   2.455  32.126  1.00  0.00     0.089 A 
HETATM   13  C11 UNK     1      17.985   5.075  33.010  1.00  0.00    -0.061 A 
HETATM   14  C16 UNK     1      18.054   4.801  31.643  1.00  0.00     0.009 A 
HETATM   15  C20 UNK     1      17.792   6.479  33.479  1.00  0.00     0.048 C 
HETATM   16  C15 UNK     1      18.234   3.491  31.199  1.00  0.00     0.039 A 
HETATM   17  O1  UNK     1      18.521   1.186  31.630  1.00  0.00    -0.321 OA
HETATM   18  C19 UNK     1      18.632   0.158  32.536  1.00  0.00     0.159 A 
ENDBRANCH   6   7
ENDBRANCH   2   5
BRANCH   3  19
HETATM   19  C7  UNK     1      20.032  -5.089  35.887  1.00  0.00     0.097 A 
HETATM   20  C6  UNK     1      20.172  -5.121  37.228  1.00  0.00     0.068 A 
HETATM   21  C1  UNK     1      19.976  -6.444  37.748  1.00  0.00     0.004 A 
HETATM   22 Cl1  UNK     1      20.540  -3.769  38.225  1.00  0.00    -0.082 Cl
HETATM   23  C2  UNK     1      19.690  -7.353  36.725  1.00  0.00     0.018 A 
HETATM   24  C8  UNK     1      20.028  -6.928  39.078  1.00  0.00     0.015 A 
HETATM   25  S1  UNK     1      19.670  -6.578  35.184  1.00  0.00    -0.082 SA
HETATM   26  C5  UNK     1      19.458  -8.715  36.994  1.00  0.00     0.026 A 
HETATM   27  C4  UNK     1      19.516  -9.162  38.316  1.00  0.00    -0.061 A 
HETATM   28  C10 UNK     1      19.798  -8.280  39.348  1.00  0.00     0.007 A 
HETATM   29  C17 UNK     1      19.272 -10.603  38.617  1.00  0.00     0.048 C 
ENDBRANCH   3  19
TORSDOF 3
ENDMDL
MODEL 8
REMARK VINA RESULT:      -9.1      1.647      2.286
REMARK  3 active torsions:
REMARK  status: ('A' for Active; 'I' for Inactive)
REMARK       I    between atoms: C18_25  and  N1_6 
REMARK    1  A    between atoms: N1_6  and  N2_7 
REMARK    2  A    between atoms: C18_25  and  C7_14 
REMARK    3  A    between atoms: C14_21  and  C21_28 
ROOT
HETATM    1  O3  UNK     1      16.190   8.342  31.043  1.00  0.00    -0.265 OA
HETATM    2  N1  UNK     1      16.150   6.968  32.880  1.00  0.00    -0.243 N 
HETATM    3  C18 UNK     1      16.020   8.202  32.256  1.00  0.00     0.280 C 
HETATM    4  H15 UNK     1      16.024   6.841  33.880  1.00  0.00     0.192 HD
ENDROOT
BRANCH   2   5
HETATM    5  N2  UNK     1      16.472   5.889  32.126  1.00  0.00    -0.183 NA
HETATM    6  C21 UNK     1      17.561   5.295  32.496  1.00  0.00     0.156 C 
BRANCH   6   7
HETATM    7  C14 UNK     1      18.081   4.111  31.810  1.00  0.00     0.056 A 
HETATM    8  C13 UNK     1      18.262   2.798  32.466  1.00  0.00     0.198 A 
HETATM    9  O2  UNK     1      17.984   2.614  33.643  1.00  0.00    -0.286 OA
HETATM   10  C3  UNK     1      18.800   1.720  31.615  1.00  0.00     0.049 A 
HETATM   11  C12 UNK     1      19.010   0.440  32.134  1.00  0.00     0.025 A 
HETATM   12  C9  UNK     1      19.097   1.995  30.279  1.00  0.00     0.089 A 
HETATM   13  C11 UNK     1      19.520  -0.563  31.309  1.00  0.00    -0.061 A 
HETATM   14  C16 UNK     1      19.818  -0.288  29.972  1.00  0.00     0.009 A 
HETATM   15  C20 UNK     1      19.747  -1.932  31.855  1.00  0.00     0.048 C 
HETATM   16  C15 UNK     1      19.608   0.991  29.456  1.00  0.00     0.039 A 
HETATM   17  O1  UNK     1      18.912   3.234  29.715  1.00  0.00    -0.321 OA
HETATM   18  C19 UNK     1      18.409   4.230  30.519  1.00  0.00     0.159 A 
ENDBRANCH   6   7
ENDBRANCH   2   5
BRANCH   3  19
HETATM   19  C7  UNK     1      15.695   9.331  33.139  1.00  0.00     0.097 A 
HETATM   20  C6  UNK     1      16.544  10.141  33.803  1.00  0.00     0.068 A 
HETATM   21  C1  UNK     1      15.841  11.133  34.565  1.00  0.00     0.004 A 
HETATM   22 Cl1  UNK     1      18.260  10.032  33.768  1.00  0.00    -0.082 Cl
HETATM   23  C2  UNK     1      14.457  10.998  34.418  1.00  0.00     0.018 A 
HETATM   24  C8  UNK     1      16.326  12.170  35.398  1.00  0.00     0.015 A 
HETATM   25  S1  UNK     1      14.063   9.685  33.371  1.00  0.00    -0.082 SA
HETATM   26  C5  UNK     1      13.558  11.861  35.072  1.00  0.00     0.026 A 
HETATM   27  C4  UNK     1      14.068  12.875  35.887  1.00  0.00    -0.061 A 
HETATM   28  C10 UNK     1      15.437  13.029  36.049  1.00  0.00     0.007 A 
HETATM   29  C17 UNK     1      13.129  13.799  36.587  1.00  0.00     0.048 C 
ENDBRANCH   3  19
TORSDOF 3
ENDMDL
MODEL 9
REMARK VINA RESULT:      -9.0      1.433      2.349
REMARK  3 active torsions:
REMARK  status: ('A' for Active; 'I' for Inactive)
REMARK       I    between atoms: C18_25  and  N1_6 
REMARK    1  A    between atoms: N1_6  and  N2_7 
REMARK    2  A    between atoms: C18_25  and  C7_14 
REMARK    3  A    between atoms: C14_21  and  C21_28 
ROOT
HETATM    1  O3  UNK     1      19.415   7.105  32.549  1.00  0.00    -0.265 OA
HETATM    2  N1  UNK     1      17.960   6.227  34.091  1.00  0.00    -0.243 N 
HETATM    3  C18 UNK     1      18.492   7.273  33.349  1.00  0.00     0.280 C 
HETATM    4  H15 UNK     1      17.208   6.354  34.760  1.00  0.00     0.192 HD
ENDROOT
BRANCH   2   5
HETATM    5  N2  UNK     1      18.477   4.985  33.927  1.00  0.00    -0.183 NA
HETATM    6  C21 UNK     1      17.859   4.270  33.042  1.00  0.00     0.156 C 
BRANCH   6   7
HETATM    7  C14 UNK     1      18.262   2.901  32.719  1.00  0.00     0.056 A 
HETATM    8  C13 UNK     1      18.834   2.502  31.414  1.00  0.00     0.198 A 
HETATM    9  O2  UNK     1      19.010   3.304  30.507  1.00  0.00    -0.286 OA
HETATM   10  C3  UNK     1      19.180   1.076  31.270  1.00  0.00     0.049 A 
HETATM   11  C12 UNK     1      19.727   0.592  30.079  1.00  0.00     0.025 A 
HETATM   12  C9  UNK     1      18.954   0.211  32.342  1.00  0.00     0.089 A 
HETATM   13  C11 UNK     1      20.046  -0.762  29.967  1.00  0.00    -0.061 A 
HETATM   14  C16 UNK     1      19.820  -1.627  31.040  1.00  0.00     0.009 A 
HETATM   15  C20 UNK     1      20.630  -1.287  28.699  1.00  0.00     0.048 C 
HETATM   16  C15 UNK     1      19.273  -1.142  32.228  1.00  0.00     0.039 A 
HETATM   17  O1  UNK     1      18.419   0.630  33.536  1.00  0.00    -0.321 OA
HETATM   18  C19 UNK     1      18.101   1.963  33.658  1.00  0.00     0.159 A 
ENDBRANCH   6   7
ENDBRANCH   2   5
BRANCH   3  19
HETATM   19  C7  UNK     1      17.901   8.596  33.598  1.00  0.00     0.097 A 
HETATM   20  C6  UNK     1      18.515   9.714  34.033  1.00  0.00     0.068 A 
HETATM   21  C1  UNK     1      17.595  10.809  34.152  1.00  0.00     0.004 A 
HETATM   22 Cl1  UNK     1      20.188   9.853  34.409  1.00  0.00    -0.082 Cl
HETATM   23  C2  UNK     1      16.302  10.427  33.784  1.00  0.00     0.018 A 
HETATM   24  C8  UNK     1      17.805  12.147  34.566  1.00  0.00     0.015 A 
HETATM   25  S1  UNK     1      16.248   8.768  33.313  1.00  0.00    -0.082 SA
HETATM   26  C5  UNK     1      15.227  11.335  33.820  1.00  0.00     0.026 A 
HETATM   27  C4  UNK     1      15.465  12.648  34.233  1.00  0.00    -0.061 A 
HETATM   28  C10 UNK     1      16.740  13.051  34.602  1.00  0.00     0.007 A 
HETATM   29  C17 UNK     1      14.337  13.623  34.275  1.00  0.00     0.048 C 
ENDBRANCH   3  19
TORSDOF 3
ENDMDL
MODEL 10
REMARK VINA RESULT:      -8.9      6.673     10.141
REMARK  3 active torsions:
REMARK  status: ('A' for Active; 'I' for Inactive)
REMARK       I    between atoms: C18_25  and  N1_6 
REMARK    1  A    between atoms: N1_6  and  N2_7 
REMARK    2  A    between atoms: C18_25  and  C7_14 
REMARK    3  A    between atoms: C14_21  and  C21_28 
ROOT
HETATM    1  O3  UNK     1      20.857  -3.235  32.435  1.00  0.00    -0.265 OA
HETATM    2  N1  UNK     1      19.764  -2.674  34.373  1.00  0.00    -0.243 N 
HETATM    3  C18 UNK     1      20.167  -2.432  33.067  1.00  0.00     0.280 C 
HETATM    4  H15 UNK     1      19.205  -2.016  34.908  1.00  0.00     0.192 HD
ENDROOT
BRANCH   2   5
HETATM    5  N2  UNK     1      20.143  -3.832  34.966  1.00  0.00    -0.183 NA
HETATM    6  C21 UNK     1      20.012  -3.832  36.254  1.00  0.00     0.156 C 
BRANCH   6   7
HETATM    7  C14 UNK     1      20.368  -4.987  37.080  1.00  0.00     0.056 A 
HETATM    8  C13 UNK     1      19.615  -6.260  37.075  1.00  0.00     0.198 A 
HETATM    9  O2  UNK     1      18.631  -6.432  36.369  1.00  0.00    -0.286 OA
HETATM   10  C3  UNK     1      20.122  -7.312  37.975  1.00  0.00     0.049 A 
HETATM   11  C12 UNK     1      19.486  -8.554  38.048  1.00  0.00     0.025 A 
HETATM   12  C9  UNK     1      21.250  -7.053  38.754  1.00  0.00     0.089 A 
HETATM   13  C11 UNK     1      19.985  -9.534  38.907  1.00  0.00    -0.061 A 
HETATM   14  C16 UNK     1      21.114  -9.274  39.688  1.00  0.00     0.009 A 
HETATM   15  C20 UNK     1      19.312 -10.863  38.992  1.00  0.00     0.048 C 
HETATM   16  C15 UNK     1      21.748  -8.034  39.613  1.00  0.00     0.039 A 
HETATM   17  O1  UNK     1      21.916  -5.852  38.723  1.00  0.00    -0.321 OA
HETATM   18  C19 UNK     1      21.434  -4.879  37.880  1.00  0.00     0.159 A 
ENDBRANCH   6   7
ENDBRANCH   2   5
BRANCH   3  19
HETATM   19  C7  UNK     1      19.741  -1.145  32.497  1.00  0.00     0.097 A 
HETATM   20  C6  UNK     1      19.812  -0.738  31.214  1.00  0.00     0.068 A 
HETATM   21  C1  UNK     1      19.292   0.590  31.052  1.00  0.00     0.004 A 
HETATM   22 Cl1  UNK     1      20.439  -1.662  29.906  1.00  0.00    -0.082 Cl
HETATM   23  C2  UNK     1      18.848   1.112  32.271  1.00  0.00     0.018 A 
HETATM   24  C8  UNK     1      19.172   1.398  29.895  1.00  0.00     0.015 A 
HETATM   25  S1  UNK     1      19.075  -0.015  33.556  1.00  0.00    -0.082 SA
HETATM   26  C5  UNK     1      18.295   2.404  32.361  1.00  0.00     0.026 A 
HETATM   27  C4  UNK     1      18.191   3.176  31.202  1.00  0.00    -0.061 A 
HETATM   28  C10 UNK     1      18.625   2.680  29.982  1.00  0.00     0.007 A 
HETATM   29  C17 UNK     1      17.607   4.547  31.282  1.00  0.00     0.048 C 
ENDBRANCH   3  19
TORSDOF 3
ENDMDL
