MODEL 1
REMARK VINA RESULT:      -9.2      0.000      0.000
REMARK  6 active torsions:
REMARK  status: ('A' for Active; 'I' for Inactive)
REMARK    1  A    between atoms: C18_25  and  O2_2 
REMARK    2  A    between atoms: C8_15  and  O2_2 
REMARK    3  A    between atoms: C5_12  and  O3_3 
REMARK    4  A    between atoms: C7_14  and  N1_7 
REMARK       I    between atoms: C9_16  and  N1_7 
REMARK    5  A    between atoms: C3_10  and  C9_16 
REMARK    6  A    between atoms: C11_18  and  C18_25 
ROOT
HETATM    1  O4  UNK     1      18.628   4.867  30.389  1.00  0.00    -0.267 OA
HETATM    2  N1  UNK     1      17.583   4.651  32.488  1.00  0.00    -0.323 N 
HETATM    3  C9  UNK     1      18.280   4.214  31.371  1.00  0.00     0.262 C 
HETATM    4  H4  UNK     1      17.389   3.984  33.230  1.00  0.00     0.169 HD
ENDROOT
BRANCH   3   5
HETATM    5  C3  UNK     1      18.607   2.785  31.447  1.00  0.00     0.108 A 
HETATM    6  C10 UNK     1      18.386   1.993  32.678  1.00  0.00     0.304 A 
HETATM    7  O1  UNK     1      18.734   0.646  32.627  1.00  0.00    -0.271 OA
HETATM    8  O5  UNK     1      17.919   2.494  33.696  1.00  0.00    -0.259 OA
HETATM    9  C2  UNK     1      19.271   0.062  31.463  1.00  0.00     0.123 A 
HETATM   10  C1  UNK     1      19.472   0.824  30.318  1.00  0.00     0.002 A 
HETATM   11  C5  UNK     1      19.590  -1.294  31.508  1.00  0.00     0.102 A 
HETATM   12  C4  UNK     1      19.117   2.234  30.339  1.00  0.00     0.037 A 
HETATM   13  C6  UNK     1      20.007   0.208  29.184  1.00  0.00     0.014 A 
HETATM   14  C13 UNK     1      20.333  -1.151  29.214  1.00  0.00     0.004 A 
HETATM   15  C12 UNK     1      20.124  -1.901  30.373  1.00  0.00     0.040 A 
BRANCH  11  16
HETATM   16  O3  UNK     1      19.388  -2.028  32.636  1.00  0.00    -0.353 OA
HETATM   17  C21 UNK     1      20.547  -2.446  33.356  1.00  0.00     0.210 C 
ENDBRANCH  11  16
ENDBRANCH   3   5
BRANCH   2  18
HETATM   18  C7  UNK     1      17.111   5.960  32.753  1.00  0.00     0.035 A 
HETATM   19  C14 UNK     1      16.126   6.501  31.944  1.00  0.00     0.030 A 
HETATM   20  C16 UNK     1      15.659   7.788  32.206  1.00  0.00     0.020 A 
HETATM   21  C11 UNK     1      16.184   8.516  33.275  1.00  0.00     0.039 A 
HETATM   22  C17 UNK     1      17.175   7.956  34.080  1.00  0.00     0.020 A 
HETATM   23  C15 UNK     1      17.642   6.668  33.817  1.00  0.00     0.030 A 
BRANCH  21  24
HETATM   24  C18 UNK     1      15.698   9.860  33.548  1.00  0.00     0.293 C 
HETATM   25  O6  UNK     1      14.734  10.386  32.975  1.00  0.00    -0.259 OA
BRANCH  24  26
HETATM   26  O2  UNK     1      16.437  10.474  34.522  1.00  0.00    -0.313 OA
BRANCH  26  27
HETATM   27  C8  UNK     1      17.077  11.705  34.168  1.00  0.00     0.124 C 
HETATM   28  C19 UNK     1      16.769  12.752  35.227  1.00  0.00     0.040 C 
HETATM   29  C20 UNK     1      18.573  11.468  34.024  1.00  0.00     0.040 C 
ENDBRANCH  26  27
ENDBRANCH  24  26
ENDBRANCH  21  24
ENDBRANCH   2  18
TORSDOF 6
ENDMDL
MODEL 2
REMARK VINA RESULT:      -9.1      5.418     10.153
REMARK  6 active torsions:
REMARK  status: ('A' for Active; 'I' for Inactive)
REMARK    1  A    between atoms: C18_25  and  O2_2 
REMARK    2  A    between atoms: C8_15  and  O2_2 
REMARK    3  A    between atoms: C5_12  and  O3_3 
REMARK    4  A    between atoms: C7_14  and  N1_7 
REMARK       I    between atoms: C9_16  and  N1_7 
REMARK    5  A    between atoms: C3_10  and  C9_16 
REMARK    6  A    between atoms: C11_18  and  C18_25 
ROOT
HETATM    1  O4  UNK     1      19.991  -2.258  36.683  1.00  0.00    -0.267 OA
HETATM    2  N1  UNK     1      20.120  -3.591  34.747  1.00  0.00    -0.323 N 
HETATM    3  C9  UNK     1      20.095  -3.341  36.112  1.00  0.00     0.262 C 
HETATM    4  H4  UNK     1      20.192  -4.556  34.433  1.00  0.00     0.169 HD
ENDROOT
BRANCH   3   5
HETATM    5  C3  UNK     1      20.211  -4.573  36.902  1.00  0.00     0.108 A 
HETATM    6  C10 UNK     1      19.103  -5.550  37.001  1.00  0.00     0.304 A 
HETATM    7  O1  UNK     1      19.334  -6.681  37.780  1.00  0.00    -0.271 OA
HETATM    8  O5  UNK     1      18.033  -5.376  36.428  1.00  0.00    -0.259 OA
HETATM    9  C2  UNK     1      20.559  -6.888  38.443  1.00  0.00     0.123 A 
HETATM   10  C1  UNK     1      21.587  -5.957  38.337  1.00  0.00     0.002 A 
HETATM   11  C5  UNK     1      20.697  -8.050  39.200  1.00  0.00     0.102 A 
HETATM   12  C4  UNK     1      21.377  -4.765  37.530  1.00  0.00     0.037 A 
HETATM   13  C6  UNK     1      22.787  -6.198  39.010  1.00  0.00     0.014 A 
HETATM   14  C13 UNK     1      22.940  -7.359  39.774  1.00  0.00     0.004 A 
HETATM   15  C12 UNK     1      21.897  -8.284  39.868  1.00  0.00     0.040 A 
BRANCH  11  16
HETATM   16  O3  UNK     1      19.683  -8.953  39.294  1.00  0.00    -0.353 OA
HETATM   17  C21 UNK     1      19.756 -10.102  38.451  1.00  0.00     0.210 C 
ENDBRANCH  11  16
ENDBRANCH   3   5
BRANCH   2  18
HETATM   18  C7  UNK     1      20.030  -2.648  33.695  1.00  0.00     0.035 A 
HETATM   19  C14 UNK     1      19.049  -1.671  33.742  1.00  0.00     0.030 A 
HETATM   20  C16 UNK     1      18.962  -0.742  32.707  1.00  0.00     0.020 A 
HETATM   21  C11 UNK     1      19.857  -0.802  31.639  1.00  0.00     0.039 A 
HETATM   22  C17 UNK     1      20.839  -1.792  31.606  1.00  0.00     0.020 A 
HETATM   23  C15 UNK     1      20.925  -2.722  32.642  1.00  0.00     0.030 A 
BRANCH  21  24
HETATM   24  C18 UNK     1      19.765   0.168  30.558  1.00  0.00     0.293 C 
HETATM   25  O6  UNK     1      20.560   0.239  29.611  1.00  0.00    -0.259 OA
BRANCH  24  26
HETATM   26  O2  UNK     1      18.686   0.995  30.715  1.00  0.00    -0.313 OA
BRANCH  26  27
HETATM   27  C8  UNK     1      18.733   2.254  30.035  1.00  0.00     0.124 C 
HETATM   28  C19 UNK     1      17.885   2.174  28.775  1.00  0.00     0.040 C 
HETATM   29  C20 UNK     1      18.250   3.349  30.975  1.00  0.00     0.040 C 
ENDBRANCH  26  27
ENDBRANCH  24  26
ENDBRANCH  21  24
ENDBRANCH   2  18
TORSDOF 6
ENDMDL
MODEL 3
REMARK VINA RESULT:      -9.1      1.021      1.521
REMARK  6 active torsions:
REMARK  status: ('A' for Active; 'I' for Inactive)
REMARK    1  A    between atoms: C18_25  and  O2_2 
REMARK    2  A    between atoms: C8_15  and  O2_2 
REMARK    3  A    between atoms: C5_12  and  O3_3 
REMARK    4  A    between atoms: C7_14  and  N1_7 
REMARK       I    between atoms: C9_16  and  N1_7 
REMARK    5  A    between atoms: C3_10  and  C9_16 
REMARK    6  A    between atoms: C11_18  and  C18_25 
ROOT
HETATM    1  O4  UNK     1      18.231   4.796  30.453  1.00  0.00    -0.267 OA
HETATM    2  N1  UNK     1      18.094   4.716  32.802  1.00  0.00    -0.323 N 
HETATM    3  C9  UNK     1      18.295   4.203  31.528  1.00  0.00     0.262 C 
HETATM    4  H4  UNK     1      18.206   4.093  33.598  1.00  0.00     0.169 HD
ENDROOT
BRANCH   3   5
HETATM    5  C3  UNK     1      18.623   2.773  31.553  1.00  0.00     0.108 A 
HETATM    6  C10 UNK     1      18.407   1.938  32.756  1.00  0.00     0.304 A 
HETATM    7  O1  UNK     1      18.756   0.594  32.657  1.00  0.00    -0.271 OA
HETATM    8  O5  UNK     1      17.945   2.404  33.793  1.00  0.00    -0.259 OA
HETATM    9  C2  UNK     1      19.287   0.051  31.471  1.00  0.00     0.123 A 
HETATM   10  C1  UNK     1      19.483   0.853  30.351  1.00  0.00     0.002 A 
HETATM   11  C5  UNK     1      19.607  -1.305  31.466  1.00  0.00     0.102 A 
HETATM   12  C4  UNK     1      19.127   2.262  30.424  1.00  0.00     0.037 A 
HETATM   13  C6  UNK     1      20.013   0.278  29.194  1.00  0.00     0.014 A 
HETATM   14  C13 UNK     1      20.339  -1.082  29.175  1.00  0.00     0.004 A 
HETATM   15  C12 UNK     1      20.135  -1.872  30.308  1.00  0.00     0.040 A 
BRANCH  11  16
HETATM   16  O3  UNK     1      19.410  -2.078  32.569  1.00  0.00    -0.353 OA
HETATM   17  C21 UNK     1      20.571  -2.483  33.294  1.00  0.00     0.210 C 
ENDBRANCH  11  16
ENDBRANCH   3   5
BRANCH   2  18
HETATM   18  C7  UNK     1      17.767   6.048  33.155  1.00  0.00     0.035 A 
HETATM   19  C14 UNK     1      16.491   6.523  32.896  1.00  0.00     0.030 A 
HETATM   20  C16 UNK     1      16.169   7.834  33.246  1.00  0.00     0.020 A 
HETATM   21  C11 UNK     1      17.125   8.651  33.849  1.00  0.00     0.039 A 
HETATM   22  C17 UNK     1      18.405   8.156  34.103  1.00  0.00     0.020 A 
HETATM   23  C15 UNK     1      18.727   6.845  33.753  1.00  0.00     0.030 A 
BRANCH  21  24
HETATM   24  C18 UNK     1      16.789  10.018  34.213  1.00  0.00     0.293 C 
HETATM   25  O6  UNK     1      17.330  11.024  33.735  1.00  0.00    -0.259 OA
BRANCH  24  26
HETATM   26  O2  UNK     1      15.794  10.059  35.151  1.00  0.00    -0.313 OA
BRANCH  26  27
HETATM   27  C8  UNK     1      14.784  11.059  34.980  1.00  0.00     0.124 C 
HETATM   28  C19 UNK     1      13.790  10.591  33.928  1.00  0.00     0.040 C 
HETATM   29  C20 UNK     1      14.110  11.326  36.317  1.00  0.00     0.040 C 
ENDBRANCH  26  27
ENDBRANCH  24  26
ENDBRANCH  21  24
ENDBRANCH   2  18
TORSDOF 6
ENDMDL
MODEL 4
REMARK VINA RESULT:      -9.1      6.135     12.236
REMARK  6 active torsions:
REMARK  status: ('A' for Active; 'I' for Inactive)
REMARK    1  A    between atoms: C18_25  and  O2_2 
REMARK    2  A    between atoms: C8_15  and  O2_2 
REMARK    3  A    between atoms: C5_12  and  O3_3 
REMARK    4  A    between atoms: C7_14  and  N1_7 
REMARK       I    between atoms: C9_16  and  N1_7 
REMARK    5  A    between atoms: C3_10  and  C9_16 
REMARK    6  A    between atoms: C11_18  and  C18_25 
ROOT
HETATM    1  O4  UNK     1      18.683  -1.683  36.237  1.00  0.00    -0.267 OA
HETATM    2  N1  UNK     1      19.836  -3.368  35.064  1.00  0.00    -0.323 N 
HETATM    3  C9  UNK     1      19.191  -2.149  35.219  1.00  0.00     0.262 C 
HETATM    4  H4  UNK     1      20.223  -3.598  34.152  1.00  0.00     0.169 HD
ENDROOT
BRANCH   3   5
HETATM    5  C3  UNK     1      19.153  -1.380  33.969  1.00  0.00     0.108 A 
HETATM    6  C10 UNK     1      18.406  -0.108  33.851  1.00  0.00     0.304 A 
HETATM    7  O1  UNK     1      18.447   0.530  32.615  1.00  0.00    -0.271 OA
HETATM    8  O5  UNK     1      17.780   0.366  34.794  1.00  0.00    -0.259 OA
HETATM    9  C2  UNK     1      19.162  -0.006  31.526  1.00  0.00     0.123 A 
HETATM   10  C1  UNK     1      19.857  -1.204  31.658  1.00  0.00     0.002 A 
HETATM   11  C5  UNK     1      19.144   0.704  30.327  1.00  0.00     0.102 A 
HETATM   12  C4  UNK     1      19.835  -1.894  32.938  1.00  0.00     0.037 A 
HETATM   13  C6  UNK     1      20.554  -1.703  30.555  1.00  0.00     0.014 A 
HETATM   14  C13 UNK     1      20.545  -1.003  29.345  1.00  0.00     0.004 A 
HETATM   15  C12 UNK     1      19.842   0.199  29.232  1.00  0.00     0.040 A 
BRANCH  11  16
HETATM   16  O3  UNK     1      18.461   1.875  30.212  1.00  0.00    -0.353 OA
HETATM   17  C21 UNK     1      18.022   2.245  28.906  1.00  0.00     0.210 C 
ENDBRANCH  11  16
ENDBRANCH   3   5
BRANCH   2  18
HETATM   18  C7  UNK     1      20.058  -4.359  36.051  1.00  0.00     0.035 A 
HETATM   19  C14 UNK     1      20.950  -4.103  37.079  1.00  0.00     0.030 A 
HETATM   20  C16 UNK     1      21.166  -5.078  38.052  1.00  0.00     0.020 A 
HETATM   21  C11 UNK     1      20.487  -6.296  37.983  1.00  0.00     0.039 A 
HETATM   22  C17 UNK     1      19.593  -6.537  36.940  1.00  0.00     0.020 A 
HETATM   23  C15 UNK     1      19.377  -5.561  35.967  1.00  0.00     0.030 A 
BRANCH  21  24
HETATM   24  C18 UNK     1      20.714  -7.313  38.997  1.00  0.00     0.293 C 
HETATM   25  O6  UNK     1      21.577  -7.239  39.882  1.00  0.00    -0.259 OA
BRANCH  24  26
HETATM   26  O2  UNK     1      19.853  -8.367  38.854  1.00  0.00    -0.313 OA
BRANCH  26  27
HETATM   27  C8  UNK     1      20.436  -9.672  38.770  1.00  0.00     0.124 C 
HETATM   28  C19 UNK     1      19.331 -10.716  38.809  1.00  0.00     0.040 C 
HETATM   29  C20 UNK     1      21.264  -9.770  37.498  1.00  0.00     0.040 C 
ENDBRANCH  26  27
ENDBRANCH  24  26
ENDBRANCH  21  24
ENDBRANCH   2  18
TORSDOF 6
ENDMDL
MODEL 5
REMARK VINA RESULT:      -8.9      6.106     13.791
REMARK  6 active torsions:
REMARK  status: ('A' for Active; 'I' for Inactive)
REMARK    1  A    between atoms: C18_25  and  O2_2 
REMARK    2  A    between atoms: C8_15  and  O2_2 
REMARK    3  A    between atoms: C5_12  and  O3_3 
REMARK    4  A    between atoms: C7_14  and  N1_7 
REMARK       I    between atoms: C9_16  and  N1_7 
REMARK    5  A    between atoms: C3_10  and  C9_16 
REMARK    6  A    between atoms: C11_18  and  C18_25 
ROOT
HETATM    1  O4  UNK     1      21.321  -3.831  36.811  1.00  0.00    -0.267 OA
HETATM    2  N1  UNK     1      19.223  -4.772  36.300  1.00  0.00    -0.323 N 
HETATM    3  C9  UNK     1      20.146  -3.747  36.457  1.00  0.00     0.262 C 
HETATM    4  H4  UNK     1      18.289  -4.535  35.977  1.00  0.00     0.169 HD
ENDROOT
BRANCH   3   5
HETATM    5  C3  UNK     1      19.574  -2.433  36.141  1.00  0.00     0.108 A 
HETATM    6  C10 UNK     1      19.747  -1.798  34.815  1.00  0.00     0.304 A 
HETATM    7  O1  UNK     1      19.156  -0.551  34.635  1.00  0.00    -0.271 OA
HETATM    8  O5  UNK     1      20.381  -2.341  33.915  1.00  0.00    -0.259 OA
HETATM    9  C2  UNK     1      18.427   0.079  35.662  1.00  0.00     0.123 A 
HETATM   10  C1  UNK     1      18.276  -0.534  36.901  1.00  0.00     0.002 A 
HETATM   11  C5  UNK     1      17.871   1.328  35.389  1.00  0.00     0.102 A 
HETATM   12  C4  UNK     1      18.882  -1.838  37.120  1.00  0.00     0.037 A 
HETATM   13  C6  UNK     1      17.546   0.124  37.895  1.00  0.00     0.014 A 
HETATM   14  C13 UNK     1      16.984   1.377  37.636  1.00  0.00     0.004 A 
HETATM   15  C12 UNK     1      17.145   1.978  36.385  1.00  0.00     0.040 A 
BRANCH  11  16
HETATM   16  O3  UNK     1      18.026   1.916  34.172  1.00  0.00    -0.353 OA
HETATM   17  C21 UNK     1      18.299   3.317  34.158  1.00  0.00     0.210 C 
ENDBRANCH  11  16
ENDBRANCH   3   5
BRANCH   2  18
HETATM   18  C7  UNK     1      19.426  -6.157  36.513  1.00  0.00     0.035 A 
HETATM   19  C14 UNK     1      19.547  -7.000  35.420  1.00  0.00     0.030 A 
HETATM   20  C16 UNK     1      19.749  -8.363  35.631  1.00  0.00     0.020 A 
HETATM   21  C11 UNK     1      19.828  -8.864  36.930  1.00  0.00     0.039 A 
HETATM   22  C17 UNK     1      19.705  -8.002  38.019  1.00  0.00     0.020 A 
HETATM   23  C15 UNK     1      19.502  -6.638  37.808  1.00  0.00     0.030 A 
BRANCH  21  24
HETATM   24  C18 UNK     1      20.037 -10.287  37.149  1.00  0.00     0.293 C 
HETATM   25  O6  UNK     1      19.136 -11.136  37.153  1.00  0.00    -0.259 OA
BRANCH  24  26
HETATM   26  O2  UNK     1      21.360 -10.576  37.349  1.00  0.00    -0.313 OA
BRANCH  26  27
HETATM   27  C8  UNK     1      22.276 -10.150  36.335  1.00  0.00     0.124 C 
HETATM   28  C19 UNK     1      23.256  -9.153  36.932  1.00  0.00     0.040 C 
HETATM   29  C20 UNK     1      22.984 -11.366  35.757  1.00  0.00     0.040 C 
ENDBRANCH  26  27
ENDBRANCH  24  26
ENDBRANCH  21  24
ENDBRANCH   2  18
TORSDOF 6
ENDMDL
MODEL 6
REMARK VINA RESULT:      -8.6      5.365      9.478
REMARK  6 active torsions:
REMARK  status: ('A' for Active; 'I' for Inactive)
REMARK    1  A    between atoms: C18_25  and  O2_2 
REMARK    2  A    between atoms: C8_15  and  O2_2 
REMARK    3  A    between atoms: C5_12  and  O3_3 
REMARK    4  A    between atoms: C7_14  and  N1_7 
REMARK       I    between atoms: C9_16  and  N1_7 
REMARK    5  A    between atoms: C3_10  and  C9_16 
REMARK    6  A    between atoms: C11_18  and  C18_25 
ROOT
HETATM    1  O4  UNK     1      20.541  -2.824  37.597  1.00  0.00    -0.267 OA
HETATM    2  N1  UNK     1      19.308  -3.099  35.609  1.00  0.00    -0.323 N 
HETATM    3  C9  UNK     1      20.018  -3.517  36.726  1.00  0.00     0.262 C 
HETATM    4  H4  UNK     1      18.918  -3.806  34.991  1.00  0.00     0.169 HD
ENDROOT
BRANCH   3   5
HETATM    5  C3  UNK     1      20.108  -4.980  36.809  1.00  0.00     0.108 A 
HETATM    6  C10 UNK     1      20.280  -5.825  35.606  1.00  0.00     0.304 A 
HETATM    7  O1  UNK     1      20.354  -7.200  35.812  1.00  0.00    -0.271 OA
HETATM    8  O5  UNK     1      20.353  -5.343  34.480  1.00  0.00    -0.259 OA
HETATM    9  C2  UNK     1      20.270  -7.763  37.101  1.00  0.00     0.123 A 
HETATM   10  C1  UNK     1      20.108  -6.951  38.218  1.00  0.00     0.002 A 
HETATM   11  C5  UNK     1      20.354  -9.150  37.208  1.00  0.00     0.102 A 
HETATM   12  C4  UNK     1      20.028  -5.509  38.035  1.00  0.00     0.037 A 
HETATM   13  C6  UNK     1      20.028  -7.546  39.479  1.00  0.00     0.014 A 
HETATM   14  C13 UNK     1      20.110  -8.937  39.602  1.00  0.00     0.004 A 
HETATM   15  C12 UNK     1      20.273  -9.737  38.469  1.00  0.00     0.040 A 
BRANCH  11  16
HETATM   16  O3  UNK     1      20.513  -9.933  36.107  1.00  0.00    -0.353 OA
HETATM   17  C21 UNK     1      21.699 -10.724  36.037  1.00  0.00     0.210 C 
ENDBRANCH  11  16
ENDBRANCH   3   5
BRANCH   2  18
HETATM   18  C7  UNK     1      19.024  -1.769  35.215  1.00  0.00     0.035 A 
HETATM   19  C14 UNK     1      18.950  -1.464  33.865  1.00  0.00     0.030 A 
HETATM   20  C16 UNK     1      18.668  -0.155  33.478  1.00  0.00     0.020 A 
HETATM   21  C11 UNK     1      18.464   0.831  34.444  1.00  0.00     0.039 A 
HETATM   22  C17 UNK     1      18.542   0.506  35.798  1.00  0.00     0.020 A 
HETATM   23  C15 UNK     1      18.825  -0.803  36.186  1.00  0.00     0.030 A 
BRANCH  21  24
HETATM   24  C18 UNK     1      18.171   2.197  34.039  1.00  0.00     0.293 C 
HETATM   25  O6  UNK     1      18.329   3.191  34.760  1.00  0.00    -0.259 OA
BRANCH  24  26
HETATM   26  O2  UNK     1      17.699   2.251  32.756  1.00  0.00    -0.313 OA
BRANCH  26  27
HETATM   27  C8  UNK     1      18.455   3.029  31.821  1.00  0.00     0.124 C 
HETATM   28  C19 UNK     1      18.389   2.369  30.453  1.00  0.00     0.040 C 
HETATM   29  C20 UNK     1      17.908   4.448  31.793  1.00  0.00     0.040 C 
ENDBRANCH  26  27
ENDBRANCH  24  26
ENDBRANCH  21  24
ENDBRANCH   2  18
TORSDOF 6
ENDMDL
MODEL 7
REMARK VINA RESULT:      -8.5      3.607     10.951
REMARK  6 active torsions:
REMARK  status: ('A' for Active; 'I' for Inactive)
REMARK    1  A    between atoms: C18_25  and  O2_2 
REMARK    2  A    between atoms: C8_15  and  O2_2 
REMARK    3  A    between atoms: C5_12  and  O3_3 
REMARK    4  A    between atoms: C7_14  and  N1_7 
REMARK       I    between atoms: C9_16  and  N1_7 
REMARK    5  A    between atoms: C3_10  and  C9_16 
REMARK    6  A    between atoms: C11_18  and  C18_25 
ROOT
HETATM    1  O4  UNK     1      17.151  -0.629  33.793  1.00  0.00    -0.267 OA
HETATM    2  N1  UNK     1      19.264  -0.399  34.806  1.00  0.00    -0.323 N 
HETATM    3  C9  UNK     1      18.142   0.026  34.107  1.00  0.00     0.262 C 
HETATM    4  H4  UNK     1      19.995   0.279  35.005  1.00  0.00     0.169 HD
ENDROOT
BRANCH   3   5
HETATM    5  C3  UNK     1      18.226   1.443  33.735  1.00  0.00     0.108 A 
HETATM    6  C10 UNK     1      18.143   2.526  34.740  1.00  0.00     0.304 A 
HETATM    7  O1  UNK     1      18.237   3.831  34.264  1.00  0.00    -0.271 OA
HETATM    8  O5  UNK     1      17.999   2.291  35.935  1.00  0.00    -0.259 OA
HETATM    9  C2  UNK     1      18.403   4.111  32.893  1.00  0.00     0.123 A 
HETATM   10  C1  UNK     1      18.478   3.078  31.965  1.00  0.00     0.002 A 
HETATM   11  C5  UNK     1      18.486   5.449  32.512  1.00  0.00     0.102 A 
HETATM   12  C4  UNK     1      18.384   1.704  32.431  1.00  0.00     0.037 A 
HETATM   13  C6  UNK     1      18.641   3.397  30.614  1.00  0.00     0.014 A 
HETATM   14  C13 UNK     1      18.726   4.734  30.216  1.00  0.00     0.004 A 
HETATM   15  C12 UNK     1      18.649   5.758  31.163  1.00  0.00     0.040 A 
BRANCH  11  16
HETATM   16  O3  UNK     1      18.412   6.449  33.431  1.00  0.00    -0.353 OA
HETATM   17  C21 UNK     1      18.097   7.754  32.947  1.00  0.00     0.210 C 
ENDBRANCH  11  16
ENDBRANCH   3   5
BRANCH   2  18
HETATM   18  C7  UNK     1      19.522  -1.692  35.320  1.00  0.00     0.035 A 
HETATM   19  C14 UNK     1      20.091  -2.648  34.494  1.00  0.00     0.030 A 
HETATM   20  C16 UNK     1      20.347  -3.921  35.001  1.00  0.00     0.020 A 
HETATM   21  C11 UNK     1      20.032  -4.221  36.327  1.00  0.00     0.039 A 
HETATM   22  C17 UNK     1      19.460  -3.247  37.145  1.00  0.00     0.020 A 
HETATM   23  C15 UNK     1      19.204  -1.973  36.638  1.00  0.00     0.030 A 
BRANCH  21  24
HETATM   24  C18 UNK     1      20.299  -5.549  36.855  1.00  0.00     0.293 C 
HETATM   25  O6  UNK     1      21.429  -5.995  37.093  1.00  0.00    -0.259 OA
BRANCH  24  26
HETATM   26  O2  UNK     1      19.142  -6.250  37.062  1.00  0.00    -0.313 OA
BRANCH  26  27
HETATM   27  C8  UNK     1      18.968  -7.451  36.301  1.00  0.00     0.124 C 
HETATM   28  C19 UNK     1      18.939  -8.642  37.246  1.00  0.00     0.040 C 
HETATM   29  C20 UNK     1      17.690  -7.345  35.483  1.00  0.00     0.040 C 
ENDBRANCH  26  27
ENDBRANCH  24  26
ENDBRANCH  21  24
ENDBRANCH   2  18
TORSDOF 6
ENDMDL
MODEL 8
REMARK VINA RESULT:      -8.4      1.763     10.203
REMARK  6 active torsions:
REMARK  status: ('A' for Active; 'I' for Inactive)
REMARK    1  A    between atoms: C18_25  and  O2_2 
REMARK    2  A    between atoms: C8_15  and  O2_2 
REMARK    3  A    between atoms: C5_12  and  O3_3 
REMARK    4  A    between atoms: C7_14  and  N1_7 
REMARK       I    between atoms: C9_16  and  N1_7 
REMARK    5  A    between atoms: C3_10  and  C9_16 
REMARK    6  A    between atoms: C11_18  and  C18_25 
ROOT
HETATM    1  O4  UNK     1      19.377   6.443  34.233  1.00  0.00    -0.267 OA
HETATM    2  N1  UNK     1      17.763   6.071  32.560  1.00  0.00    -0.323 N 
HETATM    3  C9  UNK     1      18.383   6.768  33.587  1.00  0.00     0.262 C 
HETATM    4  H4  UNK     1      16.954   6.491  32.110  1.00  0.00     0.169 HD
ENDROOT
BRANCH   3   5
HETATM    5  C3  UNK     1      17.711   8.040  33.877  1.00  0.00     0.108 A 
HETATM    6  C10 UNK     1      16.282   8.106  34.256  1.00  0.00     0.304 A 
HETATM    7  O1  UNK     1      15.758   9.370  34.507  1.00  0.00    -0.271 OA
HETATM    8  O5  UNK     1      15.589   7.097  34.344  1.00  0.00    -0.259 OA
HETATM    9  C2  UNK     1      16.546  10.534  34.408  1.00  0.00     0.123 A 
HETATM   10  C1  UNK     1      17.887  10.450  34.050  1.00  0.00     0.002 A 
HETATM   11  C5  UNK     1      15.933  11.756  34.678  1.00  0.00     0.102 A 
HETATM   12  C4  UNK     1      18.464   9.142  33.781  1.00  0.00     0.037 A 
HETATM   13  C6  UNK     1      18.636  11.627  33.960  1.00  0.00     0.014 A 
HETATM   14  C13 UNK     1      18.034  12.860  34.228  1.00  0.00     0.004 A 
HETATM   15  C12 UNK     1      16.686  12.925  34.587  1.00  0.00     0.040 A 
BRANCH  11  16
HETATM   16  O3  UNK     1      14.620  11.822  35.028  1.00  0.00    -0.353 OA
HETATM   17  C21 UNK     1      14.325  12.034  36.409  1.00  0.00     0.210 C 
ENDBRANCH  11  16
ENDBRANCH   3   5
BRANCH   2  18
HETATM   18  C7  UNK     1      18.137   4.817  32.018  1.00  0.00     0.035 A 
HETATM   19  C14 UNK     1      18.010   3.678  32.796  1.00  0.00     0.030 A 
HETATM   20  C16 UNK     1      18.376   2.444  32.262  1.00  0.00     0.020 A 
HETATM   21  C11 UNK     1      18.864   2.365  30.957  1.00  0.00     0.039 A 
HETATM   22  C17 UNK     1      18.986   3.522  30.187  1.00  0.00     0.020 A 
HETATM   23  C15 UNK     1      18.620   4.757  30.722  1.00  0.00     0.030 A 
BRANCH  21  24
HETATM   24  C18 UNK     1      19.247   1.077  30.400  1.00  0.00     0.293 C 
HETATM   25  O6  UNK     1      19.047   0.733  29.228  1.00  0.00    -0.259 OA
BRANCH  24  26
HETATM   26  O2  UNK     1      19.861   0.288  31.334  1.00  0.00    -0.313 OA
BRANCH  26  27
HETATM   27  C8  UNK     1      19.356  -1.042  31.490  1.00  0.00     0.124 C 
HETATM   28  C19 UNK     1      20.442  -2.038  31.115  1.00  0.00     0.040 C 
HETATM   29  C20 UNK     1      18.882  -1.234  32.923  1.00  0.00     0.040 C 
ENDBRANCH  26  27
ENDBRANCH  24  26
ENDBRANCH  21  24
ENDBRANCH   2  18
TORSDOF 6
ENDMDL
MODEL 9
REMARK VINA RESULT:      -8.4     12.955     16.765
REMARK  6 active torsions:
REMARK  status: ('A' for Active; 'I' for Inactive)
REMARK    1  A    between atoms: C18_25  and  O2_2 
REMARK    2  A    between atoms: C8_15  and  O2_2 
REMARK    3  A    between atoms: C5_12  and  O3_3 
REMARK    4  A    between atoms: C7_14  and  N1_7 
REMARK       I    between atoms: C9_16  and  N1_7 
REMARK    5  A    between atoms: C3_10  and  C9_16 
REMARK    6  A    between atoms: C11_18  and  C18_25 
ROOT
HETATM    1  O4  UNK     1      26.102  -9.388  39.773  1.00  0.00    -0.267 OA
HETATM    2  N1  UNK     1      25.207  -7.678  38.424  1.00  0.00    -0.323 N 
HETATM    3  C9  UNK     1      26.211  -8.380  39.077  1.00  0.00     0.262 C 
HETATM    4  H4  UNK     1      25.467  -6.869  37.866  1.00  0.00     0.169 HD
ENDROOT
BRANCH   3   5
HETATM    5  C3  UNK     1      27.534  -7.786  38.858  1.00  0.00     0.108 A 
HETATM    6  C10 UNK     1      27.761  -6.325  38.930  1.00  0.00     0.304 A 
HETATM    7  O1  UNK     1      29.062  -5.881  38.705  1.00  0.00    -0.271 OA
HETATM    8  O5  UNK     1      26.851  -5.539  39.176  1.00  0.00    -0.259 OA
HETATM    9  C2  UNK     1      30.112  -6.775  38.422  1.00  0.00     0.123 A 
HETATM   10  C1  UNK     1      29.878  -8.145  38.358  1.00  0.00     0.002 A 
HETATM   11  C5  UNK     1      31.381  -6.237  38.211  1.00  0.00     0.102 A 
HETATM   12  C4  UNK     1      28.529  -8.639  38.590  1.00  0.00     0.037 A 
HETATM   13  C6  UNK     1      30.946  -8.999  38.074  1.00  0.00     0.014 A 
HETATM   14  C13 UNK     1      32.224  -8.474  37.860  1.00  0.00     0.004 A 
HETATM   15  C12 UNK     1      32.441  -7.096  37.928  1.00  0.00     0.040 A 
BRANCH  11  16
HETATM   16  O3  UNK     1      31.596  -4.896  38.277  1.00  0.00    -0.353 OA
HETATM   17  C21 UNK     1      31.940  -4.232  37.061  1.00  0.00     0.210 C 
ENDBRANCH  11  16
ENDBRANCH   3   5
BRANCH   2  18
HETATM   18  C7  UNK     1      23.820  -7.964  38.412  1.00  0.00     0.035 A 
HETATM   19  C14 UNK     1      23.291  -8.709  37.371  1.00  0.00     0.030 A 
HETATM   20  C16 UNK     1      21.927  -8.992  37.360  1.00  0.00     0.020 A 
HETATM   21  C11 UNK     1      21.109  -8.527  38.391  1.00  0.00     0.039 A 
HETATM   22  C17 UNK     1      21.658  -7.778  39.432  1.00  0.00     0.020 A 
HETATM   23  C15 UNK     1      23.024  -7.494  39.442  1.00  0.00     0.030 A 
BRANCH  21  24
HETATM   24  C18 UNK     1      19.685  -8.821  38.379  1.00  0.00     0.293 C 
HETATM   25  O6  UNK     1      19.195  -9.923  38.661  1.00  0.00    -0.259 OA
BRANCH  24  26
HETATM   26  O2  UNK     1      18.948  -7.726  38.019  1.00  0.00    -0.313 OA
BRANCH  26  27
HETATM   27  C8  UNK     1      19.158  -7.210  36.701  1.00  0.00     0.124 C 
HETATM   28  C19 UNK     1      17.988  -7.609  35.815  1.00  0.00     0.040 C 
HETATM   29  C20 UNK     1      19.324  -5.700  36.774  1.00  0.00     0.040 C 
ENDBRANCH  26  27
ENDBRANCH  24  26
ENDBRANCH  21  24
ENDBRANCH   2  18
TORSDOF 6
ENDMDL
MODEL 10
REMARK VINA RESULT:      -8.3      4.965      8.435
REMARK  6 active torsions:
REMARK  status: ('A' for Active; 'I' for Inactive)
REMARK    1  A    between atoms: C18_25  and  O2_2 
REMARK    2  A    between atoms: C8_15  and  O2_2 
REMARK    3  A    between atoms: C5_12  and  O3_3 
REMARK    4  A    between atoms: C7_14  and  N1_7 
REMARK       I    between atoms: C9_16  and  N1_7 
REMARK    5  A    between atoms: C3_10  and  C9_16 
REMARK    6  A    between atoms: C11_18  and  C18_25 
ROOT
HETATM    1  O4  UNK     1      20.689  -3.216  34.151  1.00  0.00    -0.267 OA
HETATM    2  N1  UNK     1      19.109  -2.224  35.588  1.00  0.00    -0.323 N 
HETATM    3  C9  UNK     1      19.980  -3.214  35.156  1.00  0.00     0.262 C 
HETATM    4  H4  UNK     1      18.605  -2.368  36.459  1.00  0.00     0.169 HD
ENDROOT
BRANCH   3   5
HETATM    5  C3  UNK     1      20.002  -4.366  36.064  1.00  0.00     0.108 A 
HETATM    6  C10 UNK     1      20.606  -4.292  37.414  1.00  0.00     0.304 A 
HETATM    7  O1  UNK     1      20.565  -5.451  38.183  1.00  0.00    -0.271 OA
HETATM    8  O5  UNK     1      21.120  -3.261  37.837  1.00  0.00    -0.259 OA
HETATM    9  C2  UNK     1      19.978  -6.639  37.705  1.00  0.00     0.123 A 
HETATM   10  C1  UNK     1      19.416  -6.688  36.434  1.00  0.00     0.002 A 
HETATM   11  C5  UNK     1      19.984  -7.748  38.548  1.00  0.00     0.102 A 
HETATM   12  C4  UNK     1      19.443  -5.492  35.606  1.00  0.00     0.037 A 
HETATM   13  C6  UNK     1      18.844  -7.885  35.995  1.00  0.00     0.014 A 
HETATM   14  C13 UNK     1      18.843  -9.007  36.829  1.00  0.00     0.004 A 
HETATM   15  C12 UNK     1      19.412  -8.939  38.103  1.00  0.00     0.040 A 
BRANCH  11  16
HETATM   16  O3  UNK     1      20.537  -7.686  39.789  1.00  0.00    -0.353 OA
HETATM   17  C21 UNK     1      21.824  -8.279  39.958  1.00  0.00     0.210 C 
ENDBRANCH  11  16
ENDBRANCH   3   5
BRANCH   2  18
HETATM   18  C7  UNK     1      18.836  -0.981  34.965  1.00  0.00     0.035 A 
HETATM   19  C14 UNK     1      18.697  -0.930  33.588  1.00  0.00     0.030 A 
HETATM   20  C16 UNK     1      18.427   0.293  32.975  1.00  0.00     0.020 A 
HETATM   21  C11 UNK     1      18.299   1.447  33.748  1.00  0.00     0.039 A 
HETATM   22  C17 UNK     1      18.441   1.378  35.134  1.00  0.00     0.020 A 
HETATM   23  C15 UNK     1      18.712   0.154  35.746  1.00  0.00     0.030 A 
BRANCH  21  24
HETATM   24  C18 UNK     1      18.019   2.723  33.109  1.00  0.00     0.293 C 
HETATM   25  O6  UNK     1      17.583   2.848  31.956  1.00  0.00    -0.259 OA
BRANCH  24  26
HETATM   26  O2  UNK     1      18.293   3.774  33.941  1.00  0.00    -0.313 OA
BRANCH  26  27
HETATM   27  C8  UNK     1      18.606   5.026  33.320  1.00  0.00     0.124 C 
HETATM   28  C19 UNK     1      17.330   5.834  33.152  1.00  0.00     0.040 C 
HETATM   29  C20 UNK     1      19.635   5.761  34.166  1.00  0.00     0.040 C 
ENDBRANCH  26  27
ENDBRANCH  24  26
ENDBRANCH  21  24
ENDBRANCH   2  18
TORSDOF 6
ENDMDL
