MODEL 1
REMARK VINA RESULT:     -10.3      0.000      0.000
REMARK  4 active torsions:
REMARK  status: ('A' for Active; 'I' for Inactive)
REMARK    1  A    between atoms: C1_10  and  N1_8 
REMARK       I    between atoms: C9_18  and  N1_8 
REMARK    2  A    between atoms: C18_27  and  N2_9 
REMARK    3  A    between atoms: C1_10  and  C2_11 
REMARK    4  A    between atoms: C10_19  and  C9_18 
ROOT
HETATM    1  O4  UNK     1      19.399   4.910  29.582  1.00  0.00    -0.267 OA
HETATM    2  N1  UNK     1      18.578   2.926  30.491  1.00  0.00    -0.348 N 
HETATM    3  C9  UNK     1      18.839   4.285  30.481  1.00  0.00     0.258 C 
HETATM    4  H2  UNK     1      18.052   2.527  31.263  1.00  0.00     0.163 HD
ENDROOT
BRANCH   3   5
HETATM    5  C10 UNK     1      18.365   4.967  31.692  1.00  0.00     0.108 A 
HETATM    6  C12 UNK     1      18.312   6.303  31.636  1.00  0.00     0.037 A 
HETATM    7  C11 UNK     1      17.855   7.067  32.787  1.00  0.00     0.001 A 
HETATM    8  C13 UNK     1      17.480   6.386  33.940  1.00  0.00     0.089 A 
HETATM    9  C16 UNK     1      17.783   8.462  32.773  1.00  0.00     0.050 A 
HETATM   10  O3  UNK     1      17.539   4.981  33.993  1.00  0.00    -0.274 OA
HETATM   11  C17 UNK     1      17.034   7.058  35.077  1.00  0.00     0.041 A 
HETATM   12  C15 UNK     1      17.969   4.222  32.908  1.00  0.00     0.304 A 
HETATM   13  O5  UNK     1      18.018   2.998  32.963  1.00  0.00    -0.259 OA
HETATM   14  C19 UNK     1      16.965   8.450  35.055  1.00  0.00     0.039 A 
HETATM   15  C18 UNK     1      17.338   9.150  33.906  1.00  0.00     0.103 A 
BRANCH  15  16
HETATM   16  N2  UNK     1      17.266  10.569  33.887  1.00  0.00    -0.116 N 
HETATM   17  O6  UNK     1      16.194  11.127  34.225  1.00  0.00    -0.532 OA
HETATM   18  O7  UNK     1      18.276  11.224  33.537  1.00  0.00    -0.532 OA
ENDBRANCH  15  16
ENDBRANCH   3   5
BRANCH   2  19
HETATM   19  C1  UNK     1      18.947   2.045  29.407  1.00  0.00     0.114 C 
HETATM   20  C4  UNK     1      17.756   1.855  28.466  1.00  0.00     0.037 C 
BRANCH  19  21
HETATM   21  C2  UNK     1      19.472   0.721  29.924  1.00  0.00    -0.033 A 
HETATM   22  C3  UNK     1      19.350   0.432  31.273  1.00  0.00     0.049 A 
HETATM   23  C5  UNK     1      19.842  -0.786  31.697  1.00  0.00     0.105 A 
HETATM   24  O1  UNK     1      19.821  -1.255  32.974  1.00  0.00    -0.323 OA
HETATM   25  C7  UNK     1      20.425  -1.674  30.823  1.00  0.00     0.105 A 
HETATM   26  C14 UNK     1      20.456  -2.539  32.806  1.00  0.00     0.352 A 
HETATM   27  O2  UNK     1      20.842  -2.811  31.443  1.00  0.00    -0.323 OA
HETATM   28  C8  UNK     1      20.549  -1.394  29.477  1.00  0.00     0.040 A 
HETATM   29  C6  UNK     1      20.059  -0.167  29.023  1.00  0.00     0.012 A 
ENDBRANCH  19  21
ENDBRANCH   2  19
TORSDOF 4
ENDMDL
MODEL 2
REMARK VINA RESULT:     -10.2      5.289      8.976
REMARK  4 active torsions:
REMARK  status: ('A' for Active; 'I' for Inactive)
REMARK    1  A    between atoms: C1_10  and  N1_8 
REMARK       I    between atoms: C9_18  and  N1_8 
REMARK    2  A    between atoms: C18_27  and  N2_9 
REMARK    3  A    between atoms: C1_10  and  C2_11 
REMARK    4  A    between atoms: C10_19  and  C9_18 
ROOT
HETATM    1  O4  UNK     1      20.135  -1.391  35.536  1.00  0.00    -0.267 OA
HETATM    2  N1  UNK     1      19.851  -3.643  35.003  1.00  0.00    -0.348 N 
HETATM    3  C9  UNK     1      20.039  -2.302  34.716  1.00  0.00     0.258 C 
HETATM    4  H2  UNK     1      19.848  -4.318  34.245  1.00  0.00     0.163 HD
ENDROOT
BRANCH   3   5
HETATM    5  C10 UNK     1      20.124  -2.033  33.276  1.00  0.00     0.108 A 
HETATM    6  C12 UNK     1      19.568  -0.892  32.853  1.00  0.00     0.037 A 
HETATM    7  C11 UNK     1      19.602  -0.538  31.442  1.00  0.00     0.001 A 
HETATM    8  C13 UNK     1      20.219  -1.405  30.546  1.00  0.00     0.089 A 
HETATM    9  C16 UNK     1      19.035   0.643  30.957  1.00  0.00     0.050 A 
HETATM   10  O3  UNK     1      20.802  -2.604  30.997  1.00  0.00    -0.274 OA
HETATM   11  C17 UNK     1      20.286  -1.125  29.183  1.00  0.00     0.041 A 
HETATM   12  C15 UNK     1      20.788  -2.970  32.340  1.00  0.00     0.304 A 
HETATM   13  O5  UNK     1      21.297  -4.017  32.723  1.00  0.00    -0.259 OA
HETATM   14  C19 UNK     1      19.716   0.055  28.707  1.00  0.00     0.039 A 
HETATM   15  C18 UNK     1      19.093   0.937  29.592  1.00  0.00     0.103 A 
BRANCH  15  16
HETATM   16  N2  UNK     1      18.515   2.138  29.103  1.00  0.00    -0.116 N 
HETATM   17  O6  UNK     1      18.649   3.192  29.771  1.00  0.00    -0.532 OA
HETATM   18  O7  UNK     1      17.889   2.114  28.016  1.00  0.00    -0.532 OA
ENDBRANCH  15  16
ENDBRANCH   3   5
BRANCH   2  19
HETATM   19  C1  UNK     1      19.740  -4.152  36.351  1.00  0.00     0.114 C 
HETATM   20  C4  UNK     1      20.871  -3.586  37.213  1.00  0.00     0.037 C 
BRANCH  19  21
HETATM   21  C2  UNK     1      19.724  -5.667  36.372  1.00  0.00    -0.033 A 
HETATM   22  C3  UNK     1      19.318  -6.318  37.525  1.00  0.00     0.049 A 
HETATM   23  C5  UNK     1      19.320  -7.698  37.495  1.00  0.00     0.105 A 
HETATM   24  O1  UNK     1      18.960  -8.518  38.520  1.00  0.00    -0.323 OA
HETATM   25  C7  UNK     1      19.705  -8.397  36.375  1.00  0.00     0.105 A 
HETATM   26  C14 UNK     1      19.161  -9.814  37.917  1.00  0.00     0.352 A 
HETATM   27  O2  UNK     1      19.635  -9.743  36.557  1.00  0.00    -0.323 OA
HETATM   28  C8  UNK     1      20.111  -7.756  35.222  1.00  0.00     0.040 A 
HETATM   29  C6  UNK     1      20.118  -6.359  35.226  1.00  0.00     0.012 A 
ENDBRANCH  19  21
ENDBRANCH   2  19
TORSDOF 4
ENDMDL
MODEL 3
REMARK VINA RESULT:      -9.8      2.455      8.738
REMARK  4 active torsions:
REMARK  status: ('A' for Active; 'I' for Inactive)
REMARK    1  A    between atoms: C1_10  and  N1_8 
REMARK       I    between atoms: C9_18  and  N1_8 
REMARK    2  A    between atoms: C18_27  and  N2_9 
REMARK    3  A    between atoms: C1_10  and  C2_11 
REMARK    4  A    between atoms: C10_19  and  C9_18 
ROOT
HETATM    1  O4  UNK     1      17.051   2.782  30.535  1.00  0.00    -0.267 OA
HETATM    2  N1  UNK     1      19.203   3.681  30.536  1.00  0.00    -0.348 N 
HETATM    3  C9  UNK     1      18.272   2.659  30.606  1.00  0.00     0.258 C 
HETATM    4  H2  UNK     1      20.192   3.454  30.544  1.00  0.00     0.163 HD
ENDROOT
BRANCH   3   5
HETATM    5  C10 UNK     1      18.888   1.338  30.778  1.00  0.00     0.108 A 
HETATM    6  C12 UNK     1      18.906   0.850  32.024  1.00  0.00     0.037 A 
HETATM    7  C11 UNK     1      19.495  -0.452  32.294  1.00  0.00     0.001 A 
HETATM    8  C13 UNK     1      20.039  -1.177  31.238  1.00  0.00     0.089 A 
HETATM    9  C16 UNK     1      19.533  -1.000  33.579  1.00  0.00     0.050 A 
HETATM   10  O3  UNK     1      20.019  -0.658  29.929  1.00  0.00    -0.274 OA
HETATM   11  C17 UNK     1      20.618  -2.429  31.429  1.00  0.00     0.041 A 
HETATM   12  C15 UNK     1      19.460   0.584  29.639  1.00  0.00     0.304 A 
HETATM   13  O5  UNK     1      19.448   1.027  28.496  1.00  0.00    -0.259 OA
HETATM   14  C19 UNK     1      20.653  -2.968  32.714  1.00  0.00     0.039 A 
HETATM   15  C18 UNK     1      20.112  -2.256  33.786  1.00  0.00     0.103 A 
BRANCH  15  16
HETATM   16  N2  UNK     1      20.149  -2.809  35.094  1.00  0.00    -0.116 N 
HETATM   17  O6  UNK     1      20.088  -2.037  36.081  1.00  0.00    -0.532 OA
HETATM   18  O7  UNK     1      20.241  -4.053  35.225  1.00  0.00    -0.532 OA
ENDBRANCH  15  16
ENDBRANCH   3   5
BRANCH   2  19
HETATM   19  C1  UNK     1      18.836   5.069  30.364  1.00  0.00     0.114 C 
HETATM   20  C4  UNK     1      19.865   5.770  29.476  1.00  0.00     0.037 C 
BRANCH  19  21
HETATM   21  C2  UNK     1      18.677   5.768  31.699  1.00  0.00    -0.033 A 
HETATM   22  C3  UNK     1      17.402   6.001  32.187  1.00  0.00     0.049 A 
HETATM   23  C5  UNK     1      17.308   6.640  33.407  1.00  0.00     0.105 A 
HETATM   24  O1  UNK     1      16.154   6.961  34.053  1.00  0.00    -0.323 OA
HETATM   25  C7  UNK     1      18.426   7.029  34.107  1.00  0.00     0.105 A 
HETATM   26  C14 UNK     1      16.672   7.595  35.241  1.00  0.00     0.352 A 
HETATM   27  O2  UNK     1      18.113   7.643  35.281  1.00  0.00    -0.323 OA
HETATM   28  C8  UNK     1      19.700   6.802  33.628  1.00  0.00     0.040 A 
HETATM   29  C6  UNK     1      19.822   6.155  32.396  1.00  0.00     0.012 A 
ENDBRANCH  19  21
ENDBRANCH   2  19
TORSDOF 4
ENDMDL
MODEL 4
REMARK VINA RESULT:      -9.8      2.930      8.260
REMARK  4 active torsions:
REMARK  status: ('A' for Active; 'I' for Inactive)
REMARK    1  A    between atoms: C1_10  and  N1_8 
REMARK       I    between atoms: C9_18  and  N1_8 
REMARK    2  A    between atoms: C18_27  and  N2_9 
REMARK    3  A    between atoms: C1_10  and  C2_11 
REMARK    4  A    between atoms: C10_19  and  C9_18 
ROOT
HETATM    1  O4  UNK     1      18.267   2.994  29.558  1.00  0.00    -0.267 OA
HETATM    2  N1  UNK     1      18.792   4.313  31.408  1.00  0.00    -0.348 N 
HETATM    3  C9  UNK     1      18.551   3.121  30.748  1.00  0.00     0.258 C 
HETATM    4  H2  UNK     1      19.079   4.293  32.381  1.00  0.00     0.163 HD
ENDROOT
BRANCH   3   5
HETATM    5  C10 UNK     1      18.669   1.949  31.624  1.00  0.00     0.108 A 
HETATM    6  C12 UNK     1      18.283   2.119  32.894  1.00  0.00     0.037 A 
HETATM    7  C11 UNK     1      18.362   1.015  33.838  1.00  0.00     0.001 A 
HETATM    8  C13 UNK     1      18.847  -0.213  33.398  1.00  0.00     0.089 A 
HETATM    9  C16 UNK     1      17.969   1.146  35.172  1.00  0.00     0.050 A 
HETATM   10  O3  UNK     1      19.252  -0.385  32.061  1.00  0.00    -0.274 OA
HETATM   11  C17 UNK     1      18.949  -1.310  34.252  1.00  0.00     0.041 A 
HETATM   12  C15 UNK     1      19.186   0.652  31.134  1.00  0.00     0.304 A 
HETATM   13  O5  UNK     1      19.543   0.493  29.972  1.00  0.00    -0.259 OA
HETATM   14  C19 UNK     1      18.555  -1.170  35.581  1.00  0.00     0.039 A 
HETATM   15  C18 UNK     1      18.066   0.055  36.040  1.00  0.00     0.103 A 
BRANCH  15  16
HETATM   16  N2  UNK     1      17.665   0.193  37.396  1.00  0.00    -0.116 N 
HETATM   17  O6  UNK     1      17.948  -0.721  38.209  1.00  0.00    -0.532 OA
HETATM   18  O7  UNK     1      17.043   1.225  37.744  1.00  0.00    -0.532 OA
ENDBRANCH  15  16
ENDBRANCH   3   5
BRANCH   2  19
HETATM   19  C1  UNK     1      18.737   5.601  30.753  1.00  0.00     0.114 C 
HETATM   20  C4  UNK     1      20.080   5.897  30.081  1.00  0.00     0.037 C 
BRANCH  19  21
HETATM   21  C2  UNK     1      18.340   6.697  31.721  1.00  0.00    -0.033 A 
HETATM   22  C3  UNK     1      17.158   7.386  31.504  1.00  0.00     0.049 A 
HETATM   23  C5  UNK     1      16.838   8.375  32.412  1.00  0.00     0.105 A 
HETATM   24  O1  UNK     1      15.729   9.164  32.376  1.00  0.00    -0.323 OA
HETATM   25  C7  UNK     1      17.651   8.666  33.483  1.00  0.00     0.105 A 
HETATM   26  C14 UNK     1      15.936   9.982  33.545  1.00  0.00     0.352 A 
HETATM   27  O2  UNK     1      17.154   9.672  34.251  1.00  0.00    -0.323 OA
HETATM   28  C8  UNK     1      18.831   7.984  33.705  1.00  0.00     0.040 A 
HETATM   29  C6  UNK     1      19.177   6.978  32.800  1.00  0.00     0.012 A 
ENDBRANCH  19  21
ENDBRANCH   2  19
TORSDOF 4
ENDMDL
MODEL 5
REMARK VINA RESULT:      -9.6     15.495     18.618
REMARK  4 active torsions:
REMARK  status: ('A' for Active; 'I' for Inactive)
REMARK    1  A    between atoms: C1_10  and  N1_8 
REMARK       I    between atoms: C9_18  and  N1_8 
REMARK    2  A    between atoms: C18_27  and  N2_9 
REMARK    3  A    between atoms: C1_10  and  C2_11 
REMARK    4  A    between atoms: C10_19  and  C9_18 
ROOT
HETATM    1  O4  UNK     1      17.561  -3.417  15.311  1.00  0.00    -0.267 OA
HETATM    2  N1  UNK     1      19.773  -3.424  14.574  1.00  0.00    -0.348 N 
HETATM    3  C9  UNK     1      18.641  -2.858  15.134  1.00  0.00     0.258 C 
HETATM    4  H2  UNK     1      20.631  -2.883  14.534  1.00  0.00     0.163 HD
ENDROOT
BRANCH   3   5
HETATM    5  C10 UNK     1      18.838  -1.457  15.529  1.00  0.00     0.108 A 
HETATM    6  C12 UNK     1      18.730  -1.189  16.835  1.00  0.00     0.037 A 
HETATM    7  C11 UNK     1      18.909   0.170  17.322  1.00  0.00     0.001 A 
HETATM    8  C13 UNK     1      19.192   1.180  16.409  1.00  0.00     0.089 A 
HETATM    9  C16 UNK     1      18.806   0.495  18.677  1.00  0.00     0.050 A 
HETATM   10  O3  UNK     1      19.304   0.892  15.035  1.00  0.00    -0.274 OA
HETATM   11  C17 UNK     1      19.374   2.502  16.810  1.00  0.00     0.041 A 
HETATM   12  C15 UNK     1      19.140  -0.398  14.538  1.00  0.00     0.304 A 
HETATM   13  O5  UNK     1      19.238  -0.639  13.341  1.00  0.00    -0.259 OA
HETATM   14  C19 UNK     1      19.268   2.818  18.163  1.00  0.00     0.039 A 
HETATM   15  C18 UNK     1      18.986   1.817  19.095  1.00  0.00     0.103 A 
BRANCH  15  16
HETATM   16  N2  UNK     1      18.879   2.143  20.473  1.00  0.00    -0.116 N 
HETATM   17  O6  UNK     1      19.914   2.479  21.099  1.00  0.00    -0.532 OA
HETATM   18  O7  UNK     1      17.755   2.087  21.025  1.00  0.00    -0.532 OA
ENDBRANCH  15  16
ENDBRANCH   3   5
BRANCH   2  19
HETATM   19  C1  UNK     1      19.822  -4.792  14.112  1.00  0.00     0.114 C 
HETATM   20  C4  UNK     1      20.844  -5.580  14.935  1.00  0.00     0.037 C 
BRANCH  19  21
HETATM   21  C2  UNK     1      20.120  -4.865  12.628  1.00  0.00    -0.033 A 
HETATM   22  C3  UNK     1      19.965  -3.726  11.856  1.00  0.00     0.049 A 
HETATM   23  C5  UNK     1      20.249  -3.841  10.510  1.00  0.00     0.105 A 
HETATM   24  O1  UNK     1      20.158  -2.845   9.587  1.00  0.00    -0.323 OA
HETATM   25  C7  UNK     1      20.666  -5.030   9.958  1.00  0.00     0.105 A 
HETATM   26  C14 UNK     1      20.566  -3.541   8.391  1.00  0.00     0.352 A 
HETATM   27  O2  UNK     1      20.889  -4.928   8.620  1.00  0.00    -0.323 OA
HETATM   28  C8  UNK     1      20.823  -6.170  10.721  1.00  0.00     0.040 A 
HETATM   29  C6  UNK     1      20.543  -6.079  12.086  1.00  0.00     0.012 A 
ENDBRANCH  19  21
ENDBRANCH   2  19
TORSDOF 4
ENDMDL
MODEL 6
REMARK VINA RESULT:      -9.5     22.048     24.475
REMARK  4 active torsions:
REMARK  status: ('A' for Active; 'I' for Inactive)
REMARK    1  A    between atoms: C1_10  and  N1_8 
REMARK       I    between atoms: C9_18  and  N1_8 
REMARK    2  A    between atoms: C18_27  and  N2_9 
REMARK    3  A    between atoms: C1_10  and  C2_11 
REMARK    4  A    between atoms: C10_19  and  C9_18 
ROOT
HETATM    1  O4  UNK     1       7.128   7.173   8.768  1.00  0.00    -0.267 OA
HETATM    2  N1  UNK     1       8.919   5.706   8.497  1.00  0.00    -0.348 N 
HETATM    3  C9  UNK     1       7.694   6.106   8.999  1.00  0.00     0.258 C 
HETATM    4  H2  UNK     1       9.262   4.773   8.707  1.00  0.00     0.163 HD
ENDROOT
BRANCH   3   5
HETATM    5  C10 UNK     1       7.081   5.102   9.877  1.00  0.00     0.108 A 
HETATM    6  C12 UNK     1       6.798   5.498  11.123  1.00  0.00     0.037 A 
HETATM    7  C11 UNK     1       6.188   4.574  12.067  1.00  0.00     0.001 A 
HETATM    8  C13 UNK     1       5.909   3.276  11.652  1.00  0.00     0.089 A 
HETATM    9  C16 UNK     1       5.875   4.945  13.377  1.00  0.00     0.050 A 
HETATM   10  O3  UNK     1       6.210   2.864  10.339  1.00  0.00    -0.274 OA
HETATM   11  C17 UNK     1       5.327   2.341  12.506  1.00  0.00     0.041 A 
HETATM   12  C15 UNK     1       6.790   3.726   9.413  1.00  0.00     0.304 A 
HETATM   13  O5  UNK     1       7.049   3.358   8.273  1.00  0.00    -0.259 OA
HETATM   14  C19 UNK     1       5.019   2.720  13.811  1.00  0.00     0.039 A 
HETATM   15  C18 UNK     1       5.291   4.019  14.245  1.00  0.00     0.103 A 
BRANCH  15  16
HETATM   16  N2  UNK     1       4.975   4.401  15.576  1.00  0.00    -0.116 N 
HETATM   17  O6  UNK     1       4.120   5.300  15.763  1.00  0.00    -0.532 OA
HETATM   18  O7  UNK     1       5.558   3.828  16.528  1.00  0.00    -0.532 OA
ENDBRANCH  15  16
ENDBRANCH   3   5
BRANCH   2  19
HETATM   19  C1  UNK     1       9.711   6.525   7.608  1.00  0.00     0.114 C 
HETATM   20  C4  UNK     1       9.305   6.257   6.157  1.00  0.00     0.037 C 
BRANCH  19  21
HETATM   21  C2  UNK     1      11.195   6.303   7.825  1.00  0.00    -0.033 A 
HETATM   22  C3  UNK     1      11.630   5.836   9.054  1.00  0.00     0.049 A 
HETATM   23  C5  UNK     1      12.990   5.649   9.203  1.00  0.00     0.105 A 
HETATM   24  O1  UNK     1      13.615   5.202  10.327  1.00  0.00    -0.323 OA
HETATM   25  C7  UNK     1      13.873   5.912   8.183  1.00  0.00     0.105 A 
HETATM   26  C14 UNK     1      14.992   5.213   9.897  1.00  0.00     0.352 A 
HETATM   27  O2  UNK     1      15.162   5.664   8.538  1.00  0.00    -0.323 OA
HETATM   28  C8  UNK     1      13.447   6.378   6.955  1.00  0.00     0.040 A 
HETATM   29  C6  UNK     1      12.075   6.575   6.778  1.00  0.00     0.012 A 
ENDBRANCH  19  21
ENDBRANCH   2  19
TORSDOF 4
ENDMDL
MODEL 7
REMARK VINA RESULT:      -9.4      6.862     13.345
REMARK  4 active torsions:
REMARK  status: ('A' for Active; 'I' for Inactive)
REMARK    1  A    between atoms: C1_10  and  N1_8 
REMARK       I    between atoms: C9_18  and  N1_8 
REMARK    2  A    between atoms: C18_27  and  N2_9 
REMARK    3  A    between atoms: C1_10  and  C2_11 
REMARK    4  A    between atoms: C10_19  and  C9_18 
ROOT
HETATM    1  O4  UNK     1      20.869  -4.097  38.008  1.00  0.00    -0.267 OA
HETATM    2  N1  UNK     1      19.355  -3.912  36.245  1.00  0.00    -0.348 N 
HETATM    3  C9  UNK     1      20.149  -4.598  37.147  1.00  0.00     0.258 C 
HETATM    4  H2  UNK     1      18.752  -4.434  35.617  1.00  0.00     0.163 HD
ENDROOT
BRANCH   3   5
HETATM    5  C10 UNK     1      20.060  -6.055  36.994  1.00  0.00     0.108 A 
HETATM    6  C12 UNK     1      21.210  -6.697  36.759  1.00  0.00     0.037 A 
HETATM    7  C11 UNK     1      21.223  -8.142  36.593  1.00  0.00     0.001 A 
HETATM    8  C13 UNK     1      20.023  -8.840  36.680  1.00  0.00     0.089 A 
HETATM    9  C16 UNK     1      22.401  -8.854  36.348  1.00  0.00     0.050 A 
HETATM   10  O3  UNK     1      18.815  -8.159  36.925  1.00  0.00    -0.274 OA
HETATM   11  C17 UNK     1      19.966 -10.224  36.530  1.00  0.00     0.041 A 
HETATM   12  C15 UNK     1      18.771  -6.778  37.091  1.00  0.00     0.304 A 
HETATM   13  O5  UNK     1      17.715  -6.193  37.304  1.00  0.00    -0.259 OA
HETATM   14  C19 UNK     1      21.145 -10.926  36.285  1.00  0.00     0.039 A 
HETATM   15  C18 UNK     1      22.360 -10.242  36.195  1.00  0.00     0.103 A 
BRANCH  15  16
HETATM   16  N2  UNK     1      23.559 -10.961  35.946  1.00  0.00    -0.116 N 
HETATM   17  O6  UNK     1      24.645 -10.496  36.371  1.00  0.00    -0.532 OA
HETATM   18  O7  UNK     1      23.500 -12.040  35.309  1.00  0.00    -0.532 OA
ENDBRANCH  15  16
ENDBRANCH   3   5
BRANCH   2  19
HETATM   19  C1  UNK     1      19.274  -2.470  36.205  1.00  0.00     0.114 C 
HETATM   20  C4  UNK     1      18.021  -2.001  36.947  1.00  0.00     0.037 C 
BRANCH  19  21
HETATM   21  C2  UNK     1      19.309  -1.953  34.781  1.00  0.00    -0.033 A 
HETATM   22  C3  UNK     1      20.148  -2.566  33.865  1.00  0.00     0.049 A 
HETATM   23  C5  UNK     1      20.145  -2.060  32.581  1.00  0.00     0.105 A 
HETATM   24  O1  UNK     1      20.895  -2.518  31.541  1.00  0.00    -0.323 OA
HETATM   25  C7  UNK     1      19.348  -0.998  32.224  1.00  0.00     0.105 A 
HETATM   26  C14 UNK     1      20.478  -1.624  30.488  1.00  0.00     0.352 A 
HETATM   27  O2  UNK     1      19.499  -0.656  30.915  1.00  0.00    -0.323 OA
HETATM   28  C8  UNK     1      18.510  -0.381  33.131  1.00  0.00     0.040 A 
HETATM   29  C6  UNK     1      18.494  -0.874  34.437  1.00  0.00     0.012 A 
ENDBRANCH  19  21
ENDBRANCH   2  19
TORSDOF 4
ENDMDL
MODEL 8
REMARK VINA RESULT:      -9.4      3.176      8.694
REMARK  4 active torsions:
REMARK  status: ('A' for Active; 'I' for Inactive)
REMARK    1  A    between atoms: C1_10  and  N1_8 
REMARK       I    between atoms: C9_18  and  N1_8 
REMARK    2  A    between atoms: C18_27  and  N2_9 
REMARK    3  A    between atoms: C1_10  and  C2_11 
REMARK    4  A    between atoms: C10_19  and  C9_18 
ROOT
HETATM    1  O4  UNK     1      18.261   5.116  30.848  1.00  0.00    -0.267 OA
HETATM    2  N1  UNK     1      18.733   5.760  33.039  1.00  0.00    -0.348 N 
HETATM    3  C9  UNK     1      18.446   4.852  32.034  1.00  0.00     0.258 C 
HETATM    4  H2  UNK     1      18.928   5.419  33.975  1.00  0.00     0.163 HD
ENDROOT
BRANCH   3   5
HETATM    5  C10 UNK     1      18.379   3.467  32.518  1.00  0.00     0.108 A 
HETATM    6  C12 UNK     1      18.299   3.307  33.844  1.00  0.00     0.037 A 
HETATM    7  C11 UNK     1      18.228   1.972  34.418  1.00  0.00     0.001 A 
HETATM    8  C13 UNK     1      18.247   0.872  33.567  1.00  0.00     0.089 A 
HETATM    9  C16 UNK     1      18.143   1.758  35.796  1.00  0.00     0.050 A 
HETATM   10  O3  UNK     1      18.332   1.047  32.173  1.00  0.00    -0.274 OA
HETATM   11  C17 UNK     1      18.182  -0.433  34.053  1.00  0.00     0.041 A 
HETATM   12  C15 UNK     1      18.399   2.311  31.593  1.00  0.00     0.304 A 
HETATM   13  O5  UNK     1      18.473   2.454  30.378  1.00  0.00    -0.259 OA
HETATM   14  C19 UNK     1      18.098  -0.637  35.429  1.00  0.00     0.039 A 
HETATM   15  C18 UNK     1      18.077   0.455  36.298  1.00  0.00     0.103 A 
BRANCH  15  16
HETATM   16  N2  UNK     1      17.991   0.242  37.700  1.00  0.00    -0.116 N 
HETATM   17  O6  UNK     1      17.846   1.232  38.457  1.00  0.00    -0.532 OA
HETATM   18  O7  UNK     1      18.061  -0.930  38.142  1.00  0.00    -0.532 OA
ENDBRANCH  15  16
ENDBRANCH   3   5
BRANCH   2  19
HETATM   19  C1  UNK     1      18.853   7.181  32.805  1.00  0.00     0.114 C 
HETATM   20  C4  UNK     1      19.936   7.765  33.714  1.00  0.00     0.037 C 
BRANCH  19  21
HETATM   21  C2  UNK     1      17.525   7.887  32.988  1.00  0.00    -0.033 A 
HETATM   22  C3  UNK     1      17.256   8.508  34.197  1.00  0.00     0.049 A 
HETATM   23  C5  UNK     1      16.034   9.137  34.316  1.00  0.00     0.105 A 
HETATM   24  O1  UNK     1      15.581   9.799  35.416  1.00  0.00    -0.323 OA
HETATM   25  C7  UNK     1      15.123   9.150  33.286  1.00  0.00     0.105 A 
HETATM   26  C14 UNK     1      14.282  10.231  34.961  1.00  0.00     0.352 A 
HETATM   27  O2  UNK     1      13.985   9.821  33.611  1.00  0.00    -0.323 OA
HETATM   28  C8  UNK     1      15.383   8.533  32.079  1.00  0.00     0.040 A 
HETATM   29  C6  UNK     1      16.613   7.889  31.932  1.00  0.00     0.012 A 
ENDBRANCH  19  21
ENDBRANCH   2  19
TORSDOF 4
ENDMDL
MODEL 9
REMARK VINA RESULT:      -9.3      2.347      9.147
REMARK  4 active torsions:
REMARK  status: ('A' for Active; 'I' for Inactive)
REMARK    1  A    between atoms: C1_10  and  N1_8 
REMARK       I    between atoms: C9_18  and  N1_8 
REMARK    2  A    between atoms: C18_27  and  N2_9 
REMARK    3  A    between atoms: C1_10  and  C2_11 
REMARK    4  A    between atoms: C10_19  and  C9_18 
ROOT
HETATM    1  O4  UNK     1      17.932   3.976  32.689  1.00  0.00    -0.267 OA
HETATM    2  N1  UNK     1      19.301   5.194  31.247  1.00  0.00    -0.348 N 
HETATM    3  C9  UNK     1      18.642   4.060  31.689  1.00  0.00     0.258 C 
HETATM    4  H2  UNK     1      19.811   5.162  30.370  1.00  0.00     0.163 HD
ENDROOT
BRANCH   3   5
HETATM    5  C10 UNK     1      18.864   2.896  30.822  1.00  0.00     0.108 A 
HETATM    6  C12 UNK     1      19.360   1.803  31.413  1.00  0.00     0.037 A 
HETATM    7  C11 UNK     1      19.614   0.600  30.636  1.00  0.00     0.001 A 
HETATM    8  C13 UNK     1      19.335   0.608  29.273  1.00  0.00     0.089 A 
HETATM    9  C16 UNK     1      20.129  -0.564  31.212  1.00  0.00     0.050 A 
HETATM   10  O3  UNK     1      18.814   1.762  28.656  1.00  0.00    -0.274 OA
HETATM   11  C17 UNK     1      19.556  -0.510  28.472  1.00  0.00     0.041 A 
HETATM   12  C15 UNK     1      18.558   2.927  29.373  1.00  0.00     0.304 A 
HETATM   13  O5  UNK     1      18.106   3.927  28.827  1.00  0.00    -0.259 OA
HETATM   14  C19 UNK     1      20.071  -1.667  29.055  1.00  0.00     0.039 A 
HETATM   15  C18 UNK     1      20.357  -1.694  30.422  1.00  0.00     0.103 A 
BRANCH  15  16
HETATM   16  N2  UNK     1      20.881  -2.874  31.011  1.00  0.00    -0.116 N 
HETATM   17  O6  UNK     1      20.902  -2.971  32.263  1.00  0.00    -0.532 OA
HETATM   18  O7  UNK     1      21.308  -3.788  30.266  1.00  0.00    -0.532 OA
ENDBRANCH  15  16
ENDBRANCH   3   5
BRANCH   2  19
HETATM   19  C1  UNK     1      19.230   6.463  31.935  1.00  0.00     0.114 C 
HETATM   20  C4  UNK     1      20.277   6.508  33.049  1.00  0.00     0.037 C 
BRANCH  19  21
HETATM   21  C2  UNK     1      17.835   6.729  32.464  1.00  0.00    -0.033 A 
HETATM   22  C3  UNK     1      16.777   6.780  31.572  1.00  0.00     0.049 A 
HETATM   23  C5  UNK     1      15.526   7.025  32.101  1.00  0.00     0.105 A 
HETATM   24  O1  UNK     1      14.365   7.115  31.396  1.00  0.00    -0.323 OA
HETATM   25  C7  UNK     1      15.335   7.209  33.451  1.00  0.00     0.105 A 
HETATM   26  C14 UNK     1      13.421   7.376  32.456  1.00  0.00     0.352 A 
HETATM   27  O2  UNK     1      14.031   7.438  33.761  1.00  0.00    -0.323 OA
HETATM   28  C8  UNK     1      16.384   7.160  34.346  1.00  0.00     0.040 A 
HETATM   29  C6  UNK     1      17.661   6.913  33.836  1.00  0.00     0.012 A 
ENDBRANCH  19  21
ENDBRANCH   2  19
TORSDOF 4
ENDMDL
MODEL 10
REMARK VINA RESULT:      -9.3      2.099      9.276
REMARK  4 active torsions:
REMARK  status: ('A' for Active; 'I' for Inactive)
REMARK    1  A    between atoms: C1_10  and  N1_8 
REMARK       I    between atoms: C9_18  and  N1_8 
REMARK    2  A    between atoms: C18_27  and  N2_9 
REMARK    3  A    between atoms: C1_10  and  C2_11 
REMARK    4  A    between atoms: C10_19  and  C9_18 
ROOT
HETATM    1  O4  UNK     1      18.359   2.875  29.311  1.00  0.00    -0.267 OA
HETATM    2  N1  UNK     1      18.891   4.192  31.160  1.00  0.00    -0.348 N 
HETATM    3  C9  UNK     1      18.678   2.999  30.492  1.00  0.00     0.258 C 
HETATM    4  H2  UNK     1      19.213   4.172  32.123  1.00  0.00     0.163 HD
ENDROOT
BRANCH   3   5
HETATM    5  C10 UNK     1      18.878   1.822  31.347  1.00  0.00     0.108 A 
HETATM    6  C12 UNK     1      19.528   0.792  30.794  1.00  0.00     0.037 A 
HETATM    7  C11 UNK     1      19.774  -0.418  31.562  1.00  0.00     0.001 A 
HETATM    8  C13 UNK     1      19.320  -0.484  32.876  1.00  0.00     0.089 A 
HETATM    9  C16 UNK     1      20.449  -1.517  31.026  1.00  0.00     0.050 A 
HETATM   10  O3  UNK     1      18.635   0.602  33.452  1.00  0.00    -0.274 OA
HETATM   11  C17 UNK     1      19.522  -1.614  33.666  1.00  0.00     0.041 A 
HETATM   12  C15 UNK     1      18.387   1.775  32.743  1.00  0.00     0.304 A 
HETATM   13  O5  UNK     1      17.790   2.715  33.253  1.00  0.00    -0.259 OA
HETATM   14  C19 UNK     1      20.196  -2.707  33.122  1.00  0.00     0.039 A 
HETATM   15  C18 UNK     1      20.659  -2.658  31.806  1.00  0.00     0.103 A 
BRANCH  15  16
HETATM   16  N2  UNK     1      21.346  -3.773  31.256  1.00  0.00    -0.116 N 
HETATM   17  O6  UNK     1      21.554  -3.807  30.019  1.00  0.00    -0.532 OA
HETATM   18  O7  UNK     1      21.726  -4.691  32.021  1.00  0.00    -0.532 OA
ENDBRANCH  15  16
ENDBRANCH   3   5
BRANCH   2  19
HETATM   19  C1  UNK     1      18.758   5.484  30.527  1.00  0.00     0.114 C 
HETATM   20  C4  UNK     1      20.056   5.840  29.799  1.00  0.00     0.037 C 
BRANCH  19  21
HETATM   21  C2  UNK     1      18.363   6.553  31.526  1.00  0.00    -0.033 A 
HETATM   22  C3  UNK     1      17.195   7.267  31.318  1.00  0.00     0.049 A 
HETATM   23  C5  UNK     1      16.877   8.229  32.255  1.00  0.00     0.105 A 
HETATM   24  O1  UNK     1      15.781   9.035  32.232  1.00  0.00    -0.323 OA
HETATM   25  C7  UNK     1      17.681   8.470  33.345  1.00  0.00     0.105 A 
HETATM   26  C14 UNK     1      15.984   9.810  33.432  1.00  0.00     0.352 A 
HETATM   27  O2  UNK     1      17.189   9.458  34.142  1.00  0.00    -0.323 OA
HETATM   28  C8  UNK     1      18.847   7.763  33.559  1.00  0.00     0.040 A 
HETATM   29  C6  UNK     1      19.190   6.783  32.625  1.00  0.00     0.012 A 
ENDBRANCH  19  21
ENDBRANCH   2  19
TORSDOF 4
ENDMDL
