MODEL 1
REMARK VINA RESULT:      -8.2      0.000      0.000
REMARK  8 active torsions:
REMARK  status: ('A' for Active; 'I' for Inactive)
REMARK    1  A    between atoms: C11_18  and  O2_3 
REMARK    2  A    between atoms: C15_22  and  O2_3 
REMARK    3  A    between atoms: C14_21  and  O4_5 
REMARK    4  A    between atoms: C16_23  and  O4_5 
REMARK    5  A    between atoms: C2_9  and  C4_11 
REMARK    6  A    between atoms: C4_11  and  C7_14 
REMARK    7  A    between atoms: C14_21  and  C7_14 
REMARK    8  A    between atoms: C15_22  and  C17_24 
ROOT
HETATM    1  O1  UNK     1      18.601   0.535  32.096  1.00  0.00    -0.274 OA
HETATM    2  O3  UNK     1      18.844  -1.711  32.313  1.00  0.00    -0.259 OA
HETATM    3  C1  UNK     1      18.498   0.738  34.918  1.00  0.00    -0.037 A 
HETATM    4  C2  UNK     1      18.622  -0.474  34.336  1.00  0.00     0.025 A 
HETATM    5  C3  UNK     1      18.379   1.941  34.069  1.00  0.00     0.005 A 
HETATM    6  C5  UNK     1      18.436   1.797  32.687  1.00  0.00     0.099 A 
HETATM    7  C6  UNK     1      18.331   2.883  31.813  1.00  0.00     0.007 A 
HETATM    8  C8  UNK     1      18.696  -0.619  32.854  1.00  0.00     0.295 A 
HETATM    9  C9  UNK     1      18.198   3.239  34.571  1.00  0.00     0.017 A 
HETATM   10  C10 UNK     1      18.488   0.952  36.411  1.00  0.00     0.050 C 
HETATM   11  C11 UNK     1      18.159   4.161  32.332  1.00  0.00     0.088 A 
HETATM   12  C12 UNK     1      18.091   4.339  33.711  1.00  0.00     0.039 A 
HETATM   13  C13 UNK     1      18.402   2.679  30.333  1.00  0.00     0.054 C 
ENDROOT
BRANCH  11  14
HETATM   14  O2  UNK     1      18.053   5.243  31.512  1.00  0.00    -0.274 OA
BRANCH  14  15
HETATM   15  C15 UNK     1      19.168   6.107  31.515  1.00  0.00     0.305 C 
HETATM   16  O6  UNK     1      20.088   6.020  30.708  1.00  0.00    -0.258 OA
BRANCH  15  17
HETATM   17  C17 UNK     1      19.082   7.102  32.587  1.00  0.00     0.080 A 
HETATM   18  S1  UNK     1      17.638   7.973  32.751  1.00  0.00    -0.096 SA
HETATM   19  C21 UNK     1      18.283   8.833  34.085  1.00  0.00     0.050 A 
HETATM   20  C20 UNK     1      19.572   8.443  34.376  1.00  0.00     0.009 A 
HETATM   21  C19 UNK     1      20.037   7.426  33.492  1.00  0.00     0.025 A 
ENDBRANCH  15  17
ENDBRANCH  14  15
ENDBRANCH  11  14
BRANCH   4  22
HETATM   22  C4  UNK     1      18.689  -1.785  35.079  1.00  0.00     0.055 C 
BRANCH  22  23
HETATM   23  C7  UNK     1      20.124  -2.151  35.427  1.00  0.00     0.116 C 
BRANCH  23  24
HETATM   24  C14 UNK     1      20.205  -2.856  36.763  1.00  0.00     0.259 C 
HETATM   25  O5  UNK     1      19.645  -2.491  37.788  1.00  0.00    -0.265 OA
BRANCH  24  26
HETATM   26  O4  UNK     1      21.001  -3.958  36.633  1.00  0.00    -0.322 OA
BRANCH  26  27
HETATM   27  C16 UNK     1      20.501  -5.155  37.238  1.00  0.00     0.174 C 
HETATM   28  C18 UNK     1      19.479  -5.784  36.314  1.00  0.00     0.034 C 
ENDBRANCH  26  27
ENDBRANCH  24  26
ENDBRANCH  23  24
ENDBRANCH  22  23
ENDBRANCH   4  22
TORSDOF 8
ENDMDL
MODEL 2
REMARK VINA RESULT:      -7.8      4.642      7.435
REMARK  8 active torsions:
REMARK  status: ('A' for Active; 'I' for Inactive)
REMARK    1  A    between atoms: C11_18  and  O2_3 
REMARK    2  A    between atoms: C15_22  and  O2_3 
REMARK    3  A    between atoms: C14_21  and  O4_5 
REMARK    4  A    between atoms: C16_23  and  O4_5 
REMARK    5  A    between atoms: C2_9  and  C4_11 
REMARK    6  A    between atoms: C4_11  and  C7_14 
REMARK    7  A    between atoms: C14_21  and  C7_14 
REMARK    8  A    between atoms: C15_22  and  C17_24 
ROOT
HETATM    1  O1  UNK     1      20.521  -5.343  33.979  1.00  0.00    -0.274 OA
HETATM    2  O3  UNK     1      20.881  -7.499  33.367  1.00  0.00    -0.259 OA
HETATM    3  C1  UNK     1      19.885  -6.251  36.584  1.00  0.00    -0.037 A 
HETATM    4  C2  UNK     1      20.202  -7.143  35.622  1.00  0.00     0.025 A 
HETATM    5  C3  UNK     1      19.839  -4.812  36.253  1.00  0.00     0.005 A 
HETATM    6  C5  UNK     1      20.161  -4.408  34.961  1.00  0.00     0.099 A 
HETATM    7  C6  UNK     1      20.141  -3.068  34.565  1.00  0.00     0.007 A 
HETATM    8  C8  UNK     1      20.558  -6.702  34.243  1.00  0.00     0.295 A 
HETATM    9  C9  UNK     1      19.476  -3.809  37.166  1.00  0.00     0.017 A 
HETATM   10  C10 UNK     1      19.585  -6.633  38.013  1.00  0.00     0.050 C 
HETATM   11  C11 UNK     1      19.785  -2.091  35.487  1.00  0.00     0.088 A 
HETATM   12  C12 UNK     1      19.451  -2.461  36.787  1.00  0.00     0.039 A 
HETATM   13  C13 UNK     1      20.498  -2.682  33.166  1.00  0.00     0.054 C 
ENDROOT
BRANCH  11  14
HETATM   14  O2  UNK     1      19.755  -0.775  35.138  1.00  0.00    -0.274 OA
BRANCH  14  15
HETATM   15  C15 UNK     1      18.526  -0.324  34.612  1.00  0.00     0.305 C 
HETATM   16  O6  UNK     1      18.219  -0.442  33.430  1.00  0.00    -0.258 OA
BRANCH  15  17
HETATM   17  C17 UNK     1      17.685   0.292  35.641  1.00  0.00     0.080 A 
HETATM   18  S1  UNK     1      16.005   0.133  35.495  1.00  0.00    -0.096 SA
HETATM   19  C21 UNK     1      15.773   1.030  36.935  1.00  0.00     0.050 A 
HETATM   20  C20 UNK     1      16.968   1.427  37.494  1.00  0.00     0.009 A 
HETATM   21  C19 UNK     1      18.088   0.991  36.729  1.00  0.00     0.025 A 
ENDBRANCH  15  17
ENDBRANCH  14  15
ENDBRANCH  11  14
BRANCH   4  22
HETATM   22  C4  UNK     1      20.224  -8.639  35.806  1.00  0.00     0.055 C 
BRANCH  22  23
HETATM   23  C7  UNK     1      21.623  -9.134  36.143  1.00  0.00     0.116 C 
BRANCH  23  24
HETATM   24  C14 UNK     1      21.998 -10.337  35.306  1.00  0.00     0.259 C 
HETATM   25  O5  UNK     1      21.753 -10.471  34.114  1.00  0.00    -0.265 OA
BRANCH  24  26
HETATM   26  O4  UNK     1      22.648 -11.240  36.097  1.00  0.00    -0.322 OA
BRANCH  26  27
HETATM   27  C16 UNK     1      24.075 -11.247  35.980  1.00  0.00     0.174 C 
HETATM   28  C18 UNK     1      24.555 -12.680  35.886  1.00  0.00     0.034 C 
ENDBRANCH  26  27
ENDBRANCH  24  26
ENDBRANCH  23  24
ENDBRANCH  22  23
ENDBRANCH   4  22
TORSDOF 8
ENDMDL
MODEL 3
REMARK VINA RESULT:      -7.7     25.322     27.029
REMARK  8 active torsions:
REMARK  status: ('A' for Active; 'I' for Inactive)
REMARK    1  A    between atoms: C11_18  and  O2_3 
REMARK    2  A    between atoms: C15_22  and  O2_3 
REMARK    3  A    between atoms: C14_21  and  O4_5 
REMARK    4  A    between atoms: C16_23  and  O4_5 
REMARK    5  A    between atoms: C2_9  and  C4_11 
REMARK    6  A    between atoms: C4_11  and  C7_14 
REMARK    7  A    between atoms: C14_21  and  C7_14 
REMARK    8  A    between atoms: C15_22  and  C17_24 
ROOT
HETATM    1  O1  UNK     1      13.325   9.308   9.454  1.00  0.00    -0.274 OA
HETATM    2  O3  UNK     1      11.319   8.330   9.040  1.00  0.00    -0.259 OA
HETATM    3  C1  UNK     1      14.496   6.732   9.539  1.00  0.00    -0.037 A 
HETATM    4  C2  UNK     1      13.168   6.858   9.331  1.00  0.00     0.025 A 
HETATM    5  C3  UNK     1      15.315   7.941   9.758  1.00  0.00     0.005 A 
HETATM    6  C5  UNK     1      14.700   9.188   9.706  1.00  0.00     0.099 A 
HETATM    7  C6  UNK     1      15.402  10.382   9.902  1.00  0.00     0.007 A 
HETATM    8  C8  UNK     1      12.519   8.199   9.264  1.00  0.00     0.295 A 
HETATM    9  C9  UNK     1      16.692   7.918  10.030  1.00  0.00     0.017 A 
HETATM   10  C10 UNK     1      15.219   5.407   9.547  1.00  0.00     0.050 C 
HETATM   11  C11 UNK     1      16.766  10.335  10.163  1.00  0.00     0.088 A 
HETATM   12  C12 UNK     1      17.411   9.103  10.228  1.00  0.00     0.039 A 
HETATM   13  C13 UNK     1      14.697  11.699   9.833  1.00  0.00     0.054 C 
ENDROOT
BRANCH  11  14
HETATM   14  O2  UNK     1      17.482  11.476  10.359  1.00  0.00    -0.274 OA
BRANCH  14  15
HETATM   15  C15 UNK     1      18.718  11.530   9.682  1.00  0.00     0.305 C 
HETATM   16  O6  UNK     1      19.780  11.192  10.194  1.00  0.00    -0.258 OA
BRANCH  15  17
HETATM   17  C17 UNK     1      18.568  12.033   8.314  1.00  0.00     0.080 A 
HETATM   18  S1  UNK     1      17.662  13.446   8.080  1.00  0.00    -0.096 SA
HETATM   19  C21 UNK     1      17.941  13.371   6.392  1.00  0.00     0.050 A 
HETATM   20  C20 UNK     1      18.711  12.284   6.044  1.00  0.00     0.009 A 
HETATM   21  C19 UNK     1      19.077  11.500   7.177  1.00  0.00     0.025 A 
ENDBRANCH  15  17
ENDBRANCH  14  15
ENDBRANCH  11  14
BRANCH   4  22
HETATM   22  C4  UNK     1      12.209   5.708   9.158  1.00  0.00     0.055 C 
BRANCH  22  23
HETATM   23  C7  UNK     1      12.346   5.076   7.780  1.00  0.00     0.116 C 
BRANCH  23  24
HETATM   24  C14 UNK     1      11.503   5.802   6.755  1.00  0.00     0.259 C 
HETATM   25  O5  UNK     1      11.936   6.548   5.887  1.00  0.00    -0.265 OA
BRANCH  24  26
HETATM   26  O4  UNK     1      10.190   5.489   6.961  1.00  0.00    -0.322 OA
BRANCH  26  27
HETATM   27  C16 UNK     1       9.243   6.391   6.378  1.00  0.00     0.174 C 
HETATM   28  C18 UNK     1       8.193   6.738   7.412  1.00  0.00     0.034 C 
ENDBRANCH  26  27
ENDBRANCH  24  26
ENDBRANCH  23  24
ENDBRANCH  22  23
ENDBRANCH   4  22
TORSDOF 8
ENDMDL
MODEL 4
REMARK VINA RESULT:      -7.6      2.315      3.415
REMARK  8 active torsions:
REMARK  status: ('A' for Active; 'I' for Inactive)
REMARK    1  A    between atoms: C11_18  and  O2_3 
REMARK    2  A    between atoms: C15_22  and  O2_3 
REMARK    3  A    between atoms: C14_21  and  O4_5 
REMARK    4  A    between atoms: C16_23  and  O4_5 
REMARK    5  A    between atoms: C2_9  and  C4_11 
REMARK    6  A    between atoms: C4_11  and  C7_14 
REMARK    7  A    between atoms: C14_21  and  C7_14 
REMARK    8  A    between atoms: C15_22  and  C17_24 
ROOT
HETATM    1  O1  UNK     1      19.730  -1.636  33.623  1.00  0.00    -0.274 OA
HETATM    2  O3  UNK     1      20.757  -3.640  33.906  1.00  0.00    -0.259 OA
HETATM    3  C1  UNK     1      18.983  -1.700  36.353  1.00  0.00    -0.037 A 
HETATM    4  C2  UNK     1      19.675  -2.731  35.823  1.00  0.00     0.025 A 
HETATM    5  C3  UNK     1      18.593  -0.567  35.490  1.00  0.00     0.005 A 
HETATM    6  C5  UNK     1      18.982  -0.574  34.154  1.00  0.00     0.099 A 
HETATM    7  C6  UNK     1      18.654   0.458  33.269  1.00  0.00     0.007 A 
HETATM    8  C8  UNK     1      20.099  -2.726  34.393  1.00  0.00     0.295 A 
HETATM    9  C9  UNK     1      17.835   0.530  35.929  1.00  0.00     0.017 A 
HETATM   10  C10 UNK     1      18.588  -1.618  37.807  1.00  0.00     0.050 C 
HETATM   11  C11 UNK     1      17.908   1.536  33.728  1.00  0.00     0.088 A 
HETATM   12  C12 UNK     1      17.497   1.572  35.058  1.00  0.00     0.039 A 
HETATM   13  C13 UNK     1      19.097   0.406  31.842  1.00  0.00     0.054 C 
ENDROOT
BRANCH  11  14
HETATM   14  O2  UNK     1      17.569   2.560  32.896  1.00  0.00    -0.274 OA
BRANCH  14  15
HETATM   15  C15 UNK     1      18.242   3.776  33.139  1.00  0.00     0.305 C 
HETATM   16  O6  UNK     1      18.546   4.161  34.263  1.00  0.00    -0.258 OA
BRANCH  15  17
HETATM   17  C17 UNK     1      18.523   4.501  31.898  1.00  0.00     0.080 A 
HETATM   18  S1  UNK     1      18.388   6.190  31.916  1.00  0.00    -0.096 SA
HETATM   19  C21 UNK     1      18.832   6.265  30.264  1.00  0.00     0.050 A 
HETATM   20  C20 UNK     1      19.073   5.015  29.737  1.00  0.00     0.009 A 
HETATM   21  C19 UNK     1      18.889   3.982  30.702  1.00  0.00     0.025 A 
ENDBRANCH  15  17
ENDBRANCH  14  15
ENDBRANCH  11  14
BRANCH   4  22
HETATM   22  C4  UNK     1      20.080  -3.974  36.573  1.00  0.00     0.055 C 
BRANCH  22  23
HETATM   23  C7  UNK     1      18.991  -5.035  36.515  1.00  0.00     0.116 C 
BRANCH  23  24
HETATM   24  C14 UNK     1      19.533  -6.354  36.010  1.00  0.00     0.259 C 
HETATM   25  O5  UNK     1      19.404  -6.781  34.871  1.00  0.00    -0.265 OA
BRANCH  24  26
HETATM   26  O4  UNK     1      20.183  -6.984  37.033  1.00  0.00    -0.322 OA
BRANCH  26  27
HETATM   27  C16 UNK     1      19.350  -7.437  38.106  1.00  0.00     0.174 C 
HETATM   28  C18 UNK     1      20.053  -7.172  39.421  1.00  0.00     0.034 C 
ENDBRANCH  26  27
ENDBRANCH  24  26
ENDBRANCH  23  24
ENDBRANCH  22  23
ENDBRANCH   4  22
TORSDOF 8
ENDMDL
MODEL 5
REMARK VINA RESULT:      -7.6     25.170     27.278
REMARK  8 active torsions:
REMARK  status: ('A' for Active; 'I' for Inactive)
REMARK    1  A    between atoms: C11_18  and  O2_3 
REMARK    2  A    between atoms: C15_22  and  O2_3 
REMARK    3  A    between atoms: C14_21  and  O4_5 
REMARK    4  A    between atoms: C16_23  and  O4_5 
REMARK    5  A    between atoms: C2_9  and  C4_11 
REMARK    6  A    between atoms: C4_11  and  C7_14 
REMARK    7  A    between atoms: C14_21  and  C7_14 
REMARK    8  A    between atoms: C15_22  and  C17_24 
ROOT
HETATM    1  O1  UNK     1      14.098   9.943   9.492  1.00  0.00    -0.274 OA
HETATM    2  O3  UNK     1      15.211  11.918   9.375  1.00  0.00    -0.259 OA
HETATM    3  C1  UNK     1      16.567   8.647   9.976  1.00  0.00    -0.037 A 
HETATM    4  C2  UNK     1      16.539   9.981   9.771  1.00  0.00     0.025 A 
HETATM    5  C3  UNK     1      15.310   7.875   9.907  1.00  0.00     0.005 A 
HETATM    6  C5  UNK     1      14.117   8.552   9.669  1.00  0.00     0.099 A 
HETATM    7  C6  UNK     1      12.884   7.898   9.588  1.00  0.00     0.007 A 
HETATM    8  C8  UNK     1      15.256  10.701   9.529  1.00  0.00     0.295 A 
HETATM    9  C9  UNK     1      15.235   6.481  10.057  1.00  0.00     0.017 A 
HETATM   10  C10 UNK     1      17.825   7.876  10.294  1.00  0.00     0.050 C 
HETATM   11  C11 UNK     1      12.834   6.518   9.747  1.00  0.00     0.088 A 
HETATM   12  C12 UNK     1      14.009   5.810   9.980  1.00  0.00     0.039 A 
HETATM   13  C13 UNK     1      11.629   8.669   9.333  1.00  0.00     0.054 C 
ENDROOT
BRANCH  11  14
HETATM   14  O2  UNK     1      11.651   5.846   9.675  1.00  0.00    -0.274 OA
BRANCH  14  15
HETATM   15  C15 UNK     1      11.481   5.058   8.518  1.00  0.00     0.305 C 
HETATM   16  O6  UNK     1      12.040   3.979   8.352  1.00  0.00    -0.258 OA
BRANCH  15  17
HETATM   17  C17 UNK     1      10.567   5.686   7.561  1.00  0.00     0.080 A 
HETATM   18  S1  UNK     1       8.998   6.055   8.083  1.00  0.00    -0.096 SA
HETATM   19  C21 UNK     1       8.611   6.694   6.542  1.00  0.00     0.050 A 
HETATM   20  C20 UNK     1       9.674   6.615   5.670  1.00  0.00     0.009 A 
HETATM   21  C19 UNK     1      10.820   6.021   6.273  1.00  0.00     0.025 A 
ENDBRANCH  15  17
ENDBRANCH  14  15
ENDBRANCH  11  14
BRANCH   4  22
HETATM   22  C4  UNK     1      17.752  10.876   9.750  1.00  0.00     0.055 C 
BRANCH  22  23
HETATM   23  C7  UNK     1      18.303  11.029   8.340  1.00  0.00     0.116 C 
BRANCH  23  24
HETATM   24  C14 UNK     1      19.415  12.052   8.290  1.00  0.00     0.259 C 
HETATM   25  O5  UNK     1      19.264  13.247   8.075  1.00  0.00    -0.265 OA
BRANCH  24  26
HETATM   26  O4  UNK     1      20.605  11.423   8.521  1.00  0.00    -0.322 OA
BRANCH  26  27
HETATM   27  C16 UNK     1      21.541  12.152   9.323  1.00  0.00     0.174 C 
HETATM   28  C18 UNK     1      21.170  11.992  10.782  1.00  0.00     0.034 C 
ENDBRANCH  26  27
ENDBRANCH  24  26
ENDBRANCH  23  24
ENDBRANCH  22  23
ENDBRANCH   4  22
TORSDOF 8
ENDMDL
MODEL 6
REMARK VINA RESULT:      -7.6     12.008     15.070
REMARK  8 active torsions:
REMARK  status: ('A' for Active; 'I' for Inactive)
REMARK    1  A    between atoms: C11_18  and  O2_3 
REMARK    2  A    between atoms: C15_22  and  O2_3 
REMARK    3  A    between atoms: C14_21  and  O4_5 
REMARK    4  A    between atoms: C16_23  and  O4_5 
REMARK    5  A    between atoms: C2_9  and  C4_11 
REMARK    6  A    between atoms: C4_11  and  C7_14 
REMARK    7  A    between atoms: C14_21  and  C7_14 
REMARK    8  A    between atoms: C15_22  and  C17_24 
ROOT
HETATM    1  O1  UNK     1      30.290  -8.166  38.527  1.00  0.00    -0.274 OA
HETATM    2  O3  UNK     1      32.543  -8.120  38.256  1.00  0.00    -0.259 OA
HETATM    3  C1  UNK     1      30.256  -5.351  38.225  1.00  0.00    -0.037 A 
HETATM    4  C2  UNK     1      31.431  -6.016  38.185  1.00  0.00     0.025 A 
HETATM    5  C3  UNK     1      29.006  -6.100  38.463  1.00  0.00     0.005 A 
HETATM    6  C5  UNK     1      29.067  -7.483  38.605  1.00  0.00     0.099 A 
HETATM    7  C6  UNK     1      27.932  -8.267  38.833  1.00  0.00     0.007 A 
HETATM    8  C8  UNK     1      31.487  -7.499  38.325  1.00  0.00     0.295 A 
HETATM    9  C9  UNK     1      27.741  -5.501  38.570  1.00  0.00     0.017 A 
HETATM   10  C10 UNK     1      30.131  -3.861  38.020  1.00  0.00     0.050 C 
HETATM   11  C11 UNK     1      26.689  -7.653  38.928  1.00  0.00     0.088 A 
HETATM   12  C12 UNK     1      26.593  -6.270  38.798  1.00  0.00     0.039 A 
HETATM   13  C13 UNK     1      28.047  -9.750  38.975  1.00  0.00     0.054 C 
ENDROOT
BRANCH  11  14
HETATM   14  O2  UNK     1      25.561  -8.383  39.150  1.00  0.00    -0.274 OA
BRANCH  14  15
HETATM   15  C15 UNK     1      24.684  -8.479  38.049  1.00  0.00     0.305 C 
HETATM   16  O6  UNK     1      25.028  -8.906  36.952  1.00  0.00    -0.258 OA
BRANCH  15  17
HETATM   17  C17 UNK     1      23.337  -8.010  38.383  1.00  0.00     0.080 A 
HETATM   18  S1  UNK     1      22.091  -8.318  37.277  1.00  0.00    -0.096 SA
HETATM   19  C21 UNK     1      20.961  -7.537  38.300  1.00  0.00     0.050 A 
HETATM   20  C20 UNK     1      21.549  -7.063  39.451  1.00  0.00     0.009 A 
HETATM   21  C19 UNK     1      22.945  -7.343  39.495  1.00  0.00     0.025 A 
ENDBRANCH  15  17
ENDBRANCH  14  15
ENDBRANCH  11  14
BRANCH   4  22
HETATM   22  C4  UNK     1      32.782  -5.370  38.014  1.00  0.00     0.055 C 
BRANCH  22  23
HETATM   23  C7  UNK     1      33.385  -5.700  36.656  1.00  0.00     0.116 C 
BRANCH  23  24
HETATM   24  C14 UNK     1      32.532  -5.162  35.529  1.00  0.00     0.259 C 
HETATM   25  O5  UNK     1      32.357  -3.977  35.281  1.00  0.00    -0.265 OA
BRANCH  24  26
HETATM   26  O4  UNK     1      31.993  -6.213  34.843  1.00  0.00    -0.322 OA
BRANCH  26  27
HETATM   27  C16 UNK     1      30.835  -5.907  34.058  1.00  0.00     0.174 C 
HETATM   28  C18 UNK     1      29.601  -6.390  34.792  1.00  0.00     0.034 C 
ENDBRANCH  26  27
ENDBRANCH  24  26
ENDBRANCH  23  24
ENDBRANCH  22  23
ENDBRANCH   4  22
TORSDOF 8
ENDMDL
MODEL 7
REMARK VINA RESULT:      -7.6      3.457      9.915
REMARK  8 active torsions:
REMARK  status: ('A' for Active; 'I' for Inactive)
REMARK    1  A    between atoms: C11_18  and  O2_3 
REMARK    2  A    between atoms: C15_22  and  O2_3 
REMARK    3  A    between atoms: C14_21  and  O4_5 
REMARK    4  A    between atoms: C16_23  and  O4_5 
REMARK    5  A    between atoms: C2_9  and  C4_11 
REMARK    6  A    between atoms: C4_11  and  C7_14 
REMARK    7  A    between atoms: C14_21  and  C7_14 
REMARK    8  A    between atoms: C15_22  and  C17_24 
ROOT
HETATM    1  O1  UNK     1      19.335  -0.950  33.816  1.00  0.00    -0.274 OA
HETATM    2  O3  UNK     1      18.696   0.835  32.567  1.00  0.00    -0.259 OA
HETATM    3  C1  UNK     1      18.119   0.264  36.066  1.00  0.00    -0.037 A 
HETATM    4  C2  UNK     1      18.110   0.899  34.875  1.00  0.00     0.025 A 
HETATM    5  C3  UNK     1      18.797  -1.043  36.187  1.00  0.00     0.005 A 
HETATM    6  C5  UNK     1      19.381  -1.605  35.056  1.00  0.00     0.099 A 
HETATM    7  C6  UNK     1      20.043  -2.836  35.084  1.00  0.00     0.007 A 
HETATM    8  C8  UNK     1      18.727   0.284  33.664  1.00  0.00     0.295 A 
HETATM    9  C9  UNK     1      18.905  -1.763  37.388  1.00  0.00     0.017 A 
HETATM   10  C10 UNK     1      17.451   0.804  37.307  1.00  0.00     0.050 C 
HETATM   11  C11 UNK     1      20.131  -3.534  36.282  1.00  0.00     0.088 A 
HETATM   12  C12 UNK     1      19.564  -2.997  37.434  1.00  0.00     0.039 A 
HETATM   13  C13 UNK     1      20.652  -3.401  33.841  1.00  0.00     0.054 C 
ENDROOT
BRANCH  11  14
HETATM   14  O2  UNK     1      20.768  -4.737  36.348  1.00  0.00    -0.274 OA
BRANCH  14  15
HETATM   15  C15 UNK     1      19.921  -5.853  36.511  1.00  0.00     0.305 C 
HETATM   16  O6  UNK     1      19.015  -6.127  35.732  1.00  0.00    -0.258 OA
BRANCH  15  17
HETATM   17  C17 UNK     1      20.262  -6.625  37.709  1.00  0.00     0.080 A 
HETATM   18  S1  UNK     1      21.831  -6.479  38.331  1.00  0.00    -0.096 SA
HETATM   19  C21 UNK     1      21.457  -7.577  39.591  1.00  0.00     0.050 A 
HETATM   20  C20 UNK     1      20.158  -8.028  39.514  1.00  0.00     0.009 A 
HETATM   21  C19 UNK     1      19.460  -7.466  38.406  1.00  0.00     0.025 A 
ENDBRANCH  15  17
ENDBRANCH  14  15
ENDBRANCH  11  14
BRANCH   4  22
HETATM   22  C4  UNK     1      17.512   2.260  34.628  1.00  0.00     0.055 C 
BRANCH  22  23
HETATM   23  C7  UNK     1      18.591   3.325  34.501  1.00  0.00     0.116 C 
BRANCH  23  24
HETATM   24  C14 UNK     1      18.243   4.339  33.435  1.00  0.00     0.259 C 
HETATM   25  O5  UNK     1      17.749   4.077  32.346  1.00  0.00    -0.265 OA
BRANCH  24  26
HETATM   26  O4  UNK     1      18.572   5.585  33.886  1.00  0.00    -0.322 OA
BRANCH  26  27
HETATM   27  C16 UNK     1      19.049   6.496  32.889  1.00  0.00     0.174 C 
HETATM   28  C18 UNK     1      20.561   6.447  32.861  1.00  0.00     0.034 C 
ENDBRANCH  26  27
ENDBRANCH  24  26
ENDBRANCH  23  24
ENDBRANCH  22  23
ENDBRANCH   4  22
TORSDOF 8
ENDMDL
MODEL 8
REMARK VINA RESULT:      -7.6     25.320     26.794
REMARK  8 active torsions:
REMARK  status: ('A' for Active; 'I' for Inactive)
REMARK    1  A    between atoms: C11_18  and  O2_3 
REMARK    2  A    between atoms: C15_22  and  O2_3 
REMARK    3  A    between atoms: C14_21  and  O4_5 
REMARK    4  A    between atoms: C16_23  and  O4_5 
REMARK    5  A    between atoms: C2_9  and  C4_11 
REMARK    6  A    between atoms: C4_11  and  C7_14 
REMARK    7  A    between atoms: C14_21  and  C7_14 
REMARK    8  A    between atoms: C15_22  and  C17_24 
ROOT
HETATM    1  O1  UNK     1      13.397   9.374   9.134  1.00  0.00    -0.274 OA
HETATM    2  O3  UNK     1      11.348   8.485   8.732  1.00  0.00    -0.259 OA
HETATM    3  C1  UNK     1      14.395   6.752   9.518  1.00  0.00    -0.037 A 
HETATM    4  C2  UNK     1      13.086   6.938   9.242  1.00  0.00     0.025 A 
HETATM    5  C3  UNK     1      15.282   7.926   9.653  1.00  0.00     0.005 A 
HETATM    6  C5  UNK     1      14.752   9.196   9.454  1.00  0.00     0.099 A 
HETATM    7  C6  UNK     1      15.522  10.358   9.563  1.00  0.00     0.007 A 
HETATM    8  C8  UNK     1      12.528   8.303   9.018  1.00  0.00     0.295 A 
HETATM    9  C9  UNK     1      16.644   7.845   9.984  1.00  0.00     0.017 A 
HETATM   10  C10 UNK     1      15.029   5.394   9.686  1.00  0.00     0.050 C 
HETATM   11  C11 UNK     1      16.869  10.254   9.885  1.00  0.00     0.088 A 
HETATM   12  C12 UNK     1      17.431   8.998  10.097  1.00  0.00     0.039 A 
HETATM   13  C13 UNK     1      14.907  11.702   9.336  1.00  0.00     0.054 C 
ENDROOT
BRANCH  11  14
HETATM   14  O2  UNK     1      17.651  11.364   9.999  1.00  0.00    -0.274 OA
BRANCH  14  15
HETATM   15  C15 UNK     1      18.588  11.545   8.961  1.00  0.00     0.305 C 
HETATM   16  O6  UNK     1      18.297  11.461   7.772  1.00  0.00    -0.258 OA
BRANCH  15  17
HETATM   17  C17 UNK     1      19.926  11.840   9.479  1.00  0.00     0.080 A 
HETATM   18  S1  UNK     1      21.161  12.151   8.361  1.00  0.00    -0.096 SA
HETATM   19  C21 UNK     1      22.284  12.380   9.634  1.00  0.00     0.050 A 
HETATM   20  C20 UNK     1      21.702  12.217  10.872  1.00  0.00     0.009 A 
HETATM   21  C19 UNK     1      20.316  11.900  10.775  1.00  0.00     0.025 A 
ENDBRANCH  15  17
ENDBRANCH  14  15
ENDBRANCH  11  14
BRANCH   4  22
HETATM   22  C4  UNK     1      12.061   5.838   9.141  1.00  0.00     0.055 C 
BRANCH  22  23
HETATM   23  C7  UNK     1      12.207   5.064   7.840  1.00  0.00     0.116 C 
BRANCH  23  24
HETATM   24  C14 UNK     1      11.466   5.742   6.709  1.00  0.00     0.259 C 
HETATM   25  O5  UNK     1      11.982   6.436   5.844  1.00  0.00    -0.265 OA
BRANCH  24  26
HETATM   26  O4  UNK     1      10.136   5.453   6.817  1.00  0.00    -0.322 OA
BRANCH  26  27
HETATM   27  C16 UNK     1       9.245   6.450   6.305  1.00  0.00     0.174 C 
HETATM   28  C18 UNK     1       8.183   6.742   7.343  1.00  0.00     0.034 C 
ENDBRANCH  26  27
ENDBRANCH  24  26
ENDBRANCH  23  24
ENDBRANCH  22  23
ENDBRANCH   4  22
TORSDOF 8
ENDMDL
MODEL 9
REMARK VINA RESULT:      -7.5     12.376     14.772
REMARK  8 active torsions:
REMARK  status: ('A' for Active; 'I' for Inactive)
REMARK    1  A    between atoms: C11_18  and  O2_3 
REMARK    2  A    between atoms: C15_22  and  O2_3 
REMARK    3  A    between atoms: C14_21  and  O4_5 
REMARK    4  A    between atoms: C16_23  and  O4_5 
REMARK    5  A    between atoms: C2_9  and  C4_11 
REMARK    6  A    between atoms: C4_11  and  C7_14 
REMARK    7  A    between atoms: C14_21  and  C7_14 
REMARK    8  A    between atoms: C15_22  and  C17_24 
ROOT
HETATM    1  O1  UNK     1      27.696  -5.460  38.578  1.00  0.00    -0.274 OA
HETATM    2  O3  UNK     1      25.431  -5.416  38.730  1.00  0.00    -0.259 OA
HETATM    3  C1  UNK     1      27.587  -8.288  38.666  1.00  0.00    -0.037 A 
HETATM    4  C2  UNK     1      26.447  -7.570  38.749  1.00  0.00     0.025 A 
HETATM    5  C3  UNK     1      28.882  -7.584  38.568  1.00  0.00     0.005 A 
HETATM    6  C5  UNK     1      28.891  -6.194  38.525  1.00  0.00     0.099 A 
HETATM    7  C6  UNK     1      30.072  -5.451  38.433  1.00  0.00     0.007 A 
HETATM    8  C8  UNK     1      26.463  -6.080  38.690  1.00  0.00     0.295 A 
HETATM    9  C9  UNK     1      30.126  -8.233  38.525  1.00  0.00     0.017 A 
HETATM   10  C10 UNK     1      27.627  -9.796  38.651  1.00  0.00     0.050 C 
HETATM   11  C11 UNK     1      31.291  -6.115  38.385  1.00  0.00     0.088 A 
HETATM   12  C12 UNK     1      31.319  -7.506  38.432  1.00  0.00     0.039 A 
HETATM   13  C13 UNK     1      30.029  -3.957  38.387  1.00  0.00     0.054 C 
ENDROOT
BRANCH  11  14
HETATM   14  O2  UNK     1      32.462  -5.425  38.295  1.00  0.00    -0.274 OA
BRANCH  14  15
HETATM   15  C15 UNK     1      33.369  -5.909  37.328  1.00  0.00     0.305 C 
HETATM   16  O6  UNK     1      34.458  -6.395  37.614  1.00  0.00    -0.258 OA
BRANCH  15  17
HETATM   17  C17 UNK     1      32.847  -5.759  35.968  1.00  0.00     0.080 A 
HETATM   18  S1  UNK     1      32.844  -7.122  34.962  1.00  0.00    -0.096 SA
HETATM   19  C21 UNK     1      32.153  -6.208  33.689  1.00  0.00     0.050 A 
HETATM   20  C20 UNK     1      31.940  -4.896  34.052  1.00  0.00     0.009 A 
HETATM   21  C19 UNK     1      32.350  -4.638  35.392  1.00  0.00     0.025 A 
ENDBRANCH  15  17
ENDBRANCH  14  15
ENDBRANCH  11  14
BRANCH   4  22
HETATM   22  C4  UNK     1      25.069  -8.157  38.917  1.00  0.00     0.055 C 
BRANCH  22  23
HETATM   23  C7  UNK     1      24.466  -8.546  37.575  1.00  0.00     0.116 C 
BRANCH  23  24
HETATM   24  C14 UNK     1      22.957  -8.445  37.599  1.00  0.00     0.259 C 
HETATM   25  O5  UNK     1      22.263  -8.490  38.605  1.00  0.00    -0.265 OA
BRANCH  24  26
HETATM   26  O4  UNK     1      22.505  -8.298  36.319  1.00  0.00    -0.322 OA
BRANCH  26  27
HETATM   27  C16 UNK     1      21.434  -9.171  35.940  1.00  0.00     0.174 C 
HETATM   28  C18 UNK     1      22.009 -10.367  35.212  1.00  0.00     0.034 C 
ENDBRANCH  26  27
ENDBRANCH  24  26
ENDBRANCH  23  24
ENDBRANCH  22  23
ENDBRANCH   4  22
TORSDOF 8
ENDMDL
MODEL 10
REMARK VINA RESULT:      -7.4      1.252      2.161
REMARK  8 active torsions:
REMARK  status: ('A' for Active; 'I' for Inactive)
REMARK    1  A    between atoms: C11_18  and  O2_3 
REMARK    2  A    between atoms: C15_22  and  O2_3 
REMARK    3  A    between atoms: C14_21  and  O4_5 
REMARK    4  A    between atoms: C16_23  and  O4_5 
REMARK    5  A    between atoms: C2_9  and  C4_11 
REMARK    6  A    between atoms: C4_11  and  C7_14 
REMARK    7  A    between atoms: C14_21  and  C7_14 
REMARK    8  A    between atoms: C15_22  and  C17_24 
ROOT
HETATM    1  O1  UNK     1      18.100   1.980  35.037  1.00  0.00    -0.274 OA
HETATM    2  O3  UNK     1      18.077   0.569  36.815  1.00  0.00    -0.259 OA
HETATM    3  C1  UNK     1      18.661  -0.233  33.363  1.00  0.00    -0.037 A 
HETATM    4  C2  UNK     1      18.538  -0.414  34.695  1.00  0.00     0.025 A 
HETATM    5  C3  UNK     1      18.539   1.128  32.801  1.00  0.00     0.005 A 
HETATM    6  C5  UNK     1      18.261   2.187  33.659  1.00  0.00     0.099 A 
HETATM    7  C6  UNK     1      18.129   3.505  33.209  1.00  0.00     0.007 A 
HETATM    8  C8  UNK     1      18.227   0.724  35.607  1.00  0.00     0.295 A 
HETATM    9  C9  UNK     1      18.697   1.431  31.440  1.00  0.00     0.017 A 
HETATM   10  C10 UNK     1      18.906  -1.356  32.386  1.00  0.00     0.050 C 
HETATM   11  C11 UNK     1      18.284   3.780  31.856  1.00  0.00     0.088 A 
HETATM   12  C12 UNK     1      18.569   2.745  30.972  1.00  0.00     0.039 A 
HETATM   13  C13 UNK     1      17.827   4.610  34.170  1.00  0.00     0.054 C 
ENDROOT
BRANCH  11  14
HETATM   14  O2  UNK     1      18.163   5.051  31.381  1.00  0.00    -0.274 OA
BRANCH  14  15
HETATM   15  C15 UNK     1      19.344   5.821  31.425  1.00  0.00     0.305 C 
HETATM   16  O6  UNK     1      20.303   5.621  30.688  1.00  0.00    -0.258 OA
BRANCH  15  17
HETATM   17  C17 UNK     1      19.274   6.869  32.447  1.00  0.00     0.080 A 
HETATM   18  S1  UNK     1      17.861   7.799  32.537  1.00  0.00    -0.096 SA
HETATM   19  C21 UNK     1      18.509   8.697  33.843  1.00  0.00     0.050 A 
HETATM   20  C20 UNK     1      19.776   8.275  34.181  1.00  0.00     0.009 A 
HETATM   21  C19 UNK     1      20.221   7.200  33.357  1.00  0.00     0.025 A 
ENDBRANCH  15  17
ENDBRANCH  14  15
ENDBRANCH  11  14
BRANCH   4  22
HETATM   22  C4  UNK     1      18.702  -1.734  35.406  1.00  0.00     0.055 C 
BRANCH  22  23
HETATM   23  C7  UNK     1      20.160  -1.998  35.751  1.00  0.00     0.116 C 
BRANCH  23  24
HETATM   24  C14 UNK     1      20.329  -3.330  36.447  1.00  0.00     0.259 C 
HETATM   25  O5  UNK     1      20.484  -3.482  37.651  1.00  0.00    -0.265 OA
BRANCH  24  26
HETATM   26  O4  UNK     1      20.281  -4.325  35.513  1.00  0.00    -0.322 OA
BRANCH  26  27
HETATM   27  C16 UNK     1      19.814  -5.593  35.987  1.00  0.00     0.174 C 
HETATM   28  C18 UNK     1      20.000  -6.626  34.896  1.00  0.00     0.034 C 
ENDBRANCH  26  27
ENDBRANCH  24  26
ENDBRANCH  23  24
ENDBRANCH  22  23
ENDBRANCH   4  22
TORSDOF 8
ENDMDL
