MODEL 1
REMARK VINA RESULT:      -9.7      0.000      0.000
REMARK  4 active torsions:
REMARK  status: ('A' for Active; 'I' for Inactive)
REMARK    1  A    between atoms: C5_10  and  N1_4 
REMARK    2  A    between atoms: C6_11  and  N2_5 
REMARK    3  A    between atoms: C5_10  and  C7_12 
REMARK    4  A    between atoms: C6_11  and  C8_13 
ROOT
HETATM    1  N1  UNK     1      18.335   5.737  32.104  1.00  0.00     0.096 N 
HETATM    2  N2  UNK     1      18.966   3.366  30.577  1.00  0.00     0.096 N 
HETATM    3  C1  UNK     1      19.393   5.745  31.085  1.00  0.00     0.303 C 
HETATM    4  C2  UNK     1      18.195   4.397  32.686  1.00  0.00     0.303 C 
HETATM    5  C3  UNK     1      19.108   4.706  29.996  1.00  0.00     0.303 C 
HETATM    6  C4  UNK     1      17.910   3.358  31.596  1.00  0.00     0.303 C 
ENDROOT
BRANCH   1   7
HETATM    7  C5  UNK     1      18.608   6.728  33.144  1.00  0.00     0.312 C 
BRANCH   7   8
HETATM    8  C7  UNK     1      17.411   7.554  33.461  1.00  0.00    -0.011 A 
HETATM    9  C10 UNK     1      16.182   7.018  33.479  1.00  0.00     0.092 A 
HETATM   10  C15 UNK     1      14.971   7.795  33.786  1.00  0.00     0.288 A 
HETATM   11  O1  UNK     1      15.148   9.141  34.066  1.00  0.00    -0.275 OA
HETATM   12  O2  UNK     1      13.862   7.270  33.793  1.00  0.00    -0.260 OA
HETATM   13  C11 UNK     1      16.427   9.733  34.057  1.00  0.00     0.090 A 
HETATM   14  C9  UNK     1      17.567   8.984  33.762  1.00  0.00     0.006 A 
HETATM   15  C16 UNK     1      16.486  11.096  34.355  1.00  0.00     0.045 A 
HETATM   16  C14 UNK     1      18.801   9.647  33.773  1.00  0.00     0.015 A 
HETATM   17  C18 UNK     1      18.876  11.014  34.069  1.00  0.00     0.007 A 
HETATM   18  C17 UNK     1      17.721  11.736  34.359  1.00  0.00    -0.059 A 
HETATM   19  C22 UNK     1      17.809  13.191  34.675  1.00  0.00     0.048 C 
ENDBRANCH   7   8
ENDBRANCH   1   7
BRANCH   2  20
HETATM   20  C6  UNK     1      18.690   2.375  29.537  1.00  0.00     0.311 C 
BRANCH  20  21
HETATM   21  C8  UNK     1      19.241   1.024  29.888  1.00  0.00    -0.030 A 
HETATM   22  C12 UNK     1      19.160   0.555  31.199  1.00  0.00     0.010 A 
HETATM   23  C19 UNK     1      19.670  -0.701  31.525  1.00  0.00     0.024 A 
HETATM   24  C21 UNK     1      20.262  -1.490  30.538  1.00  0.00     0.034 A 
HETATM   25  C20 UNK     1      20.343  -1.022  29.226  1.00  0.00     0.024 A 
HETATM   26 Cl1  UNK     1      20.893  -3.039  30.940  1.00  0.00    -0.084 Cl
HETATM   27  C13 UNK     1      19.832   0.235  28.902  1.00  0.00     0.010 A 
ENDBRANCH  20  21
ENDBRANCH   2  20
TORSDOF 4
ENDMDL
MODEL 2
REMARK VINA RESULT:      -9.3      8.304     11.588
REMARK  4 active torsions:
REMARK  status: ('A' for Active; 'I' for Inactive)
REMARK    1  A    between atoms: C5_10  and  N1_4 
REMARK    2  A    between atoms: C6_11  and  N2_5 
REMARK    3  A    between atoms: C5_10  and  C7_12 
REMARK    4  A    between atoms: C6_11  and  C8_13 
ROOT
HETATM    1  N1  UNK     1      19.909  -3.916  36.603  1.00  0.00     0.096 N 
HETATM    2  N2  UNK     1      20.432  -6.744  36.902  1.00  0.00     0.096 N 
HETATM    3  C1  UNK     1      20.053  -4.793  35.433  1.00  0.00     0.303 C 
HETATM    4  C2  UNK     1      20.698  -4.431  37.729  1.00  0.00     0.303 C 
HETATM    5  C3  UNK     1      19.644  -6.229  35.775  1.00  0.00     0.303 C 
HETATM    6  C4  UNK     1      20.288  -5.868  38.070  1.00  0.00     0.303 C 
ENDROOT
BRANCH   1   7
HETATM    7  C5  UNK     1      20.301  -2.546  36.277  1.00  0.00     0.312 C 
BRANCH   7   8
HETATM    8  C7  UNK     1      19.337  -1.891  35.350  1.00  0.00    -0.011 A 
HETATM    9  C10 UNK     1      18.194  -1.356  35.802  1.00  0.00     0.092 A 
HETATM   10  C15 UNK     1      17.212  -0.699  34.924  1.00  0.00     0.288 A 
HETATM   11  O1  UNK     1      17.518  -0.653  33.573  1.00  0.00    -0.275 OA
HETATM   12  O2  UNK     1      16.177  -0.220  35.373  1.00  0.00    -0.260 OA
HETATM   13  C11 UNK     1      18.712  -1.206  33.068  1.00  0.00     0.090 A 
HETATM   14  C9  UNK     1      19.633  -1.826  33.913  1.00  0.00     0.006 A 
HETATM   15  C16 UNK     1      18.916  -1.100  31.690  1.00  0.00     0.045 A 
HETATM   16  C14 UNK     1      20.795  -2.351  33.333  1.00  0.00     0.015 A 
HETATM   17  C18 UNK     1      21.013  -2.254  31.953  1.00  0.00     0.007 A 
HETATM   18  C17 UNK     1      20.075  -1.629  31.134  1.00  0.00    -0.059 A 
HETATM   19  C22 UNK     1      20.315  -1.528  29.666  1.00  0.00     0.048 C 
ENDBRANCH   7   8
ENDBRANCH   1   7
BRANCH   2  20
HETATM   20  C6  UNK     1      20.037  -8.113  37.229  1.00  0.00     0.311 C 
BRANCH  20  21
HETATM   21  C8  UNK     1      21.070  -9.114  36.799  1.00  0.00    -0.030 A 
HETATM   22  C12 UNK     1      22.427  -8.822  36.943  1.00  0.00     0.010 A 
HETATM   23  C19 UNK     1      23.386  -9.753  36.544  1.00  0.00     0.024 A 
HETATM   24  C21 UNK     1      22.989 -10.975  36.003  1.00  0.00     0.034 A 
HETATM   25  C20 UNK     1      21.632 -11.267  35.859  1.00  0.00     0.024 A 
HETATM   26 Cl1  UNK     1      24.173 -12.123  35.510  1.00  0.00    -0.084 Cl
HETATM   27  C13 UNK     1      20.673 -10.336  36.258  1.00  0.00     0.010 A 
ENDBRANCH  20  21
ENDBRANCH   2  20
TORSDOF 4
ENDMDL
MODEL 3
REMARK VINA RESULT:      -9.2      8.019     11.202
REMARK  4 active torsions:
REMARK  status: ('A' for Active; 'I' for Inactive)
REMARK    1  A    between atoms: C5_10  and  N1_4 
REMARK    2  A    between atoms: C6_11  and  N2_5 
REMARK    3  A    between atoms: C5_10  and  C7_12 
REMARK    4  A    between atoms: C6_11  and  C8_13 
ROOT
HETATM    1  N1  UNK     1      20.123  -3.818  36.483  1.00  0.00     0.096 N 
HETATM    2  N2  UNK     1      20.574  -6.652  36.830  1.00  0.00     0.096 N 
HETATM    3  C1  UNK     1      20.219  -4.722  35.329  1.00  0.00     0.303 C 
HETATM    4  C2  UNK     1      20.921  -4.331  37.603  1.00  0.00     0.303 C 
HETATM    5  C3  UNK     1      19.777  -6.139  35.709  1.00  0.00     0.303 C 
HETATM    6  C4  UNK     1      20.479  -5.748  37.983  1.00  0.00     0.303 C 
ENDROOT
BRANCH   1   7
HETATM    7  C5  UNK     1      20.546  -2.466  36.120  1.00  0.00     0.312 C 
BRANCH   7   8
HETATM    8  C7  UNK     1      19.627  -1.836  35.132  1.00  0.00    -0.011 A 
HETATM    9  C10 UNK     1      19.844  -1.944  33.814  1.00  0.00     0.092 A 
HETATM   10  C15 UNK     1      18.964  -1.338  32.802  1.00  0.00     0.288 A 
HETATM   11  O1  UNK     1      17.869  -0.630  33.273  1.00  0.00    -0.275 OA
HETATM   12  O2  UNK     1      19.194  -1.458  31.603  1.00  0.00    -0.260 OA
HETATM   13  C11 UNK     1      17.613  -0.500  34.652  1.00  0.00     0.090 A 
HETATM   14  C9  UNK     1      18.458  -1.079  35.600  1.00  0.00     0.006 A 
HETATM   15  C16 UNK     1      16.481   0.235  35.012  1.00  0.00     0.045 A 
HETATM   16  C14 UNK     1      18.135  -0.903  36.952  1.00  0.00     0.015 A 
HETATM   17  C18 UNK     1      17.004  -0.168  37.328  1.00  0.00     0.007 A 
HETATM   18  C17 UNK     1      16.179   0.399  36.359  1.00  0.00    -0.059 A 
HETATM   19  C22 UNK     1      14.975   1.179  36.766  1.00  0.00     0.048 C 
ENDBRANCH   7   8
ENDBRANCH   1   7
BRANCH   2  20
HETATM   20  C6  UNK     1      20.148  -8.003  37.195  1.00  0.00     0.311 C 
BRANCH  20  21
HETATM   21  C8  UNK     1      21.155  -9.038  36.787  1.00  0.00    -0.030 A 
HETATM   22  C12 UNK     1      22.519  -8.756  36.867  1.00  0.00     0.010 A 
HETATM   23  C19 UNK     1      23.455  -9.718  36.489  1.00  0.00     0.024 A 
HETATM   24  C21 UNK     1      23.026 -10.965  36.032  1.00  0.00     0.034 A 
HETATM   25  C20 UNK     1      21.662 -11.248  35.951  1.00  0.00     0.024 A 
HETATM   26 Cl1  UNK     1      24.180 -12.152  35.565  1.00  0.00    -0.084 Cl
HETATM   27  C13 UNK     1      20.727 -10.284  36.329  1.00  0.00     0.010 A 
ENDBRANCH  20  21
ENDBRANCH   2  20
TORSDOF 4
ENDMDL
MODEL 4
REMARK VINA RESULT:      -9.0      4.254      9.864
REMARK  4 active torsions:
REMARK  status: ('A' for Active; 'I' for Inactive)
REMARK    1  A    between atoms: C5_10  and  N1_4 
REMARK    2  A    between atoms: C6_11  and  N2_5 
REMARK    3  A    between atoms: C5_10  and  C7_12 
REMARK    4  A    between atoms: C6_11  and  C8_13 
ROOT
HETATM    1  N1  UNK     1      18.599   4.764  32.562  1.00  0.00     0.096 N 
HETATM    2  N2  UNK     1      18.812   7.554  33.290  1.00  0.00     0.096 N 
HETATM    3  C1  UNK     1      19.459   5.686  31.808  1.00  0.00     0.303 C 
HETATM    4  C2  UNK     1      17.465   5.487  33.150  1.00  0.00     0.303 C 
HETATM    5  C3  UNK     1      19.946   6.831  32.700  1.00  0.00     0.303 C 
HETATM    6  C4  UNK     1      17.953   6.633  34.043  1.00  0.00     0.303 C 
ENDROOT
BRANCH   1   7
HETATM    7  C5  UNK     1      18.134   3.672  31.709  1.00  0.00     0.312 C 
BRANCH   7   8
HETATM    8  C7  UNK     1      18.355   2.338  32.333  1.00  0.00    -0.011 A 
HETATM    9  C10 UNK     1      18.029   2.107  33.613  1.00  0.00     0.092 A 
HETATM   10  C15 UNK     1      18.230   0.806  34.271  1.00  0.00     0.288 A 
HETATM   11  O1  UNK     1      18.785  -0.203  33.499  1.00  0.00    -0.275 OA
HETATM   12  O2  UNK     1      17.920   0.631  35.444  1.00  0.00    -0.260 OA
HETATM   13  C11 UNK     1      19.136   0.009  32.151  1.00  0.00     0.090 A 
HETATM   14  C9  UNK     1      18.941   1.248  31.540  1.00  0.00     0.006 A 
HETATM   15  C16 UNK     1      19.686  -1.080  31.470  1.00  0.00     0.045 A 
HETATM   16  C14 UNK     1      19.317   1.377  30.197  1.00  0.00     0.015 A 
HETATM   17  C18 UNK     1      19.871   0.296  29.502  1.00  0.00     0.007 A 
HETATM   18  C17 UNK     1      20.054  -0.930  30.138  1.00  0.00    -0.059 A 
HETATM   19  C22 UNK     1      20.643  -2.078  29.390  1.00  0.00     0.048 C 
ENDBRANCH   7   8
ENDBRANCH   1   7
BRANCH   2  20
HETATM   20  C6  UNK     1      19.279   8.644  34.146  1.00  0.00     0.311 C 
BRANCH  20  21
HETATM   21  C8  UNK     1      18.359   9.829  34.097  1.00  0.00    -0.030 A 
HETATM   22  C12 UNK     1      16.977   9.643  34.144  1.00  0.00     0.010 A 
HETATM   23  C19 UNK     1      16.122  10.744  34.100  1.00  0.00     0.024 A 
HETATM   24  C21 UNK     1      16.650  12.032  34.011  1.00  0.00     0.034 A 
HETATM   25  C20 UNK     1      18.032  12.219  33.965  1.00  0.00     0.024 A 
HETATM   26 Cl1  UNK     1      15.596  13.391  33.957  1.00  0.00    -0.084 Cl
HETATM   27  C13 UNK     1      18.885  11.117  34.008  1.00  0.00     0.010 A 
ENDBRANCH  20  21
ENDBRANCH   2  20
TORSDOF 4
ENDMDL
MODEL 5
REMARK VINA RESULT:      -8.9     16.778     18.178
REMARK  4 active torsions:
REMARK  status: ('A' for Active; 'I' for Inactive)
REMARK    1  A    between atoms: C5_10  and  N1_4 
REMARK    2  A    between atoms: C6_11  and  N2_5 
REMARK    3  A    between atoms: C5_10  and  C7_12 
REMARK    4  A    between atoms: C6_11  and  C8_13 
ROOT
HETATM    1  N1  UNK     1      31.492  -6.096  35.615  1.00  0.00     0.096 N 
HETATM    2  N2  UNK     1      30.748  -6.502  32.851  1.00  0.00     0.096 N 
HETATM    3  C1  UNK     1      32.425  -6.698  34.654  1.00  0.00     0.303 C 
HETATM    4  C2  UNK     1      30.105  -6.389  35.235  1.00  0.00     0.303 C 
HETATM    5  C3  UNK     1      32.135  -6.210  33.232  1.00  0.00     0.303 C 
HETATM    6  C4  UNK     1      29.815  -5.901  33.811  1.00  0.00     0.303 C 
ENDROOT
BRANCH   1   7
HETATM    7  C5  UNK     1      31.769  -6.563  36.972  1.00  0.00     0.312 C 
BRANCH   7   8
HETATM    8  C7  UNK     1      30.681  -6.205  37.923  1.00  0.00    -0.011 A 
HETATM    9  C10 UNK     1      30.552  -4.956  38.392  1.00  0.00     0.092 A 
HETATM   10  C15 UNK     1      29.493  -4.556  39.333  1.00  0.00     0.288 A 
HETATM   11  O1  UNK     1      28.606  -5.545  39.729  1.00  0.00    -0.275 OA
HETATM   12  O2  UNK     1      29.406  -3.403  39.741  1.00  0.00    -0.260 OA
HETATM   13  C11 UNK     1      28.715  -6.867  39.253  1.00  0.00     0.090 A 
HETATM   14  C9  UNK     1      29.725  -7.231  38.361  1.00  0.00     0.006 A 
HETATM   15  C16 UNK     1      27.766  -7.780  39.719  1.00  0.00     0.045 A 
HETATM   16  C14 UNK     1      29.765  -8.565  37.935  1.00  0.00     0.015 A 
HETATM   17  C18 UNK     1      28.822  -9.492  38.395  1.00  0.00     0.007 A 
HETATM   18  C17 UNK     1      27.824  -9.099  39.285  1.00  0.00    -0.059 A 
HETATM   19  C22 UNK     1      26.822 -10.091  39.768  1.00  0.00     0.048 C 
ENDBRANCH   7   8
ENDBRANCH   1   7
BRANCH   2  20
HETATM   20  C6  UNK     1      30.470  -6.032  31.495  1.00  0.00     0.311 C 
BRANCH  20  21
HETATM   21  C8  UNK     1      29.901  -7.117  30.629  1.00  0.00    -0.030 A 
HETATM   22  C12 UNK     1      28.600  -7.573  30.845  1.00  0.00     0.010 A 
HETATM   23  C19 UNK     1      28.070  -8.581  30.040  1.00  0.00     0.024 A 
HETATM   24  C21 UNK     1      28.842  -9.133  29.017  1.00  0.00     0.034 A 
HETATM   25  C20 UNK     1      30.143  -8.677  28.800  1.00  0.00     0.024 A 
HETATM   26 Cl1  UNK     1      28.189 -10.377  28.023  1.00  0.00    -0.084 Cl
HETATM   27  C13 UNK     1      30.671  -7.669  29.606  1.00  0.00     0.010 A 
ENDBRANCH  20  21
ENDBRANCH   2  20
TORSDOF 4
ENDMDL
MODEL 6
REMARK VINA RESULT:      -8.9     17.360     19.809
REMARK  4 active torsions:
REMARK  status: ('A' for Active; 'I' for Inactive)
REMARK    1  A    between atoms: C5_10  and  N1_4 
REMARK    2  A    between atoms: C6_11  and  N2_5 
REMARK    3  A    between atoms: C5_10  and  C7_12 
REMARK    4  A    between atoms: C6_11  and  C8_13 
ROOT
HETATM    1  N1  UNK     1      31.617  -5.959  35.651  1.00  0.00     0.096 N 
HETATM    2  N2  UNK     1      34.120  -6.411  34.277  1.00  0.00     0.096 N 
HETATM    3  C1  UNK     1      32.053  -7.313  35.285  1.00  0.00     0.303 C 
HETATM    4  C2  UNK     1      32.156  -4.974  34.705  1.00  0.00     0.303 C 
HETATM    5  C3  UNK     1      33.581  -7.396  35.222  1.00  0.00     0.303 C 
HETATM    6  C4  UNK     1      33.685  -5.058  34.643  1.00  0.00     0.303 C 
ENDROOT
BRANCH   1   7
HETATM    7  C5  UNK     1      30.159  -5.880  35.709  1.00  0.00     0.312 C 
BRANCH   7   8
HETATM    8  C7  UNK     1      29.656  -5.796  37.108  1.00  0.00    -0.011 A 
HETATM    9  C10 UNK     1      29.804  -4.678  37.833  1.00  0.00     0.092 A 
HETATM   10  C15 UNK     1      29.324  -4.549  39.219  1.00  0.00     0.288 A 
HETATM   11  O1  UNK     1      28.694  -5.656  39.765  1.00  0.00    -0.275 OA
HETATM   12  O2  UNK     1      29.477  -3.510  39.852  1.00  0.00    -0.260 OA
HETATM   13  C11 UNK     1      28.522  -6.845  39.028  1.00  0.00     0.090 A 
HETATM   14  C9  UNK     1      28.984  -6.953  37.715  1.00  0.00     0.006 A 
HETATM   15  C16 UNK     1      27.873  -7.896  39.679  1.00  0.00     0.045 A 
HETATM   16  C14 UNK     1      28.775  -8.168  37.051  1.00  0.00     0.015 A 
HETATM   17  C18 UNK     1      28.126  -9.231  37.691  1.00  0.00     0.007 A 
HETATM   18  C17 UNK     1      27.676  -9.095  39.003  1.00  0.00    -0.059 A 
HETATM   19  C22 UNK     1      26.985 -10.231  39.677  1.00  0.00     0.048 C 
ENDBRANCH   7   8
ENDBRANCH   1   7
BRANCH   2  20
HETATM   20  C6  UNK     1      35.580  -6.488  34.222  1.00  0.00     0.311 C 
BRANCH  20  21
HETATM   21  C8  UNK     1      36.049  -7.601  33.331  1.00  0.00    -0.030 A 
HETATM   22  C12 UNK     1      37.045  -8.474  33.769  1.00  0.00     0.010 A 
HETATM   23  C19 UNK     1      37.481  -9.509  32.942  1.00  0.00     0.024 A 
HETATM   24  C21 UNK     1      36.920  -9.671  31.675  1.00  0.00     0.034 A 
HETATM   25  C20 UNK     1      35.924  -8.797  31.235  1.00  0.00     0.024 A 
HETATM   26 Cl1  UNK     1      37.457 -10.946  30.653  1.00  0.00    -0.084 Cl
HETATM   27  C13 UNK     1      35.489  -7.763  32.064  1.00  0.00     0.010 A 
ENDBRANCH  20  21
ENDBRANCH   2  20
TORSDOF 4
ENDMDL
MODEL 7
REMARK VINA RESULT:      -8.7     22.827     24.732
REMARK  4 active torsions:
REMARK  status: ('A' for Active; 'I' for Inactive)
REMARK    1  A    between atoms: C5_10  and  N1_4 
REMARK    2  A    between atoms: C6_11  and  N2_5 
REMARK    3  A    between atoms: C5_10  and  C7_12 
REMARK    4  A    between atoms: C6_11  and  C8_13 
ROOT
HETATM    1  N1  UNK     1      11.757   6.237   7.354  1.00  0.00     0.096 N 
HETATM    2  N2  UNK     1       8.988   6.202   8.184  1.00  0.00     0.096 N 
HETATM    3  C1  UNK     1      11.380   6.421   8.762  1.00  0.00     0.303 C 
HETATM    4  C2  UNK     1      10.691   6.723   6.471  1.00  0.00     0.303 C 
HETATM    5  C3  UNK     1      10.055   5.717   9.069  1.00  0.00     0.303 C 
HETATM    6  C4  UNK     1       9.365   6.018   6.778  1.00  0.00     0.303 C 
ENDROOT
BRANCH   1   7
HETATM    7  C5  UNK     1      13.021   6.910   7.062  1.00  0.00     0.312 C 
BRANCH   7   8
HETATM    8  C7  UNK     1      14.034   6.691   8.131  1.00  0.00    -0.011 A 
HETATM    9  C10 UNK     1      14.394   5.455   8.505  1.00  0.00     0.092 A 
HETATM   10  C15 UNK     1      15.390   5.191   9.556  1.00  0.00     0.288 A 
HETATM   11  O1  UNK     1      15.961   6.297  10.165  1.00  0.00    -0.275 OA
HETATM   12  O2  UNK     1      15.694   4.046   9.872  1.00  0.00    -0.260 OA
HETATM   13  C11 UNK     1      15.604   7.609   9.794  1.00  0.00     0.090 A 
HETATM   14  C9  UNK     1      14.658   7.844   8.796  1.00  0.00     0.006 A 
HETATM   15  C16 UNK     1      16.244   8.648  10.474  1.00  0.00     0.045 A 
HETATM   16  C14 UNK     1      14.358   9.177   8.485  1.00  0.00     0.015 A 
HETATM   17  C18 UNK     1      14.991  10.229   9.160  1.00  0.00     0.007 A 
HETATM   18  C17 UNK     1      15.932   9.963  10.152  1.00  0.00    -0.059 A 
HETATM   19  C22 UNK     1      16.603  11.088  10.865  1.00  0.00     0.048 C 
ENDBRANCH   7   8
ENDBRANCH   1   7
BRANCH   2  20
HETATM   20  C6  UNK     1       7.725   5.526   8.475  1.00  0.00     0.311 C 
BRANCH  20  21
HETATM   21  C8  UNK     1       7.184   5.901   9.824  1.00  0.00    -0.030 A 
HETATM   22  C12 UNK     1       6.961   7.242  10.139  1.00  0.00     0.010 A 
HETATM   23  C19 UNK     1       6.457   7.591  11.392  1.00  0.00     0.024 A 
HETATM   24  C21 UNK     1       6.176   6.598  12.330  1.00  0.00     0.034 A 
HETATM   25  C20 UNK     1       6.399   5.257  12.016  1.00  0.00     0.024 A 
HETATM   26 Cl1  UNK     1       5.555   7.028  13.877  1.00  0.00    -0.084 Cl
HETATM   27  C13 UNK     1       6.902   4.909  10.763  1.00  0.00     0.010 A 
ENDBRANCH  20  21
ENDBRANCH   2  20
TORSDOF 4
ENDMDL
MODEL 8
REMARK VINA RESULT:      -8.7     16.243     18.928
REMARK  4 active torsions:
REMARK  status: ('A' for Active; 'I' for Inactive)
REMARK    1  A    between atoms: C5_10  and  N1_4 
REMARK    2  A    between atoms: C6_11  and  N2_5 
REMARK    3  A    between atoms: C5_10  and  C7_12 
REMARK    4  A    between atoms: C6_11  and  C8_13 
ROOT
HETATM    1  N1  UNK     1      26.775  -9.272  37.549  1.00  0.00     0.096 N 
HETATM    2  N2  UNK     1      29.604  -9.017  38.085  1.00  0.00     0.096 N 
HETATM    3  C1  UNK     1      27.638  -8.431  36.708  1.00  0.00     0.303 C 
HETATM    4  C2  UNK     1      27.300  -9.336  38.918  1.00  0.00     0.303 C 
HETATM    5  C3  UNK     1      29.079  -8.951  36.716  1.00  0.00     0.303 C 
HETATM    6  C4  UNK     1      28.742  -9.856  38.925  1.00  0.00     0.303 C 
ENDROOT
BRANCH   1   7
HETATM    7  C5  UNK     1      25.400  -8.774  37.542  1.00  0.00     0.312 C 
BRANCH   7   8
HETATM    8  C7  UNK     1      24.464  -9.719  36.872  1.00  0.00    -0.011 A 
HETATM    9  C10 UNK     1      24.907 -10.851  36.306  1.00  0.00     0.092 A 
HETATM   10  C15 UNK     1      24.019 -11.812  35.633  1.00  0.00     0.288 A 
HETATM   11  O1  UNK     1      22.669 -11.499  35.602  1.00  0.00    -0.275 OA
HETATM   12  O2  UNK     1      24.460 -12.839  35.127  1.00  0.00    -0.260 OA
HETATM   13  C11 UNK     1      22.174 -10.317  36.188  1.00  0.00     0.090 A 
HETATM   14  C9  UNK     1      23.028  -9.413  36.823  1.00  0.00     0.006 A 
HETATM   15  C16 UNK     1      20.797 -10.103  36.097  1.00  0.00     0.045 A 
HETATM   16  C14 UNK     1      22.457  -8.262  37.379  1.00  0.00     0.015 A 
HETATM   17  C18 UNK     1      21.078  -8.033  37.295  1.00  0.00     0.007 A 
HETATM   18  C17 UNK     1      20.250  -8.953  36.656  1.00  0.00    -0.059 A 
HETATM   19  C22 UNK     1      18.782  -8.705  36.571  1.00  0.00     0.048 C 
ENDBRANCH   7   8
ENDBRANCH   1   7
BRANCH   2  20
HETATM   20  C6  UNK     1      30.978  -9.517  38.091  1.00  0.00     0.311 C 
BRANCH  20  21
HETATM   21  C8  UNK     1      31.957  -8.476  37.633  1.00  0.00    -0.030 A 
HETATM   22  C12 UNK     1      32.101  -7.289  38.352  1.00  0.00     0.010 A 
HETATM   23  C19 UNK     1      33.012  -6.322  37.927  1.00  0.00     0.024 A 
HETATM   24  C21 UNK     1      33.780  -6.542  36.783  1.00  0.00     0.034 A 
HETATM   25  C20 UNK     1      33.636  -7.729  36.064  1.00  0.00     0.024 A 
HETATM   26 Cl1  UNK     1      34.903  -5.349  36.259  1.00  0.00    -0.084 Cl
HETATM   27  C13 UNK     1      32.725  -8.695  36.490  1.00  0.00     0.010 A 
ENDBRANCH  20  21
ENDBRANCH   2  20
TORSDOF 4
ENDMDL
MODEL 9
REMARK VINA RESULT:      -8.7      4.619      9.652
REMARK  4 active torsions:
REMARK  status: ('A' for Active; 'I' for Inactive)
REMARK    1  A    between atoms: C5_10  and  N1_4 
REMARK    2  A    between atoms: C6_11  and  N2_5 
REMARK    3  A    between atoms: C5_10  and  C7_12 
REMARK    4  A    between atoms: C6_11  and  C8_13 
ROOT
HETATM    1  N1  UNK     1      18.841   3.903  31.415  1.00  0.00     0.096 N 
HETATM    2  N2  UNK     1      19.119   6.467  32.720  1.00  0.00     0.096 N 
HETATM    3  C1  UNK     1      19.391   5.065  30.704  1.00  0.00     0.303 C 
HETATM    4  C2  UNK     1      17.897   4.336  32.451  1.00  0.00     0.303 C 
HETATM    5  C3  UNK     1      20.063   6.034  31.682  1.00  0.00     0.303 C 
HETATM    6  C4  UNK     1      18.569   5.306  33.430  1.00  0.00     0.303 C 
ENDROOT
BRANCH   1   7
HETATM    7  C5  UNK     1      18.200   2.979  30.481  1.00  0.00     0.312 C 
BRANCH   7   8
HETATM    8  C7  UNK     1      18.826   1.628  30.507  1.00  0.00    -0.011 A 
HETATM    9  C10 UNK     1      19.418   1.116  29.420  1.00  0.00     0.092 A 
HETATM   10  C15 UNK     1      20.048  -0.214  29.400  1.00  0.00     0.288 A 
HETATM   11  O1  UNK     1      20.008  -0.941  30.579  1.00  0.00    -0.275 OA
HETATM   12  O2  UNK     1      20.581  -0.651  28.385  1.00  0.00    -0.260 OA
HETATM   13  C11 UNK     1      19.394  -0.428  31.740  1.00  0.00     0.090 A 
HETATM   14  C9  UNK     1      18.799   0.834  31.743  1.00  0.00     0.006 A 
HETATM   15  C16 UNK     1      19.413  -1.248  32.871  1.00  0.00     0.045 A 
HETATM   16  C14 UNK     1      18.209   1.270  32.937  1.00  0.00     0.015 A 
HETATM   17  C18 UNK     1      18.219   0.460  34.078  1.00  0.00     0.007 A 
HETATM   18  C17 UNK     1      18.821  -0.796  34.045  1.00  0.00    -0.059 A 
HETATM   19  C22 UNK     1      18.830  -1.653  35.265  1.00  0.00     0.048 C 
ENDBRANCH   7   8
ENDBRANCH   1   7
BRANCH   2  20
HETATM   20  C6  UNK     1      19.763   7.389  33.656  1.00  0.00     0.311 C 
BRANCH  20  21
HETATM   21  C8  UNK     1      18.983   8.661  33.816  1.00  0.00    -0.030 A 
HETATM   22  C12 UNK     1      17.595   8.652  33.677  1.00  0.00     0.010 A 
HETATM   23  C19 UNK     1      16.870   9.834  33.828  1.00  0.00     0.024 A 
HETATM   24  C21 UNK     1      17.534  11.026  34.118  1.00  0.00     0.034 A 
HETATM   25  C20 UNK     1      18.923  11.036  34.257  1.00  0.00     0.024 A 
HETATM   26 Cl1  UNK     1      16.641  12.485  34.303  1.00  0.00    -0.084 Cl
HETATM   27  C13 UNK     1      19.646   9.853  34.107  1.00  0.00     0.010 A 
ENDBRANCH  20  21
ENDBRANCH   2  20
TORSDOF 4
ENDMDL
MODEL 10
REMARK VINA RESULT:      -8.5     22.681     24.775
REMARK  4 active torsions:
REMARK  status: ('A' for Active; 'I' for Inactive)
REMARK    1  A    between atoms: C5_10  and  N1_4 
REMARK    2  A    between atoms: C6_11  and  N2_5 
REMARK    3  A    between atoms: C5_10  and  C7_12 
REMARK    4  A    between atoms: C6_11  and  C8_13 
ROOT
HETATM    1  N1  UNK     1      15.206   9.412   9.785  1.00  0.00     0.096 N 
HETATM    2  N2  UNK     1      17.325  11.361   9.522  1.00  0.00     0.096 N 
HETATM    3  C1  UNK     1      15.014  10.808  10.199  1.00  0.00     0.303 C 
HETATM    4  C2  UNK     1      16.616   9.027   9.920  1.00  0.00     0.303 C 
HETATM    5  C3  UNK     1      15.914  11.746   9.389  1.00  0.00     0.303 C 
HETATM    6  C4  UNK     1      17.517   9.966   9.109  1.00  0.00     0.303 C 
ENDROOT
BRANCH   1   7
HETATM    7  C5  UNK     1      14.347   8.518  10.560  1.00  0.00     0.312 C 
BRANCH   7   8
HETATM    8  C7  UNK     1      14.186   7.189   9.907  1.00  0.00    -0.011 A 
HETATM    9  C10 UNK     1      14.998   6.165  10.206  1.00  0.00     0.092 A 
HETATM   10  C15 UNK     1      14.875   4.836   9.586  1.00  0.00     0.288 A 
HETATM   11  O1  UNK     1      13.861   4.673   8.655  1.00  0.00    -0.275 OA
HETATM   12  O2  UNK     1      15.637   3.922   9.884  1.00  0.00    -0.260 OA
HETATM   13  C11 UNK     1      12.991   5.730   8.321  1.00  0.00     0.090 A 
HETATM   14  C9  UNK     1      13.120   6.986   8.916  1.00  0.00     0.006 A 
HETATM   15  C16 UNK     1      12.006   5.453   7.370  1.00  0.00     0.045 A 
HETATM   16  C14 UNK     1      12.216   7.984   8.529  1.00  0.00     0.015 A 
HETATM   17  C18 UNK     1      11.224   7.721   7.577  1.00  0.00     0.007 A 
HETATM   18  C17 UNK     1      11.120   6.457   7.000  1.00  0.00    -0.059 A 
HETATM   19  C22 UNK     1      10.059   6.184   5.988  1.00  0.00     0.048 C 
ENDBRANCH   7   8
ENDBRANCH   1   7
BRANCH   2  20
HETATM   20  C6  UNK     1      18.182  12.254   8.744  1.00  0.00     0.311 C 
BRANCH  20  21
HETATM   21  C8  UNK     1      19.604  12.226   9.225  1.00  0.00    -0.030 A 
HETATM   22  C12 UNK     1      20.652  12.187   8.305  1.00  0.00     0.010 A 
HETATM   23  C19 UNK     1      21.973  12.162   8.752  1.00  0.00     0.024 A 
HETATM   24  C21 UNK     1      22.246  12.179  10.119  1.00  0.00     0.034 A 
HETATM   25  C20 UNK     1      21.198  12.218  11.040  1.00  0.00     0.024 A 
HETATM   26 Cl1  UNK     1      23.876  12.148  10.671  1.00  0.00    -0.084 Cl
HETATM   27  C13 UNK     1      19.878  12.243  10.592  1.00  0.00     0.010 A 
ENDBRANCH  20  21
ENDBRANCH   2  20
TORSDOF 4
ENDMDL
