MODEL 1
REMARK VINA RESULT:      -9.2      0.000      0.000
REMARK  3 active torsions:
REMARK  status: ('A' for Active; 'I' for Inactive)
REMARK    1  A    between atoms: C7_15  and  N1_7 
REMARK    2  A    between atoms: C1_9  and  C3_11 
REMARK    3  A    between atoms: C15_23  and  C20_28 
ROOT
HETATM    1  O1  UNK     1      16.923   8.498   9.996  1.00  0.00    -0.291 OA
HETATM    2  O2  UNK     1      13.841  10.663  11.817  1.00  0.00    -0.274 OA
HETATM    3  O3  UNK     1      12.551   8.784  11.875  1.00  0.00    -0.259 OA
HETATM    4  N2  UNK     1      15.710   3.839   9.814  1.00  0.00    -0.191 NA
HETATM    5  C1  UNK     1      14.463   7.114  10.516  1.00  0.00     0.108 C 
HETATM    6  C2  UNK     1      14.694   8.572  10.866  1.00  0.00     0.066 A 
HETATM    7  C4  UNK     1      15.865   9.164  10.587  1.00  0.00     0.104 A 
HETATM    8  C5  UNK     1      15.744   6.418  10.068  1.00  0.00     0.086 C 
HETATM    9  C6  UNK     1      16.090  10.575  10.890  1.00  0.00     0.033 A 
HETATM   10  C7  UNK     1      16.878   7.115   9.827  1.00  0.00     0.159 C 
HETATM   11  C8  UNK     1      13.607   9.318  11.553  1.00  0.00     0.298 A 
HETATM   12  C9  UNK     1      15.061  11.289  11.497  1.00  0.00     0.092 A 
HETATM   13  C12 UNK     1      17.282  11.250  10.602  1.00  0.00     0.017 A 
HETATM   14  C16 UNK     1      15.187  12.641  11.818  1.00  0.00     0.038 A 
HETATM   15  C17 UNK     1      15.726   4.993   9.928  1.00  0.00     0.100 C 
HETATM   16  C18 UNK     1      17.424  12.605  10.918  1.00  0.00     0.001 A 
HETATM   17  C19 UNK     1      16.377  13.299  11.526  1.00  0.00     0.003 A 
ENDROOT
BRANCH   5  18
HETATM   18  C3  UNK     1      13.409   6.989   9.453  1.00  0.00    -0.044 A 
HETATM   19  C10 UNK     1      12.330   6.136   9.651  1.00  0.00     0.009 A 
HETATM   20  C13 UNK     1      11.351   6.021   8.664  1.00  0.00     0.017 A 
HETATM   21  C15 UNK     1      11.460   6.760   7.486  1.00  0.00     0.047 A 
HETATM   22  C14 UNK     1      12.546   7.614   7.295  1.00  0.00     0.017 A 
HETATM   23  C11 UNK     1      13.524   7.729   8.283  1.00  0.00     0.009 A 
BRANCH  21  24
HETATM   24  C20 UNK     1      10.413   6.636   6.430  1.00  0.00     0.417 C 
HETATM   25  F1  UNK     1      10.362   5.392   5.887  1.00  0.00    -0.166 F 
HETATM   26  F2  UNK     1       9.163   6.898   6.898  1.00  0.00    -0.166 F 
HETATM   27  F3  UNK     1      10.634   7.501   5.406  1.00  0.00    -0.166 F 
ENDBRANCH  21  24
ENDBRANCH   5  18
BRANCH  10  28
HETATM   28  N1  UNK     1      18.063   6.572   9.409  1.00  0.00    -0.379 N 
HETATM   29  H10 UNK     1      18.698   7.147   8.870  1.00  0.00     0.158 HD
HETATM   30  H9  UNK     1      18.303   5.615   9.630  1.00  0.00     0.158 HD
ENDBRANCH  10  28
TORSDOF 3
ENDMDL
MODEL 2
REMARK VINA RESULT:      -8.5     33.539     35.234
REMARK  3 active torsions:
REMARK  status: ('A' for Active; 'I' for Inactive)
REMARK    1  A    between atoms: C7_15  and  N1_7 
REMARK    2  A    between atoms: C1_9  and  C3_11 
REMARK    3  A    between atoms: C15_23  and  C20_28 
ROOT
HETATM    1  O1  UNK     1      32.215  -5.687  36.297  1.00  0.00    -0.291 OA
HETATM    2  O2  UNK     1      29.646  -7.178  33.351  1.00  0.00    -0.274 OA
HETATM    3  O3  UNK     1      27.848  -6.683  34.664  1.00  0.00    -0.259 OA
HETATM    4  N2  UNK     1      29.611  -3.728  39.845  1.00  0.00    -0.191 NA
HETATM    5  C1  UNK     1      29.406  -5.724  36.887  1.00  0.00     0.108 C 
HETATM    6  C2  UNK     1      29.993  -6.212  35.577  1.00  0.00     0.066 A 
HETATM    7  C4  UNK     1      31.318  -6.178  35.366  1.00  0.00     0.104 A 
HETATM    8  C5  UNK     1      30.442  -5.014  37.754  1.00  0.00     0.086 C 
HETATM    9  C6  UNK     1      31.898  -6.673  34.121  1.00  0.00     0.033 A 
HETATM   10  C7  UNK     1      31.757  -5.032  37.439  1.00  0.00     0.159 C 
HETATM   11  C8  UNK     1      29.066  -6.699  34.521  1.00  0.00     0.298 A 
HETATM   12  C9  UNK     1      31.039  -7.167  33.145  1.00  0.00     0.092 A 
HETATM   13  C12 UNK     1      33.273  -6.682  33.856  1.00  0.00     0.017 A 
HETATM   14  C16 UNK     1      31.506  -7.664  31.928  1.00  0.00     0.038 A 
HETATM   15  C17 UNK     1      29.983  -4.303  38.910  1.00  0.00     0.100 C 
HETATM   16  C18 UNK     1      33.758  -7.177  32.641  1.00  0.00     0.001 A 
HETATM   17  C19 UNK     1      32.874  -7.667  31.678  1.00  0.00     0.003 A 
ENDROOT
BRANCH   5  18
HETATM   18  C3  UNK     1      28.794  -6.866  37.647  1.00  0.00    -0.044 A 
HETATM   19  C10 UNK     1      29.514  -8.043  37.818  1.00  0.00     0.009 A 
HETATM   20  C13 UNK     1      28.945  -9.102  38.524  1.00  0.00     0.017 A 
HETATM   21  C15 UNK     1      27.660  -8.978  39.052  1.00  0.00     0.047 A 
HETATM   22  C14 UNK     1      26.944  -7.795  38.876  1.00  0.00     0.017 A 
HETATM   23  C11 UNK     1      27.513  -6.734  38.170  1.00  0.00     0.009 A 
BRANCH  21  24
HETATM   24  C20 UNK     1      27.052 -10.112  39.807  1.00  0.00     0.417 C 
HETATM   25  F1  UNK     1      26.901 -11.227  39.044  1.00  0.00    -0.166 F 
HETATM   26  F2  UNK     1      27.796 -10.486  40.882  1.00  0.00    -0.166 F 
HETATM   27  F3  UNK     1      25.818  -9.792  40.279  1.00  0.00    -0.166 F 
ENDBRANCH  21  24
ENDBRANCH   5  18
BRANCH  10  28
HETATM   28  N1  UNK     1      32.750  -4.436  38.168  1.00  0.00    -0.379 N 
HETATM   29  H10 UNK     1      33.665  -4.867  38.188  1.00  0.00     0.158 HD
HETATM   30  H9  UNK     1      32.578  -3.581  38.680  1.00  0.00     0.158 HD
ENDBRANCH  10  28
TORSDOF 3
ENDMDL
MODEL 3
REMARK VINA RESULT:      -8.4     32.615     34.391
REMARK  3 active torsions:
REMARK  status: ('A' for Active; 'I' for Inactive)
REMARK    1  A    between atoms: C7_15  and  N1_7 
REMARK    2  A    between atoms: C1_9  and  C3_11 
REMARK    3  A    between atoms: C15_23  and  C20_28 
ROOT
HETATM    1  O1  UNK     1      30.658  -5.117  37.051  1.00  0.00    -0.291 OA
HETATM    2  O2  UNK     1      30.640  -9.301  37.045  1.00  0.00    -0.274 OA
HETATM    3  O3  UNK     1      32.401  -9.309  35.596  1.00  0.00    -0.259 OA
HETATM    4  N2  UNK     1      34.441  -3.532  34.525  1.00  0.00    -0.191 NA
HETATM    5  C1  UNK     1      32.533  -6.445  35.331  1.00  0.00     0.108 C 
HETATM    6  C2  UNK     1      31.551  -7.178  36.225  1.00  0.00     0.066 A 
HETATM    7  C4  UNK     1      30.692  -6.498  36.999  1.00  0.00     0.104 A 
HETATM    8  C5  UNK     1      32.563  -4.946  35.615  1.00  0.00     0.086 C 
HETATM    9  C6  UNK     1      29.721  -7.193  37.840  1.00  0.00     0.033 A 
HETATM   10  C7  UNK     1      31.651  -4.364  36.427  1.00  0.00     0.159 C 
HETATM   11  C8  UNK     1      31.585  -8.665  36.247  1.00  0.00     0.298 A 
HETATM   12  C9  UNK     1      29.721  -8.584  37.835  1.00  0.00     0.092 A 
HETATM   13  C12 UNK     1      28.787  -6.535  38.651  1.00  0.00     0.017 A 
HETATM   14  C16 UNK     1      28.826  -9.329  38.603  1.00  0.00     0.038 A 
HETATM   15  C17 UNK     1      33.601  -4.164  35.013  1.00  0.00     0.100 C 
HETATM   16  C18 UNK     1      27.884  -7.267  39.427  1.00  0.00     0.001 A 
HETATM   17  C19 UNK     1      27.903  -8.663  39.403  1.00  0.00     0.003 A 
ENDROOT
BRANCH   5  18
HETATM   18  C3  UNK     1      32.212  -6.690  33.885  1.00  0.00    -0.044 A 
HETATM   19  C10 UNK     1      30.961  -6.343  33.390  1.00  0.00     0.009 A 
HETATM   20  C13 UNK     1      30.664  -6.569  32.046  1.00  0.00     0.017 A 
HETATM   21  C15 UNK     1      31.620  -7.143  31.208  1.00  0.00     0.047 A 
HETATM   22  C14 UNK     1      32.873  -7.488  31.712  1.00  0.00     0.017 A 
HETATM   23  C11 UNK     1      33.170  -7.261  33.056  1.00  0.00     0.009 A 
BRANCH  21  24
HETATM   24  C20 UNK     1      31.301  -7.385  29.771  1.00  0.00     0.417 C 
HETATM   25  F1  UNK     1      31.655  -8.631  29.359  1.00  0.00    -0.166 F 
HETATM   26  F2  UNK     1      29.974  -7.259  29.499  1.00  0.00    -0.166 F 
HETATM   27  F3  UNK     1      31.950  -6.507  28.962  1.00  0.00    -0.166 F 
ENDBRANCH  21  24
ENDBRANCH   5  18
BRANCH  10  28
HETATM   28  N1  UNK     1      31.597  -3.029  36.721  1.00  0.00    -0.379 N 
HETATM   29  H10 UNK     1      31.867  -2.723  37.647  1.00  0.00     0.158 HD
HETATM   30  H9  UNK     1      31.291  -2.356  36.032  1.00  0.00     0.158 HD
ENDBRANCH  10  28
TORSDOF 3
ENDMDL
MODEL 4
REMARK VINA RESULT:      -8.2     31.970     33.628
REMARK  3 active torsions:
REMARK  status: ('A' for Active; 'I' for Inactive)
REMARK    1  A    between atoms: C7_15  and  N1_7 
REMARK    2  A    between atoms: C1_9  and  C3_11 
REMARK    3  A    between atoms: C15_23  and  C20_28 
ROOT
HETATM    1  O1  UNK     1      32.521  -4.719  35.794  1.00  0.00    -0.291 OA
HETATM    2  O2  UNK     1      29.907  -7.839  36.762  1.00  0.00    -0.274 OA
HETATM    3  O3  UNK     1      30.935  -9.179  35.229  1.00  0.00    -0.259 OA
HETATM    4  N2  UNK     1      35.845  -6.323  32.697  1.00  0.00    -0.191 NA
HETATM    5  C1  UNK     1      32.759  -7.157  34.297  1.00  0.00     0.108 C 
HETATM    6  C2  UNK     1      31.745  -6.950  35.406  1.00  0.00     0.066 A 
HETATM    7  C4  UNK     1      31.678  -5.782  36.062  1.00  0.00     0.104 A 
HETATM    8  C5  UNK     1      33.771  -6.017  34.221  1.00  0.00     0.086 C 
HETATM    9  C6  UNK     1      30.686  -5.560  37.110  1.00  0.00     0.033 A 
HETATM   10  C7  UNK     1      33.611  -4.883  34.940  1.00  0.00     0.159 C 
HETATM   11  C8  UNK     1      30.852  -8.081  35.770  1.00  0.00     0.298 A 
HETATM   12  C9  UNK     1      29.820  -6.602  37.428  1.00  0.00     0.092 A 
HETATM   13  C12 UNK     1      30.555  -4.355  37.812  1.00  0.00     0.017 A 
HETATM   14  C16 UNK     1      28.839  -6.477  38.412  1.00  0.00     0.038 A 
HETATM   15  C17 UNK     1      34.917  -6.186  33.379  1.00  0.00     0.100 C 
HETATM   16  C18 UNK     1      29.578  -4.214  38.802  1.00  0.00     0.001 A 
HETATM   17  C19 UNK     1      28.721  -5.274  39.101  1.00  0.00     0.003 A 
ENDROOT
BRANCH   5  18
HETATM   18  C3  UNK     1      32.066  -7.319  32.974  1.00  0.00    -0.044 A 
HETATM   19  C10 UNK     1      31.170  -6.348  32.544  1.00  0.00     0.009 A 
HETATM   20  C13 UNK     1      30.527  -6.499  31.315  1.00  0.00     0.017 A 
HETATM   21  C15 UNK     1      30.785  -7.621  30.527  1.00  0.00     0.047 A 
HETATM   22  C14 UNK     1      31.686  -8.591  30.966  1.00  0.00     0.017 A 
HETATM   23  C11 UNK     1      32.329  -8.439  32.195  1.00  0.00     0.009 A 
BRANCH  21  24
HETATM   24  C20 UNK     1      30.097  -7.782  29.214  1.00  0.00     0.417 C 
HETATM   25  F1  UNK     1      29.881  -9.084  28.892  1.00  0.00    -0.166 F 
HETATM   26  F2  UNK     1      28.880  -7.176  29.181  1.00  0.00    -0.166 F 
HETATM   27  F3  UNK     1      30.826  -7.245  28.200  1.00  0.00    -0.166 F 
ENDBRANCH  21  24
ENDBRANCH   5  18
BRANCH  10  28
HETATM   28  N1  UNK     1      34.460  -3.810  34.920  1.00  0.00    -0.379 N 
HETATM   29  H10 UNK     1      34.574  -3.263  35.763  1.00  0.00     0.158 HD
HETATM   30  H9  UNK     1      34.966  -3.563  34.080  1.00  0.00     0.158 HD
ENDBRANCH  10  28
TORSDOF 3
ENDMDL
MODEL 5
REMARK VINA RESULT:      -8.1     32.076     33.983
REMARK  3 active torsions:
REMARK  status: ('A' for Active; 'I' for Inactive)
REMARK    1  A    between atoms: C7_15  and  N1_7 
REMARK    2  A    between atoms: C1_9  and  C3_11 
REMARK    3  A    between atoms: C15_23  and  C20_28 
ROOT
HETATM    1  O1  UNK     1      32.433  -8.682  33.052  1.00  0.00    -0.291 OA
HETATM    2  O2  UNK     1      29.591  -6.111  31.373  1.00  0.00    -0.274 OA
HETATM    3  O3  UNK     1      30.366  -4.403  32.669  1.00  0.00    -0.259 OA
HETATM    4  N2  UNK     1      35.350  -6.167  35.946  1.00  0.00    -0.191 NA
HETATM    5  C1  UNK     1      32.316  -5.998  34.063  1.00  0.00     0.108 C 
HETATM    6  C2  UNK     1      31.409  -6.520  32.965  1.00  0.00     0.066 A 
HETATM    7  C4  UNK     1      31.507  -7.789  32.543  1.00  0.00     0.104 A 
HETATM    8  C5  UNK     1      33.430  -6.982  34.407  1.00  0.00     0.086 C 
HETATM    9  C6  UNK     1      30.619  -8.312  31.508  1.00  0.00     0.033 A 
HETATM   10  C7  UNK     1      33.437  -8.241  33.912  1.00  0.00     0.159 C 
HETATM   11  C8  UNK     1      30.434  -5.584  32.346  1.00  0.00     0.298 A 
HETATM   12  C9  UNK     1      29.677  -7.452  30.953  1.00  0.00     0.092 A 
HETATM   13  C12 UNK     1      30.662  -9.633  31.045  1.00  0.00     0.017 A 
HETATM   14  C16 UNK     1      28.786  -7.867  29.963  1.00  0.00     0.038 A 
HETATM   15  C17 UNK     1      34.491  -6.532  35.258  1.00  0.00     0.100 C 
HETATM   16  C18 UNK     1      29.776 -10.065  30.053  1.00  0.00     0.001 A 
HETATM   17  C19 UNK     1      28.839  -9.182  29.512  1.00  0.00     0.003 A 
ENDROOT
BRANCH   5  18
HETATM   18  C3  UNK     1      31.518  -5.672  35.293  1.00  0.00    -0.044 A 
HETATM   19  C10 UNK     1      30.560  -6.571  35.749  1.00  0.00     0.009 A 
HETATM   20  C13 UNK     1      29.821  -6.268  36.892  1.00  0.00     0.017 A 
HETATM   21  C15 UNK     1      30.043  -5.069  37.570  1.00  0.00     0.047 A 
HETATM   22  C14 UNK     1      31.006  -4.174  37.106  1.00  0.00     0.017 A 
HETATM   23  C11 UNK     1      31.746  -4.477  35.963  1.00  0.00     0.009 A 
BRANCH  21  24
HETATM   24  C20 UNK     1      29.251  -4.747  38.792  1.00  0.00     0.417 C 
HETATM   25  F1  UNK     1      29.902  -3.897  39.628  1.00  0.00    -0.166 F 
HETATM   26  F2  UNK     1      28.059  -4.157  38.504  1.00  0.00    -0.166 F 
HETATM   27  F3  UNK     1      28.969  -5.864  39.512  1.00  0.00    -0.166 F 
ENDBRANCH  21  24
ENDBRANCH   5  18
BRANCH  10  28
HETATM   28  N1  UNK     1      34.387  -9.188  34.181  1.00  0.00    -0.379 N 
HETATM   29  H10 UNK     1      34.116 -10.019  34.690  1.00  0.00     0.158 HD
HETATM   30  H9  UNK     1      35.345  -9.065  33.880  1.00  0.00     0.158 HD
ENDBRANCH  10  28
TORSDOF 3
ENDMDL
MODEL 6
REMARK VINA RESULT:      -8.0      4.163      7.142
REMARK  3 active torsions:
REMARK  status: ('A' for Active; 'I' for Inactive)
REMARK    1  A    between atoms: C7_15  and  N1_7 
REMARK    2  A    between atoms: C1_9  and  C3_11 
REMARK    3  A    between atoms: C15_23  and  C20_28 
ROOT
HETATM    1  O1  UNK     1      11.188   8.986  10.155  1.00  0.00    -0.291 OA
HETATM    2  O2  UNK     1      13.066   6.051   7.840  1.00  0.00    -0.274 OA
HETATM    3  O3  UNK     1      14.998   6.359   9.012  1.00  0.00    -0.259 OA
HETATM    4  N2  UNK     1      14.171  10.409  13.660  1.00  0.00    -0.191 NA
HETATM    5  C1  UNK     1      13.973   8.496  10.647  1.00  0.00     0.108 C 
HETATM    6  C2  UNK     1      13.163   7.752   9.602  1.00  0.00     0.066 A 
HETATM    7  C4  UNK     1      11.865   8.035   9.414  1.00  0.00     0.104 A 
HETATM    8  C5  UNK     1      13.097   9.364  11.545  1.00  0.00     0.086 C 
HETATM    9  C6  UNK     1      11.082   7.347   8.392  1.00  0.00     0.033 A 
HETATM   10  C7  UNK     1      11.790   9.573  11.267  1.00  0.00     0.159 C 
HETATM   11  C8  UNK     1      13.830   6.680   8.817  1.00  0.00     0.298 A 
HETATM   12  C9  UNK     1      11.712   6.371   7.625  1.00  0.00     0.092 A 
HETATM   13  C12 UNK     1       9.732   7.617   8.136  1.00  0.00     0.017 A 
HETATM   14  C16 UNK     1      11.043   5.668   6.624  1.00  0.00     0.038 A 
HETATM   15  C17 UNK     1      13.690   9.942  12.714  1.00  0.00     0.100 C 
HETATM   16  C18 UNK     1       9.046   6.920   7.136  1.00  0.00     0.001 A 
HETATM   17  C19 UNK     1       9.702   5.947   6.381  1.00  0.00     0.003 A 
ENDROOT
BRANCH   5  18
HETATM   18  C3  UNK     1      15.030   9.337   9.990  1.00  0.00    -0.044 A 
HETATM   19  C10 UNK     1      16.353   9.222  10.403  1.00  0.00     0.009 A 
HETATM   20  C13 UNK     1      17.335  10.002   9.792  1.00  0.00     0.017 A 
HETATM   21  C15 UNK     1      16.987  10.891   8.775  1.00  0.00     0.047 A 
HETATM   22  C14 UNK     1      15.658  11.000   8.367  1.00  0.00     0.017 A 
HETATM   23  C11 UNK     1      14.676  10.219   8.978  1.00  0.00     0.009 A 
BRANCH  21  24
HETATM   24  C20 UNK     1      18.038  11.725   8.123  1.00  0.00     0.417 C 
HETATM   25  F1  UNK     1      18.574  12.645   8.967  1.00  0.00    -0.166 F 
HETATM   26  F2  UNK     1      19.080  10.986   7.657  1.00  0.00    -0.166 F 
HETATM   27  F3  UNK     1      17.541  12.411   7.061  1.00  0.00    -0.166 F 
ENDBRANCH  21  24
ENDBRANCH   5  18
BRANCH  10  28
HETATM   28  N1  UNK     1      10.940  10.346  12.010  1.00  0.00    -0.379 N 
HETATM   29  H10 UNK     1       9.995  10.488  11.677  1.00  0.00     0.158 HD
HETATM   30  H9  UNK     1      11.245  10.772  12.874  1.00  0.00     0.158 HD
ENDBRANCH  10  28
TORSDOF 3
ENDMDL
MODEL 7
REMARK VINA RESULT:      -8.0     31.323     33.066
REMARK  3 active torsions:
REMARK  status: ('A' for Active; 'I' for Inactive)
REMARK    1  A    between atoms: C7_15  and  N1_7 
REMARK    2  A    between atoms: C1_9  and  C3_11 
REMARK    3  A    between atoms: C15_23  and  C20_28 
ROOT
HETATM    1  O1  UNK     1      34.420  -6.815  32.543  1.00  0.00    -0.291 OA
HETATM    2  O2  UNK     1      32.253  -8.597  35.647  1.00  0.00    -0.274 OA
HETATM    3  O3  UNK     1      31.077  -9.822  34.126  1.00  0.00    -0.259 OA
HETATM    4  N2  UNK     1      33.222  -8.888  28.363  1.00  0.00    -0.191 NA
HETATM    5  C1  UNK     1      32.334  -8.648  31.817  1.00  0.00     0.108 C 
HETATM    6  C2  UNK     1      32.682  -8.301  33.252  1.00  0.00     0.066 A 
HETATM    7  C4  UNK     1      33.663  -7.427  33.525  1.00  0.00     0.104 A 
HETATM    8  C5  UNK     1      33.352  -8.092  30.826  1.00  0.00     0.086 C 
HETATM    9  C6  UNK     1      33.987  -7.061  34.901  1.00  0.00     0.033 A 
HETATM   10  C7  UNK     1      34.313  -7.223  31.214  1.00  0.00     0.159 C 
HETATM   11  C8  UNK     1      31.935  -8.974  34.347  1.00  0.00     0.298 A 
HETATM   12  C9  UNK     1      33.263  -7.658  35.929  1.00  0.00     0.092 A 
HETATM   13  C12 UNK     1      34.984  -6.140  35.244  1.00  0.00     0.017 A 
HETATM   14  C16 UNK     1      33.502  -7.364  37.272  1.00  0.00     0.038 A 
HETATM   15  C17 UNK     1      33.280  -8.532  29.465  1.00  0.00     0.100 C 
HETATM   16  C18 UNK     1      35.236  -5.834  36.585  1.00  0.00     0.001 A 
HETATM   17  C19 UNK     1      34.496  -6.446  37.598  1.00  0.00     0.003 A 
ENDROOT
BRANCH   5  18
HETATM   18  C3  UNK     1      30.958  -8.154  31.475  1.00  0.00    -0.044 A 
HETATM   19  C10 UNK     1      30.653  -6.807  31.634  1.00  0.00     0.009 A 
HETATM   20  C13 UNK     1      29.375  -6.347  31.315  1.00  0.00     0.017 A 
HETATM   21  C15 UNK     1      28.412  -7.239  30.842  1.00  0.00     0.047 A 
HETATM   22  C14 UNK     1      28.726  -8.588  30.686  1.00  0.00     0.017 A 
HETATM   23  C11 UNK     1      30.004  -9.048  31.004  1.00  0.00     0.009 A 
BRANCH  21  24
HETATM   24  C20 UNK     1      27.045  -6.747  30.502  1.00  0.00     0.417 C 
HETATM   25  F1  UNK     1      26.371  -6.283  31.587  1.00  0.00    -0.166 F 
HETATM   26  F2  UNK     1      27.063  -5.727  29.602  1.00  0.00    -0.166 F 
HETATM   27  F3  UNK     1      26.282  -7.732  29.960  1.00  0.00    -0.166 F 
ENDBRANCH  21  24
ENDBRANCH   5  18
BRANCH  10  28
HETATM   28  N1  UNK     1      35.252  -6.667  30.390  1.00  0.00    -0.379 N 
HETATM   29  H10 UNK     1      34.945  -6.059  29.641  1.00  0.00     0.158 HD
HETATM   30  H9  UNK     1      36.237  -6.857  30.520  1.00  0.00     0.158 HD
ENDBRANCH  10  28
TORSDOF 3
ENDMDL
MODEL 8
REMARK VINA RESULT:      -7.9      4.300      7.290
REMARK  3 active torsions:
REMARK  status: ('A' for Active; 'I' for Inactive)
REMARK    1  A    between atoms: C7_15  and  N1_7 
REMARK    2  A    between atoms: C1_9  and  C3_11 
REMARK    3  A    between atoms: C15_23  and  C20_28 
ROOT
HETATM    1  O1  UNK     1      13.234   9.562  10.377  1.00  0.00    -0.291 OA
HETATM    2  O2  UNK     1      15.962   6.523   9.464  1.00  0.00    -0.274 OA
HETATM    3  O3  UNK     1      17.687   7.888  10.064  1.00  0.00    -0.259 OA
HETATM    4  N2  UNK     1      15.585  13.283  12.336  1.00  0.00    -0.191 NA
HETATM    5  C1  UNK     1      16.027  10.170  10.635  1.00  0.00     0.108 C 
HETATM    6  C2  UNK     1      15.502   8.819  10.190  1.00  0.00     0.066 A 
HETATM    7  C4  UNK     1      14.183   8.601  10.080  1.00  0.00     0.104 A 
HETATM    8  C5  UNK     1      14.915  11.085  11.137  1.00  0.00     0.086 C 
HETATM    9  C6  UNK     1      13.666   7.314   9.623  1.00  0.00     0.033 A 
HETATM   10  C7  UNK     1      13.611  10.758  10.986  1.00  0.00     0.159 C 
HETATM   11  C8  UNK     1      16.480   7.734   9.911  1.00  0.00     0.298 A 
HETATM   12  C9  UNK     1      14.578   6.307   9.322  1.00  0.00     0.092 A 
HETATM   13  C12 UNK     1      12.302   7.037   9.468  1.00  0.00     0.017 A 
HETATM   14  C16 UNK     1      14.173   5.049   8.875  1.00  0.00     0.038 A 
HETATM   15  C17 UNK     1      15.285  12.299  11.800  1.00  0.00     0.100 C 
HETATM   16  C18 UNK     1      11.879   5.781   9.022  1.00  0.00     0.001 A 
HETATM   17  C19 UNK     1      12.814   4.788   8.725  1.00  0.00     0.003 A 
ENDROOT
BRANCH   5  18
HETATM   18  C3  UNK     1      16.777  10.837   9.517  1.00  0.00    -0.044 A 
HETATM   19  C10 UNK     1      16.111  11.164   8.342  1.00  0.00     0.009 A 
HETATM   20  C13 UNK     1      16.807  11.784   7.304  1.00  0.00     0.017 A 
HETATM   21  C15 UNK     1      18.164  12.071   7.449  1.00  0.00     0.047 A 
HETATM   22  C14 UNK     1      18.825  11.740   8.631  1.00  0.00     0.017 A 
HETATM   23  C11 UNK     1      18.129  11.120   9.670  1.00  0.00     0.009 A 
BRANCH  21  24
HETATM   24  C20 UNK     1      18.908  12.734   6.339  1.00  0.00     0.417 C 
HETATM   25  F1  UNK     1      18.372  13.934   5.994  1.00  0.00    -0.166 F 
HETATM   26  F2  UNK     1      20.210  12.974   6.649  1.00  0.00    -0.166 F 
HETATM   27  F3  UNK     1      18.910  11.970   5.215  1.00  0.00    -0.166 F 
ENDBRANCH  21  24
ENDBRANCH   5  18
BRANCH  10  28
HETATM   28  N1  UNK     1      12.554  11.526  11.393  1.00  0.00    -0.379 N 
HETATM   29  H10 UNK     1      12.171  12.208  10.751  1.00  0.00     0.158 HD
HETATM   30  H9  UNK     1      12.159  11.419  12.317  1.00  0.00     0.158 HD
ENDBRANCH  10  28
TORSDOF 3
ENDMDL
MODEL 9
REMARK VINA RESULT:      -7.9     32.788     34.613
REMARK  3 active torsions:
REMARK  status: ('A' for Active; 'I' for Inactive)
REMARK    1  A    between atoms: C7_15  and  N1_7 
REMARK    2  A    between atoms: C1_9  and  C3_11 
REMARK    3  A    between atoms: C15_23  and  C20_28 
ROOT
HETATM    1  O1  UNK     1      29.853  -9.392  32.213  1.00  0.00    -0.291 OA
HETATM    2  O2  UNK     1      30.917  -5.702  33.874  1.00  0.00    -0.274 OA
HETATM    3  O3  UNK     1      31.843  -6.771  35.662  1.00  0.00    -0.259 OA
HETATM    4  N2  UNK     1      31.672 -12.943  34.913  1.00  0.00    -0.191 NA
HETATM    5  C1  UNK     1      31.106  -9.416  34.795  1.00  0.00     0.108 C 
HETATM    6  C2  UNK     1      30.816  -8.147  34.017  1.00  0.00     0.066 A 
HETATM    7  C4  UNK     1      30.218  -8.203  32.817  1.00  0.00     0.104 A 
HETATM    8  C5  UNK     1      30.862 -10.671  33.964  1.00  0.00     0.086 C 
HETATM    9  C6  UNK     1      29.906  -6.987  32.071  1.00  0.00     0.033 A 
HETATM   10  C7  UNK     1      30.259 -10.610  32.754  1.00  0.00     0.159 C 
HETATM   11  C8  UNK     1      31.239  -6.845  34.597  1.00  0.00     0.298 A 
HETATM   12  C9  UNK     1      30.264  -5.762  32.628  1.00  0.00     0.092 A 
HETATM   13  C12 UNK     1      29.264  -6.983  30.826  1.00  0.00     0.017 A 
HETATM   14  C16 UNK     1      30.001  -4.551  31.988  1.00  0.00     0.038 A 
HETATM   15  C17 UNK     1      31.310 -11.927  34.488  1.00  0.00     0.100 C 
HETATM   16  C18 UNK     1      28.994  -5.778  30.171  1.00  0.00     0.001 A 
HETATM   17  C19 UNK     1      29.362  -4.563  30.752  1.00  0.00     0.003 A 
ENDROOT
BRANCH   5  18
HETATM   18  C3  UNK     1      30.282  -9.461  36.051  1.00  0.00    -0.044 A 
HETATM   19  C10 UNK     1      30.906  -9.678  37.274  1.00  0.00     0.009 A 
HETATM   20  C13 UNK     1      30.141  -9.718  38.440  1.00  0.00     0.017 A 
HETATM   21  C15 UNK     1      28.758  -9.544  38.373  1.00  0.00     0.047 A 
HETATM   22  C14 UNK     1      28.141  -9.327  37.142  1.00  0.00     0.017 A 
HETATM   23  C11 UNK     1      28.906  -9.286  35.976  1.00  0.00     0.009 A 
BRANCH  21  24
HETATM   24  C20 UNK     1      27.941  -9.589  39.620  1.00  0.00     0.417 C 
HETATM   25  F1  UNK     1      28.489 -10.383  40.577  1.00  0.00    -0.166 F 
HETATM   26  F2  UNK     1      27.784  -8.363  40.188  1.00  0.00    -0.166 F 
HETATM   27  F3  UNK     1      26.693 -10.070  39.381  1.00  0.00    -0.166 F 
ENDBRANCH  21  24
ENDBRANCH   5  18
BRANCH  10  28
HETATM   28  N1  UNK     1      29.991 -11.686  31.953  1.00  0.00    -0.379 N 
HETATM   29  H10 UNK     1      30.632 -12.469  31.957  1.00  0.00     0.158 HD
HETATM   30  H9  UNK     1      29.169 -11.703  31.364  1.00  0.00     0.158 HD
ENDBRANCH  10  28
TORSDOF 3
ENDMDL
MODEL 10
REMARK VINA RESULT:      -7.9     31.972     33.902
REMARK  3 active torsions:
REMARK  status: ('A' for Active; 'I' for Inactive)
REMARK    1  A    between atoms: C7_15  and  N1_7 
REMARK    2  A    between atoms: C1_9  and  C3_11 
REMARK    3  A    between atoms: C15_23  and  C20_28 
ROOT
HETATM    1  O1  UNK     1      31.398  -8.893  32.723  1.00  0.00    -0.291 OA
HETATM    2  O2  UNK     1      27.626  -7.430  31.655  1.00  0.00    -0.274 OA
HETATM    3  O3  UNK     1      27.631  -6.073  33.488  1.00  0.00    -0.259 OA
HETATM    4  N2  UNK     1      33.045  -6.439  36.527  1.00  0.00    -0.191 NA
HETATM    5  C1  UNK     1      30.157  -7.013  34.501  1.00  0.00     0.108 C 
HETATM    6  C2  UNK     1      29.518  -7.493  33.212  1.00  0.00     0.066 A 
HETATM    7  C4  UNK     1      30.147  -8.382  32.428  1.00  0.00     0.104 A 
HETATM    8  C5  UNK     1      31.608  -7.465  34.630  1.00  0.00     0.086 C 
HETATM    9  C6  UNK     1      29.530  -8.876  31.200  1.00  0.00     0.033 A 
HETATM   10  C7  UNK     1      32.147  -8.361  33.771  1.00  0.00     0.159 C 
HETATM   11  C8  UNK     1      28.198  -6.933  32.821  1.00  0.00     0.298 A 
HETATM   12  C9  UNK     1      28.276  -8.385  30.850  1.00  0.00     0.092 A 
HETATM   13  C12 UNK     1      30.129  -9.819  30.356  1.00  0.00     0.017 A 
HETATM   14  C16 UNK     1      27.611  -8.804  29.697  1.00  0.00     0.038 A 
HETATM   15  C17 UNK     1      32.403  -6.898  35.678  1.00  0.00     0.100 C 
HETATM   16  C18 UNK     1      29.476 -10.249  29.197  1.00  0.00     0.001 A 
HETATM   17  C19 UNK     1      28.218  -9.741  28.868  1.00  0.00     0.003 A 
ENDROOT
BRANCH   5  18
HETATM   18  C3  UNK     1      29.363  -7.482  35.687  1.00  0.00    -0.044 A 
HETATM   19  C10 UNK     1      29.082  -8.836  35.834  1.00  0.00     0.009 A 
HETATM   20  C13 UNK     1      28.347  -9.271  36.936  1.00  0.00     0.017 A 
HETATM   21  C15 UNK     1      27.896  -8.350  37.882  1.00  0.00     0.047 A 
HETATM   22  C14 UNK     1      28.182  -6.994  37.727  1.00  0.00     0.017 A 
HETATM   23  C11 UNK     1      28.919  -6.559  36.625  1.00  0.00     0.009 A 
BRANCH  21  24
HETATM   24  C20 UNK     1      27.109  -8.817  39.060  1.00  0.00     0.417 C 
HETATM   25  F1  UNK     1      25.839  -8.334  39.065  1.00  0.00    -0.166 F 
HETATM   26  F2  UNK     1      27.001 -10.171  39.115  1.00  0.00    -0.166 F 
HETATM   27  F3  UNK     1      27.681  -8.424  40.228  1.00  0.00    -0.166 F 
ENDBRANCH  21  24
ENDBRANCH   5  18
BRANCH  10  28
HETATM   28  N1  UNK     1      33.431  -8.829  33.824  1.00  0.00    -0.379 N 
HETATM   29  H10 UNK     1      34.123  -8.297  34.335  1.00  0.00     0.158 HD
HETATM   30  H9  UNK     1      33.690  -9.691  33.362  1.00  0.00     0.158 HD
ENDBRANCH  10  28
TORSDOF 3
ENDMDL
