MODEL 1
REMARK VINA RESULT:      -9.5      0.000      0.000
REMARK  6 active torsions:
REMARK  status: ('A' for Active; 'I' for Inactive)
REMARK    1  A    between atoms: C6_14  and  S1_1 
REMARK    2  A    between atoms: N2_8  and  S1_1 
REMARK       I    between atoms: C10_18  and  N1_7 
REMARK    3  A    between atoms: C3_11  and  N1_7 
REMARK    4  A    between atoms: C1_9  and  C2_10 
REMARK    5  A    between atoms: C1_9  and  C3_11 
REMARK    6  A    between atoms: C10_18  and  C9_17 
ROOT
HETATM    1  O2  UNK     1      18.008   2.496  28.456  1.00  0.00    -0.267 OA
HETATM    2  N1  UNK     1      19.140   3.758  30.056  1.00  0.00    -0.356 N 
HETATM    3  C10 UNK     1      18.654   2.590  29.498  1.00  0.00     0.257 C 
HETATM    4  H7  UNK     1      19.639   3.732  30.940  1.00  0.00     0.162 HD
ENDROOT
BRANCH   2   5
HETATM    5  C3  UNK     1      18.939   5.059  29.461  1.00  0.00     0.127 C 
BRANCH   5   6
HETATM    6  C1  UNK     1      19.630   6.175  30.243  1.00  0.00     0.058 C 
BRANCH   6   7
HETATM    7  C2  UNK     1      18.756   6.760  31.326  1.00  0.00    -0.057 A 
HETATM    8  C4  UNK     1      19.259   6.885  32.611  1.00  0.00     0.009 A 
HETATM    9  C7  UNK     1      18.451   7.424  33.613  1.00  0.00     0.026 A 
HETATM   10  C6  UNK     1      17.150   7.831  33.315  1.00  0.00     0.079 A 
HETATM   11  C8  UNK     1      16.658   7.699  32.017  1.00  0.00     0.026 A 
HETATM   12  C5  UNK     1      17.465   7.159  31.016  1.00  0.00     0.009 A 
BRANCH  10  13
HETATM   13  S1  UNK     1      16.139   8.504  34.569  1.00  0.00     0.256 S 
HETATM   14  O3  UNK     1      16.576   9.869  34.827  1.00  0.00    -0.201 OA
HETATM   15  O4  UNK     1      14.747   8.242  34.232  1.00  0.00    -0.201 OA
BRANCH  13  16
HETATM   16  N2  UNK     1      16.575   7.525  35.900  1.00  0.00    -0.324 N 
HETATM   17  H15 UNK     1      16.442   6.511  35.809  1.00  0.00     0.169 HD
HETATM   18  H16 UNK     1      17.415   7.789  36.431  1.00  0.00     0.169 HD
ENDBRANCH  13  16
ENDBRANCH  10  13
ENDBRANCH   6   7
ENDBRANCH   5   6
ENDBRANCH   2   5
BRANCH   3  19
HETATM   19  C9  UNK     1      18.988   1.398  30.286  1.00  0.00     0.108 A 
HETATM   20  C12 UNK     1      19.634   0.422  29.637  1.00  0.00     0.037 A 
HETATM   21  C11 UNK     1      20.007  -0.800  30.333  1.00  0.00    -0.001 A 
HETATM   22  C13 UNK     1      19.682  -0.933  31.679  1.00  0.00     0.089 A 
HETATM   23  C15 UNK     1      20.681  -1.844  29.696  1.00  0.00     0.014 A 
HETATM   24  O1  UNK     1      19.003   0.098  32.357  1.00  0.00    -0.274 OA
HETATM   25  C16 UNK     1      20.011  -2.077  32.404  1.00  0.00     0.038 A 
HETATM   26  C14 UNK     1      18.632   1.278  31.718  1.00  0.00     0.304 A 
HETATM   27  O5  UNK     1      18.040   2.170  32.315  1.00  0.00    -0.259 OA
HETATM   28  C18 UNK     1      20.683  -3.114  31.761  1.00  0.00     0.003 A 
HETATM   29  C17 UNK     1      21.018  -2.998  30.410  1.00  0.00     0.001 A 
ENDBRANCH   3  19
TORSDOF 6
ENDMDL
MODEL 2
REMARK VINA RESULT:      -9.3      1.417      2.271
REMARK  6 active torsions:
REMARK  status: ('A' for Active; 'I' for Inactive)
REMARK    1  A    between atoms: C6_14  and  S1_1 
REMARK    2  A    between atoms: N2_8  and  S1_1 
REMARK       I    between atoms: C10_18  and  N1_7 
REMARK    3  A    between atoms: C3_11  and  N1_7 
REMARK    4  A    between atoms: C1_9  and  C2_10 
REMARK    5  A    between atoms: C1_9  and  C3_11 
REMARK    6  A    between atoms: C10_18  and  C9_17 
ROOT
HETATM    1  O2  UNK     1      17.470   3.454  31.324  1.00  0.00    -0.267 OA
HETATM    2  N1  UNK     1      19.229   4.263  30.025  1.00  0.00    -0.356 N 
HETATM    3  C10 UNK     1      18.441   3.277  30.590  1.00  0.00     0.257 C 
HETATM    4  H7  UNK     1      20.029   4.011  29.454  1.00  0.00     0.162 HD
ENDROOT
BRANCH   2   5
HETATM    5  C3  UNK     1      18.999   5.673  30.238  1.00  0.00     0.127 C 
BRANCH   5   6
HETATM    6  C1  UNK     1      19.384   6.124  31.645  1.00  0.00     0.058 C 
BRANCH   6   7
HETATM    7  C2  UNK     1      18.385   7.080  32.250  1.00  0.00    -0.057 A 
HETATM    8  C4  UNK     1      17.123   7.189  31.688  1.00  0.00     0.009 A 
HETATM    9  C7  UNK     1      16.199   8.075  32.246  1.00  0.00     0.026 A 
HETATM   10  C6  UNK     1      16.552   8.840  33.357  1.00  0.00     0.079 A 
HETATM   11  C8  UNK     1      17.826   8.720  33.911  1.00  0.00     0.026 A 
HETATM   12  C5  UNK     1      18.749   7.836  33.354  1.00  0.00     0.009 A 
BRANCH  10  13
HETATM   13  S1  UNK     1      15.397   9.949  34.054  1.00  0.00     0.256 S 
HETATM   14  O3  UNK     1      15.993  10.546  35.241  1.00  0.00    -0.201 OA
HETATM   15  O4  UNK     1      14.879  10.804  32.995  1.00  0.00    -0.201 OA
BRANCH  13  16
HETATM   16  N2  UNK     1      14.164   8.870  34.541  1.00  0.00    -0.324 N 
HETATM   17  H15 UNK     1      14.396   8.174  35.259  1.00  0.00     0.169 HD
HETATM   18  H16 UNK     1      13.208   9.241  34.614  1.00  0.00     0.169 HD
ENDBRANCH  13  16
ENDBRANCH  10  13
ENDBRANCH   6   7
ENDBRANCH   5   6
ENDBRANCH   2   5
BRANCH   3  19
HETATM   19  C9  UNK     1      18.871   1.922  30.225  1.00  0.00     0.108 A 
HETATM   20  C12 UNK     1      19.394   1.181  31.210  1.00  0.00     0.037 A 
HETATM   21  C11 UNK     1      19.850  -0.174  30.945  1.00  0.00    -0.001 A 
HETATM   22  C13 UNK     1      19.732  -0.684  29.656  1.00  0.00     0.089 A 
HETATM   23  C15 UNK     1      20.401  -0.982  31.941  1.00  0.00     0.014 A 
HETATM   24  O1  UNK     1      19.180   0.100  28.624  1.00  0.00    -0.274 OA
HETATM   25  C16 UNK     1      20.150  -1.974  29.336  1.00  0.00     0.038 A 
HETATM   26  C14 UNK     1      18.736   1.400  28.846  1.00  0.00     0.304 A 
HETATM   27  O5  UNK     1      18.257   2.076  27.942  1.00  0.00    -0.259 OA
HETATM   28  C18 UNK     1      20.699  -2.774  30.336  1.00  0.00     0.003 A 
HETATM   29  C17 UNK     1      20.825  -2.280  31.636  1.00  0.00     0.001 A 
ENDBRANCH   3  19
TORSDOF 6
ENDMDL
MODEL 3
REMARK VINA RESULT:      -9.3      1.636      2.152
REMARK  6 active torsions:
REMARK  status: ('A' for Active; 'I' for Inactive)
REMARK    1  A    between atoms: C6_14  and  S1_1 
REMARK    2  A    between atoms: N2_8  and  S1_1 
REMARK       I    between atoms: C10_18  and  N1_7 
REMARK    3  A    between atoms: C3_11  and  N1_7 
REMARK    4  A    between atoms: C1_9  and  C2_10 
REMARK    5  A    between atoms: C1_9  and  C3_11 
REMARK    6  A    between atoms: C10_18  and  C9_17 
ROOT
HETATM    1  O2  UNK     1      17.268   4.076  31.711  1.00  0.00    -0.267 OA
HETATM    2  N1  UNK     1      19.368   4.442  30.766  1.00  0.00    -0.356 N 
HETATM    3  C10 UNK     1      18.362   3.672  31.320  1.00  0.00     0.257 C 
HETATM    4  H7  UNK     1      20.250   4.015  30.501  1.00  0.00     0.162 HD
ENDROOT
BRANCH   2   5
HETATM    5  C3  UNK     1      19.252   5.869  30.572  1.00  0.00     0.127 C 
BRANCH   5   6
HETATM    6  C1  UNK     1      19.410   6.652  31.874  1.00  0.00     0.058 C 
BRANCH   6   7
HETATM    7  C2  UNK     1      18.165   7.417  32.253  1.00  0.00    -0.057 A 
HETATM    8  C4  UNK     1      17.104   7.474  31.363  1.00  0.00     0.009 A 
HETATM    9  C7  UNK     1      15.954   8.183  31.713  1.00  0.00     0.026 A 
HETATM   10  C6  UNK     1      15.882   8.827  32.949  1.00  0.00     0.079 A 
HETATM   11  C8  UNK     1      16.957   8.761  33.834  1.00  0.00     0.026 A 
HETATM   12  C5  UNK     1      18.107   8.053  33.484  1.00  0.00     0.009 A 
BRANCH  10  13
HETATM   13  S1  UNK     1      14.444   9.715  33.386  1.00  0.00     0.256 S 
HETATM   14  O3  UNK     1      14.242   9.582  34.822  1.00  0.00    -0.201 OA
HETATM   15  O4  UNK     1      14.516  11.039  32.784  1.00  0.00    -0.201 OA
BRANCH  13  16
HETATM   16  N2  UNK     1      13.243   8.808  32.575  1.00  0.00    -0.324 N 
HETATM   17  H15 UNK     1      13.458   7.831  32.344  1.00  0.00     0.169 HD
HETATM   18  H16 UNK     1      12.263   8.966  32.844  1.00  0.00     0.169 HD
ENDBRANCH  13  16
ENDBRANCH  10  13
ENDBRANCH   6   7
ENDBRANCH   5   6
ENDBRANCH   2   5
BRANCH   3  19
HETATM   19  C9  UNK     1      18.715   2.250  31.411  1.00  0.00     0.108 A 
HETATM   20  C12 UNK     1      19.333   1.724  30.347  1.00  0.00     0.037 A 
HETATM   21  C11 UNK     1      19.721   0.323  30.343  1.00  0.00    -0.001 A 
HETATM   22  C13 UNK     1      19.439  -0.457  31.460  1.00  0.00     0.089 A 
HETATM   23  C15 UNK     1      20.368  -0.268  29.256  1.00  0.00     0.014 A 
HETATM   24  O1  UNK     1      18.789   0.102  32.578  1.00  0.00    -0.274 OA
HETATM   25  C16 UNK     1      19.784  -1.806  31.520  1.00  0.00     0.038 A 
HETATM   26  C14 UNK     1      18.405   1.439  32.611  1.00  0.00     0.304 A 
HETATM   27  O5  UNK     1      17.838   1.918  33.587  1.00  0.00    -0.259 OA
HETATM   28  C18 UNK     1      20.430  -2.388  30.431  1.00  0.00     0.003 A 
HETATM   29  C17 UNK     1      20.721  -1.621  29.301  1.00  0.00     0.001 A 
ENDBRANCH   3  19
TORSDOF 6
ENDMDL
MODEL 4
REMARK VINA RESULT:      -9.0      6.646     10.971
REMARK  6 active torsions:
REMARK  status: ('A' for Active; 'I' for Inactive)
REMARK    1  A    between atoms: C6_14  and  S1_1 
REMARK    2  A    between atoms: N2_8  and  S1_1 
REMARK       I    between atoms: C10_18  and  N1_7 
REMARK    3  A    between atoms: C3_11  and  N1_7 
REMARK    4  A    between atoms: C1_9  and  C2_10 
REMARK    5  A    between atoms: C1_9  and  C3_11 
REMARK    6  A    between atoms: C10_18  and  C9_17 
ROOT
HETATM    1  O2  UNK     1      17.238  -0.506  35.621  1.00  0.00    -0.267 OA
HETATM    2  N1  UNK     1      19.002  -2.022  35.469  1.00  0.00    -0.356 N 
HETATM    3  C10 UNK     1      18.181  -1.008  35.012  1.00  0.00     0.257 C 
HETATM    4  H7  UNK     1      19.739  -2.389  34.875  1.00  0.00     0.162 HD
ENDROOT
BRANCH   2   5
HETATM    5  C3  UNK     1      18.845  -2.639  36.766  1.00  0.00     0.127 C 
BRANCH   5   6
HETATM    6  C1  UNK     1      20.173  -3.113  37.355  1.00  0.00     0.058 C 
BRANCH   6   7
HETATM    7  C2  UNK     1      20.438  -4.577  37.102  1.00  0.00    -0.057 A 
HETATM    8  C4  UNK     1      21.304  -5.266  37.937  1.00  0.00     0.009 A 
HETATM    9  C7  UNK     1      21.551  -6.619  37.701  1.00  0.00     0.026 A 
HETATM   10  C6  UNK     1      20.929  -7.265  36.633  1.00  0.00     0.079 A 
HETATM   11  C8  UNK     1      20.060  -6.559  35.801  1.00  0.00     0.026 A 
HETATM   12  C5  UNK     1      19.814  -5.207  36.036  1.00  0.00     0.009 A 
BRANCH  10  13
HETATM   13  S1  UNK     1      21.239  -8.957  36.337  1.00  0.00     0.256 S 
HETATM   14  O3  UNK     1      20.142  -9.730  36.903  1.00  0.00    -0.201 OA
HETATM   15  O4  UNK     1      21.595  -9.126  34.936  1.00  0.00    -0.201 OA
BRANCH  13  16
HETATM   16  N2  UNK     1      22.635  -9.203  37.292  1.00  0.00    -0.324 N 
HETATM   17  H15 UNK     1      23.149  -8.373  37.608  1.00  0.00     0.169 HD
HETATM   18  H16 UNK     1      22.613  -9.966  37.981  1.00  0.00     0.169 HD
ENDBRANCH  13  16
ENDBRANCH  10  13
ENDBRANCH   6   7
ENDBRANCH   5   6
ENDBRANCH   2   5
BRANCH   3  19
HETATM   19  C9  UNK     1      18.541  -0.543  33.667  1.00  0.00     0.108 A 
HETATM   20  C12 UNK     1      19.185  -1.422  32.890  1.00  0.00     0.037 A 
HETATM   21  C11 UNK     1      19.584  -1.053  31.541  1.00  0.00    -0.001 A 
HETATM   22  C13 UNK     1      19.284   0.224  31.076  1.00  0.00     0.089 A 
HETATM   23  C15 UNK     1      20.257  -1.937  30.696  1.00  0.00     0.014 A 
HETATM   24  O1  UNK     1      18.605   1.144  31.898  1.00  0.00    -0.274 OA
HETATM   25  C16 UNK     1      19.639   0.639  29.794  1.00  0.00     0.038 A 
HETATM   26  C14 UNK     1      18.211   0.820  33.193  1.00  0.00     0.304 A 
HETATM   27  O5  UNK     1      17.621   1.628  33.903  1.00  0.00    -0.259 OA
HETATM   28  C18 UNK     1      20.310  -0.248  28.957  1.00  0.00     0.003 A 
HETATM   29  C17 UNK     1      20.619  -1.534  29.406  1.00  0.00     0.001 A 
ENDBRANCH   3  19
TORSDOF 6
ENDMDL
MODEL 5
REMARK VINA RESULT:      -9.0      2.470      3.239
REMARK  6 active torsions:
REMARK  status: ('A' for Active; 'I' for Inactive)
REMARK    1  A    between atoms: C6_14  and  S1_1 
REMARK    2  A    between atoms: N2_8  and  S1_1 
REMARK       I    between atoms: C10_18  and  N1_7 
REMARK    3  A    between atoms: C3_11  and  N1_7 
REMARK    4  A    between atoms: C1_9  and  C2_10 
REMARK    5  A    between atoms: C1_9  and  C3_11 
REMARK    6  A    between atoms: C10_18  and  C9_17 
ROOT
HETATM    1  O2  UNK     1      17.506   4.354  31.101  1.00  0.00    -0.267 OA
HETATM    2  N1  UNK     1      18.235   4.343  33.315  1.00  0.00    -0.356 N 
HETATM    3  C10 UNK     1      18.014   3.789  32.068  1.00  0.00     0.257 C 
HETATM    4  H7  UNK     1      18.635   3.781  34.059  1.00  0.00     0.162 HD
ENDROOT
BRANCH   2   5
HETATM    5  C3  UNK     1      17.881   5.704  33.647  1.00  0.00     0.127 C 
BRANCH   5   6
HETATM    6  C1  UNK     1      19.061   6.498  34.203  1.00  0.00     0.058 C 
BRANCH   6   7
HETATM    7  C2  UNK     1      18.844   7.990  34.147  1.00  0.00    -0.057 A 
HETATM    8  C4  UNK     1      17.569   8.483  33.915  1.00  0.00     0.009 A 
HETATM    9  C7  UNK     1      17.369   9.863  33.862  1.00  0.00     0.026 A 
HETATM   10  C6  UNK     1      18.445  10.732  34.041  1.00  0.00     0.079 A 
HETATM   11  C8  UNK     1      19.722  10.221  34.273  1.00  0.00     0.026 A 
HETATM   12  C5  UNK     1      19.923   8.842  34.326  1.00  0.00     0.009 A 
BRANCH  10  13
HETATM   13  S1  UNK     1      18.194  12.458  33.973  1.00  0.00     0.256 S 
HETATM   14  O3  UNK     1      18.874  12.974  32.793  1.00  0.00    -0.201 OA
HETATM   15  O4  UNK     1      16.777  12.728  34.168  1.00  0.00    -0.201 OA
BRANCH  13  16
HETATM   16  N2  UNK     1      19.046  12.965  35.365  1.00  0.00    -0.324 N 
HETATM   17  H15 UNK     1      19.682  13.765  35.269  1.00  0.00     0.169 HD
HETATM   18  H16 UNK     1      18.550  12.933  36.265  1.00  0.00     0.169 HD
ENDBRANCH  13  16
ENDBRANCH  10  13
ENDBRANCH   6   7
ENDBRANCH   5   6
ENDBRANCH   2   5
BRANCH   3  19
HETATM   19  C9  UNK     1      18.460   2.394  31.974  1.00  0.00     0.108 A 
HETATM   20  C12 UNK     1      18.953   2.007  30.792  1.00  0.00     0.037 A 
HETATM   21  C11 UNK     1      19.419   0.643  30.602  1.00  0.00    -0.001 A 
HETATM   22  C13 UNK     1      19.345  -0.249  31.668  1.00  0.00     0.089 A 
HETATM   23  C15 UNK     1      19.941   0.196  29.386  1.00  0.00     0.014 A 
HETATM   24  O1  UNK     1      18.827   0.165  32.911  1.00  0.00    -0.274 OA
HETATM   25  C16 UNK     1      19.775  -1.569  31.552  1.00  0.00     0.038 A 
HETATM   26  C14 UNK     1      18.372   1.462  33.123  1.00  0.00     0.304 A 
HETATM   27  O5  UNK     1      17.921   1.813  34.208  1.00  0.00    -0.259 OA
HETATM   28  C18 UNK     1      20.294  -2.006  30.335  1.00  0.00     0.003 A 
HETATM   29  C17 UNK     1      20.377  -1.126  29.254  1.00  0.00     0.001 A 
ENDBRANCH   3  19
TORSDOF 6
ENDMDL
MODEL 6
REMARK VINA RESULT:      -8.9      3.116      4.685
REMARK  6 active torsions:
REMARK  status: ('A' for Active; 'I' for Inactive)
REMARK    1  A    between atoms: C6_14  and  S1_1 
REMARK    2  A    between atoms: N2_8  and  S1_1 
REMARK       I    between atoms: C10_18  and  N1_7 
REMARK    3  A    between atoms: C3_11  and  N1_7 
REMARK    4  A    between atoms: C1_9  and  C2_10 
REMARK    5  A    between atoms: C1_9  and  C3_11 
REMARK    6  A    between atoms: C10_18  and  C9_17 
ROOT
HETATM    1  O2  UNK     1      19.778  -2.084  30.496  1.00  0.00    -0.267 OA
HETATM    2  N1  UNK     1      19.657   0.177  31.048  1.00  0.00    -0.356 N 
HETATM    3  C10 UNK     1      19.681  -1.178  31.321  1.00  0.00     0.257 C 
HETATM    4  H7  UNK     1      19.544   0.848  31.801  1.00  0.00     0.162 HD
ENDROOT
BRANCH   2   5
HETATM    5  C3  UNK     1      19.747   0.713  29.709  1.00  0.00     0.127 C 
BRANCH   5   6
HETATM    6  C1  UNK     1      18.608   1.679  29.387  1.00  0.00     0.058 C 
BRANCH   6   7
HETATM    7  C2  UNK     1      18.611   2.905  30.266  1.00  0.00    -0.057 A 
HETATM    8  C4  UNK     1      18.988   4.126  29.728  1.00  0.00     0.009 A 
HETATM    9  C7  UNK     1      18.993   5.260  30.542  1.00  0.00     0.026 A 
HETATM   10  C6  UNK     1      18.622   5.157  31.883  1.00  0.00     0.079 A 
HETATM   11  C8  UNK     1      18.246   3.922  32.410  1.00  0.00     0.026 A 
HETATM   12  C5  UNK     1      18.241   2.789  31.597  1.00  0.00     0.009 A 
BRANCH  10  13
HETATM   13  S1  UNK     1      18.630   6.575  32.900  1.00  0.00     0.256 S 
HETATM   14  O3  UNK     1      20.008   6.863  33.275  1.00  0.00    -0.201 OA
HETATM   15  O4  UNK     1      17.823   7.607  32.264  1.00  0.00    -0.201 OA
BRANCH  13  16
HETATM   16  N2  UNK     1      17.795   5.994  34.274  1.00  0.00    -0.324 N 
HETATM   17  H15 UNK     1      16.773   6.092  34.287  1.00  0.00     0.169 HD
HETATM   18  H16 UNK     1      18.136   5.127  34.707  1.00  0.00     0.169 HD
ENDBRANCH  13  16
ENDBRANCH  10  13
ENDBRANCH   6   7
ENDBRANCH   5   6
ENDBRANCH   2   5
BRANCH   3  19
HETATM   19  C9  UNK     1      19.578  -1.474  32.755  1.00  0.00     0.108 A 
HETATM   20  C12 UNK     1      18.653  -0.787  33.437  1.00  0.00     0.037 A 
HETATM   21  C11 UNK     1      18.478  -1.010  34.863  1.00  0.00    -0.001 A 
HETATM   22  C13 UNK     1      19.284  -1.947  35.502  1.00  0.00     0.089 A 
HETATM   23  C15 UNK     1      17.526  -0.317  35.614  1.00  0.00     0.014 A 
HETATM   24  O1  UNK     1      20.255  -2.668  34.779  1.00  0.00    -0.274 OA
HETATM   25  C16 UNK     1      19.166  -2.208  36.866  1.00  0.00     0.038 A 
HETATM   26  C14 UNK     1      20.447  -2.476  33.414  1.00  0.00     0.304 A 
HETATM   27  O5  UNK     1      21.295  -3.106  32.793  1.00  0.00    -0.259 OA
HETATM   28  C18 UNK     1      18.214  -1.512  37.608  1.00  0.00     0.003 A 
HETATM   29  C17 UNK     1      17.396  -0.568  36.983  1.00  0.00     0.001 A 
ENDBRANCH   3  19
TORSDOF 6
ENDMDL
MODEL 7
REMARK VINA RESULT:      -8.9      2.934      4.134
REMARK  6 active torsions:
REMARK  status: ('A' for Active; 'I' for Inactive)
REMARK    1  A    between atoms: C6_14  and  S1_1 
REMARK    2  A    between atoms: N2_8  and  S1_1 
REMARK       I    between atoms: C10_18  and  N1_7 
REMARK    3  A    between atoms: C3_11  and  N1_7 
REMARK    4  A    between atoms: C1_9  and  C2_10 
REMARK    5  A    between atoms: C1_9  and  C3_11 
REMARK    6  A    between atoms: C10_18  and  C9_17 
ROOT
HETATM    1  O2  UNK     1      19.741   0.732  30.997  1.00  0.00    -0.267 OA
HETATM    2  N1  UNK     1      17.963   2.180  31.418  1.00  0.00    -0.356 N 
HETATM    3  C10 UNK     1      18.844   1.159  31.722  1.00  0.00     0.257 C 
HETATM    4  H7  UNK     1      17.235   2.439  32.077  1.00  0.00     0.162 HD
ENDROOT
BRANCH   2   5
HETATM    5  C3  UNK     1      17.988   2.895  30.163  1.00  0.00     0.127 C 
BRANCH   5   6
HETATM    6  C1  UNK     1      19.013   4.028  30.154  1.00  0.00     0.058 C 
BRANCH   6   7
HETATM    7  C2  UNK     1      18.803   5.018  31.274  1.00  0.00    -0.057 A 
HETATM    8  C4  UNK     1      17.548   5.140  31.848  1.00  0.00     0.009 A 
HETATM    9  C7  UNK     1      17.353   6.057  32.881  1.00  0.00     0.026 A 
HETATM   10  C6  UNK     1      18.418   6.841  33.326  1.00  0.00     0.079 A 
HETATM   11  C8  UNK     1      19.676   6.708  32.739  1.00  0.00     0.026 A 
HETATM   12  C5  UNK     1      19.870   5.792  31.705  1.00  0.00     0.009 A 
BRANCH  10  13
HETATM   13  S1  UNK     1      18.174   7.989  34.618  1.00  0.00     0.256 S 
HETATM   14  O3  UNK     1      19.299   7.890  35.538  1.00  0.00    -0.201 OA
HETATM   15  O4  UNK     1      17.828   9.278  34.035  1.00  0.00    -0.201 OA
BRANCH  13  16
HETATM   16  N2  UNK     1      16.786   7.339  35.374  1.00  0.00    -0.324 N 
HETATM   17  H15 UNK     1      16.016   7.029  34.770  1.00  0.00     0.169 HD
HETATM   18  H16 UNK     1      16.928   6.749  36.204  1.00  0.00     0.169 HD
ENDBRANCH  13  16
ENDBRANCH  10  13
ENDBRANCH   6   7
ENDBRANCH   5   6
ENDBRANCH   2   5
BRANCH   3  19
HETATM   19  C9  UNK     1      18.621   0.589  33.056  1.00  0.00     0.108 A 
HETATM   20  C12 UNK     1      18.349   1.461  34.035  1.00  0.00     0.037 A 
HETATM   21  C11 UNK     1      18.115   0.992  35.391  1.00  0.00    -0.001 A 
HETATM   22  C13 UNK     1      18.176  -0.374  35.651  1.00  0.00     0.089 A 
HETATM   23  C15 UNK     1      17.828   1.865  36.442  1.00  0.00     0.014 A 
HETATM   24  O1  UNK     1      18.461  -1.287  34.617  1.00  0.00    -0.274 OA
HETATM   25  C16 UNK     1      17.961  -0.888  36.928  1.00  0.00     0.038 A 
HETATM   26  C14 UNK     1      18.692  -0.868  33.310  1.00  0.00     0.304 A 
HETATM   27  O5  UNK     1      18.941  -1.670  32.416  1.00  0.00    -0.259 OA
HETATM   28  C18 UNK     1      17.676  -0.010  37.971  1.00  0.00     0.003 A 
HETATM   29  C17 UNK     1      17.609   1.364  37.729  1.00  0.00     0.001 A 
ENDBRANCH   3  19
TORSDOF 6
ENDMDL
MODEL 8
REMARK VINA RESULT:      -8.6     13.612     15.890
REMARK  6 active torsions:
REMARK  status: ('A' for Active; 'I' for Inactive)
REMARK    1  A    between atoms: C6_14  and  S1_1 
REMARK    2  A    between atoms: N2_8  and  S1_1 
REMARK       I    between atoms: C10_18  and  N1_7 
REMARK    3  A    between atoms: C3_11  and  N1_7 
REMARK    4  A    between atoms: C1_9  and  C2_10 
REMARK    5  A    between atoms: C1_9  and  C3_11 
REMARK    6  A    between atoms: C10_18  and  C9_17 
ROOT
HETATM    1  O2  UNK     1      24.075 -11.533  35.900  1.00  0.00    -0.267 OA
HETATM    2  N1  UNK     1      25.030  -9.636  36.860  1.00  0.00    -0.356 N 
HETATM    3  C10 UNK     1      23.990 -10.393  36.352  1.00  0.00     0.257 C 
HETATM    4  H7  UNK     1      24.861  -8.688  37.183  1.00  0.00     0.162 HD
ENDROOT
BRANCH   2   5
HETATM    5  C3  UNK     1      26.393 -10.111  36.923  1.00  0.00     0.127 C 
BRANCH   5   6
HETATM    6  C1  UNK     1      27.014  -9.930  38.307  1.00  0.00     0.058 C 
BRANCH   6   7
HETATM    7  C2  UNK     1      27.793  -8.645  38.438  1.00  0.00    -0.057 A 
HETATM    8  C4  UNK     1      27.221  -7.566  39.093  1.00  0.00     0.009 A 
HETATM    9  C7  UNK     1      27.941  -6.377  39.212  1.00  0.00     0.026 A 
HETATM   10  C6  UNK     1      29.224  -6.282  38.674  1.00  0.00     0.079 A 
HETATM   11  C8  UNK     1      29.788  -7.376  38.017  1.00  0.00     0.026 A 
HETATM   12  C5  UNK     1      29.068  -8.565  37.898  1.00  0.00     0.009 A 
BRANCH  10  13
HETATM   13  S1  UNK     1      30.124  -4.794  38.823  1.00  0.00     0.256 S 
HETATM   14  O3  UNK     1      29.483  -3.969  39.837  1.00  0.00    -0.201 OA
HETATM   15  O4  UNK     1      31.539  -5.118  38.942  1.00  0.00    -0.201 OA
BRANCH  13  16
HETATM   16  N2  UNK     1      29.850  -4.093  37.288  1.00  0.00    -0.324 N 
HETATM   17  H15 UNK     1      28.944  -3.637  37.128  1.00  0.00     0.169 HD
HETATM   18  H16 UNK     1      30.640  -3.620  36.832  1.00  0.00     0.169 HD
ENDBRANCH  13  16
ENDBRANCH  10  13
ENDBRANCH   6   7
ENDBRANCH   5   6
ENDBRANCH   2   5
BRANCH   3  19
HETATM   19  C9  UNK     1      22.700  -9.694  36.396  1.00  0.00     0.108 A 
HETATM   20  C12 UNK     1      22.448  -8.986  37.503  1.00  0.00     0.037 A 
HETATM   21  C11 UNK     1      21.195  -8.261  37.641  1.00  0.00    -0.001 A 
HETATM   22  C13 UNK     1      20.268  -8.316  36.604  1.00  0.00     0.089 A 
HETATM   23  C15 UNK     1      20.890  -7.509  38.777  1.00  0.00     0.014 A 
HETATM   24  O1  UNK     1      20.540  -9.062  35.441  1.00  0.00    -0.274 OA
HETATM   25  C16 UNK     1      19.050  -7.644  36.673  1.00  0.00     0.038 A 
HETATM   26  C14 UNK     1      21.729  -9.767  35.281  1.00  0.00     0.304 A 
HETATM   27  O5  UNK     1      21.956 -10.416  34.265  1.00  0.00    -0.259 OA
HETATM   28  C18 UNK     1      18.753  -6.896  37.811  1.00  0.00     0.003 A 
HETATM   29  C17 UNK     1      19.671  -6.829  38.861  1.00  0.00     0.001 A 
ENDBRANCH   3  19
TORSDOF 6
ENDMDL
MODEL 9
REMARK VINA RESULT:      -8.6      3.090      4.091
REMARK  6 active torsions:
REMARK  status: ('A' for Active; 'I' for Inactive)
REMARK    1  A    between atoms: C6_14  and  S1_1 
REMARK    2  A    between atoms: N2_8  and  S1_1 
REMARK       I    between atoms: C10_18  and  N1_7 
REMARK    3  A    between atoms: C3_11  and  N1_7 
REMARK    4  A    between atoms: C1_9  and  C2_10 
REMARK    5  A    between atoms: C1_9  and  C3_11 
REMARK    6  A    between atoms: C10_18  and  C9_17 
ROOT
HETATM    1  O2  UNK     1      19.401   0.888  31.564  1.00  0.00    -0.267 OA
HETATM    2  N1  UNK     1      17.963   2.720  31.668  1.00  0.00    -0.356 N 
HETATM    3  C10 UNK     1      18.653   1.640  32.186  1.00  0.00     0.257 C 
HETATM    4  H7  UNK     1      17.344   3.263  32.262  1.00  0.00     0.162 HD
ENDROOT
BRANCH   2   5
HETATM    5  C3  UNK     1      18.039   3.111  30.279  1.00  0.00     0.127 C 
BRANCH   5   6
HETATM    6  C1  UNK     1      19.025   4.255  30.045  1.00  0.00     0.058 C 
BRANCH   6   7
HETATM    7  C2  UNK     1      18.885   5.367  31.056  1.00  0.00    -0.057 A 
HETATM    8  C4  UNK     1      17.678   6.039  31.164  1.00  0.00     0.009 A 
HETATM    9  C7  UNK     1      17.550   7.069  32.097  1.00  0.00     0.026 A 
HETATM   10  C6  UNK     1      18.631   7.413  32.909  1.00  0.00     0.079 A 
HETATM   11  C8  UNK     1      19.840   6.727  32.789  1.00  0.00     0.026 A 
HETATM   12  C5  UNK     1      19.968   5.698  31.856  1.00  0.00     0.009 A 
BRANCH  10  13
HETATM   13  S1  UNK     1      18.471   8.701  34.075  1.00  0.00     0.256 S 
HETATM   14  O3  UNK     1      17.994   9.890  33.383  1.00  0.00    -0.201 OA
HETATM   15  O4  UNK     1      17.740   8.194  35.229  1.00  0.00    -0.201 OA
BRANCH  13  16
HETATM   16  N2  UNK     1      20.103   8.941  34.521  1.00  0.00    -0.324 N 
HETATM   17  H15 UNK     1      20.594   9.746  34.115  1.00  0.00     0.169 HD
HETATM   18  H16 UNK     1      20.365   8.742  35.495  1.00  0.00     0.169 HD
ENDBRANCH  13  16
ENDBRANCH  10  13
ENDBRANCH   6   7
ENDBRANCH   5   6
ENDBRANCH   2   5
BRANCH   3  19
HETATM   19  C9  UNK     1      18.416   1.445  33.622  1.00  0.00     0.108 A 
HETATM   20  C12 UNK     1      18.347   0.177  34.044  1.00  0.00     0.037 A 
HETATM   21  C11 UNK     1      18.114  -0.116  35.449  1.00  0.00    -0.001 A 
HETATM   22  C13 UNK     1      17.965   0.941  36.342  1.00  0.00     0.089 A 
HETATM   23  C15 UNK     1      18.035  -1.423  35.934  1.00  0.00     0.014 A 
HETATM   24  O1  UNK     1      18.039   2.273  35.892  1.00  0.00    -0.274 OA
HETATM   25  C16 UNK     1      17.739   0.728  37.700  1.00  0.00     0.038 A 
HETATM   26  C14 UNK     1      18.261   2.586  34.554  1.00  0.00     0.304 A 
HETATM   27  O5  UNK     1      18.323   3.749  34.170  1.00  0.00    -0.259 OA
HETATM   28  C18 UNK     1      17.662  -0.579  38.176  1.00  0.00     0.003 A 
HETATM   29  C17 UNK     1      17.809  -1.653  37.295  1.00  0.00     0.001 A 
ENDBRANCH   3  19
TORSDOF 6
ENDMDL
MODEL 10
REMARK VINA RESULT:      -8.5      6.131      9.309
REMARK  6 active torsions:
REMARK  status: ('A' for Active; 'I' for Inactive)
REMARK    1  A    between atoms: C6_14  and  S1_1 
REMARK    2  A    between atoms: N2_8  and  S1_1 
REMARK       I    between atoms: C10_18  and  N1_7 
REMARK    3  A    between atoms: C3_11  and  N1_7 
REMARK    4  A    between atoms: C1_9  and  C2_10 
REMARK    5  A    between atoms: C1_9  and  C3_11 
REMARK    6  A    between atoms: C10_18  and  C9_17 
ROOT
HETATM    1  O2  UNK     1      21.328  -3.661  37.679  1.00  0.00    -0.267 OA
HETATM    2  N1  UNK     1      19.778  -3.455  35.950  1.00  0.00    -0.356 N 
HETATM    3  C10 UNK     1      20.528  -4.148  36.882  1.00  0.00     0.257 C 
HETATM    4  H7  UNK     1      19.164  -3.956  35.315  1.00  0.00     0.162 HD
ENDROOT
BRANCH   2   5
HETATM    5  C3  UNK     1      19.848  -2.021  35.791  1.00  0.00     0.127 C 
BRANCH   5   6
HETATM    6  C1  UNK     1      18.520  -1.415  35.339  1.00  0.00     0.058 C 
BRANCH   6   7
HETATM    7  C2  UNK     1      18.620  -0.707  34.011  1.00  0.00    -0.057 A 
HETATM    8  C4  UNK     1      18.253   0.627  33.922  1.00  0.00     0.009 A 
HETATM    9  C7  UNK     1      18.343   1.281  32.693  1.00  0.00     0.026 A 
HETATM   10  C6  UNK     1      18.798   0.593  31.568  1.00  0.00     0.079 A 
HETATM   11  C8  UNK     1      19.164  -0.749  31.673  1.00  0.00     0.026 A 
HETATM   12  C5  UNK     1      19.074  -1.403  32.901  1.00  0.00     0.009 A 
BRANCH  10  13
HETATM   13  S1  UNK     1      18.910   1.412  30.031  1.00  0.00     0.256 S 
HETATM   14  O3  UNK     1      19.972   0.788  29.255  1.00  0.00    -0.201 OA
HETATM   15  O4  UNK     1      17.572   1.524  29.467  1.00  0.00    -0.201 OA
BRANCH  13  16
HETATM   16  N2  UNK     1      19.428   2.964  30.526  1.00  0.00    -0.324 N 
HETATM   17  H15 UNK     1      20.407   3.068  30.820  1.00  0.00     0.169 HD
HETATM   18  H16 UNK     1      19.058   3.775  30.014  1.00  0.00     0.169 HD
ENDBRANCH  13  16
ENDBRANCH  10  13
ENDBRANCH   6   7
ENDBRANCH   5   6
ENDBRANCH   2   5
BRANCH   3  19
HETATM   19  C9  UNK     1      20.281  -5.595  36.853  1.00  0.00     0.108 A 
HETATM   20  C12 UNK     1      20.175  -6.201  38.041  1.00  0.00     0.037 A 
HETATM   21  C11 UNK     1      19.932  -7.633  38.114  1.00  0.00    -0.001 A 
HETATM   22  C13 UNK     1      19.812  -8.357  36.932  1.00  0.00     0.089 A 
HETATM   23  C15 UNK     1      19.813  -8.307  39.331  1.00  0.00     0.014 A 
HETATM   24  O1  UNK     1      19.924  -7.713  35.684  1.00  0.00    -0.274 OA
HETATM   25  C16 UNK     1      19.579  -9.731  36.933  1.00  0.00     0.038 A 
HETATM   26  C14 UNK     1      20.157  -6.345  35.582  1.00  0.00     0.304 A 
HETATM   27  O5  UNK     1      20.255  -5.792  34.492  1.00  0.00    -0.259 OA
HETATM   28  C18 UNK     1      19.462 -10.396  38.151  1.00  0.00     0.003 A 
HETATM   29  C17 UNK     1      19.579  -9.686  39.348  1.00  0.00     0.001 A 
ENDBRANCH   3  19
TORSDOF 6
ENDMDL
