MODEL 1
REMARK VINA RESULT:      -9.3      0.000      0.000
REMARK  7 active torsions:
REMARK  status: ('A' for Active; 'I' for Inactive)
REMARK    1  A    between atoms: C23_32  and  O2_3 
REMARK    2  A    between atoms: C9_18  and  O2_3 
REMARK    3  A    between atoms: C17_26  and  O3_4 
REMARK    4  A    between atoms: C19_28  and  O5_6 
REMARK       I    between atoms: C12_21  and  N1_9 
REMARK    5  A    between atoms: C4_13  and  N1_9 
REMARK    6  A    between atoms: C2_11  and  C9_18 
REMARK    7  A    between atoms: C10_19  and  C12_21 
ROOT
HETATM    1  S1  UNK     1      19.880  -2.581  12.513  1.00  0.00    -0.075 SA
HETATM    2  C1  UNK     1      20.101  -5.080  13.067  1.00  0.00     0.006 A 
HETATM    3  C2  UNK     1      20.027  -4.404  14.319  1.00  0.00     0.085 A 
HETATM    4  C3  UNK     1      20.033  -4.209  12.002  1.00  0.00    -0.007 A 
HETATM    5  C4  UNK     1      19.907  -3.062  14.143  1.00  0.00     0.094 A 
HETATM    6  C5  UNK     1      20.232  -6.500  12.854  1.00  0.00    -0.024 A 
HETATM    7  C6  UNK     1      20.073  -4.494  10.548  1.00  0.00     0.057 C 
HETATM    8  C7  UNK     1      19.092  -7.290  12.739  1.00  0.00     0.015 A 
HETATM    9  C8  UNK     1      21.498  -7.072  12.763  1.00  0.00     0.015 A 
HETATM   10  C15 UNK     1      19.219  -8.664  12.533  1.00  0.00     0.037 A 
HETATM   11  C16 UNK     1      21.626  -8.446  12.557  1.00  0.00     0.037 A 
HETATM   12  C17 UNK     1      20.486  -9.242  12.443  1.00  0.00     0.068 A 
ENDROOT
BRANCH   5  13
HETATM   13  N1  UNK     1      19.804  -2.029  15.081  1.00  0.00    -0.316 N 
HETATM   14  C12 UNK     1      18.717  -1.779  15.906  1.00  0.00     0.262 C 
HETATM   15  O6  UNK     1      17.653  -2.392  15.981  1.00  0.00    -0.267 OA
HETATM   16  H1  UNK     1      20.630  -1.442  15.147  1.00  0.00     0.169 HD
BRANCH  14  17
HETATM   17  C10 UNK     1      18.943  -0.615  16.771  1.00  0.00     0.108 A 
HETATM   18  C14 UNK     1      18.945  -0.849  18.088  1.00  0.00     0.037 A 
HETATM   19  C11 UNK     1      19.162   0.241  19.026  1.00  0.00     0.002 A 
HETATM   20  C13 UNK     1      19.363   1.525  18.531  1.00  0.00     0.123 A 
HETATM   21  C20 UNK     1      19.173   0.043  20.409  1.00  0.00     0.014 A 
HETATM   22  O1  UNK     1      19.359   1.766  17.143  1.00  0.00    -0.271 OA
HETATM   23  C19 UNK     1      19.576   2.614  19.375  1.00  0.00     0.102 A 
HETATM   24  C18 UNK     1      19.157   0.743  16.221  1.00  0.00     0.304 A 
HETATM   25  O7  UNK     1      19.155   0.961  15.014  1.00  0.00    -0.259 OA
HETATM   26  C21 UNK     1      19.586   2.407  20.752  1.00  0.00     0.040 A 
HETATM   27  C22 UNK     1      19.385   1.125  21.269  1.00  0.00     0.004 A 
BRANCH  23  28
HETATM   28  O5  UNK     1      19.772   3.864  18.877  1.00  0.00    -0.353 OA
HETATM   29  C26 UNK     1      21.111   4.230  18.547  1.00  0.00     0.210 C 
ENDBRANCH  23  28
ENDBRANCH  14  17
ENDBRANCH   5  13
BRANCH   3  30
HETATM   30  C9  UNK     1      20.070  -5.030  15.616  1.00  0.00     0.297 C 
HETATM   31  O4  UNK     1      19.348  -5.980  15.950  1.00  0.00    -0.259 OA
BRANCH  30  32
HETATM   32  O2  UNK     1      20.995  -4.475  16.473  1.00  0.00    -0.318 OA
BRANCH  32  33
HETATM   33  C23 UNK     1      22.371  -4.797  16.237  1.00  0.00     0.174 C 
HETATM   34  C24 UNK     1      23.177  -3.518  16.196  1.00  0.00     0.034 C 
ENDBRANCH  32  33
ENDBRANCH  30  32
ENDBRANCH   3  30
BRANCH  12  35
HETATM   35  O3  UNK     1      20.609 -10.582  12.240  1.00  0.00    -0.356 OA
HETATM   36  C25 UNK     1      21.931 -11.120  12.247  1.00  0.00     0.210 C 
ENDBRANCH  12  35
TORSDOF 7
ENDMDL
MODEL 2
REMARK VINA RESULT:      -8.7     17.036     20.728
REMARK  7 active torsions:
REMARK  status: ('A' for Active; 'I' for Inactive)
REMARK    1  A    between atoms: C23_32  and  O2_3 
REMARK    2  A    between atoms: C9_18  and  O2_3 
REMARK    3  A    between atoms: C17_26  and  O3_4 
REMARK    4  A    between atoms: C19_28  and  O5_6 
REMARK       I    between atoms: C12_21  and  N1_9 
REMARK    5  A    between atoms: C4_13  and  N1_9 
REMARK    6  A    between atoms: C2_11  and  C9_18 
REMARK    7  A    between atoms: C10_19  and  C12_21 
ROOT
HETATM    1  S1  UNK     1      21.403  -4.574  37.564  1.00  0.00    -0.075 SA
HETATM    2  C1  UNK     1      20.399  -6.936  37.443  1.00  0.00     0.006 A 
HETATM    3  C2  UNK     1      19.868  -6.224  36.329  1.00  0.00     0.085 A 
HETATM    4  C3  UNK     1      21.248  -6.157  38.198  1.00  0.00    -0.007 A 
HETATM    5  C4  UNK     1      20.338  -4.949  36.295  1.00  0.00     0.094 A 
HETATM    6  C5  UNK     1      20.131  -8.305  37.806  1.00  0.00    -0.024 A 
HETATM    7  C6  UNK     1      22.002  -6.505  39.427  1.00  0.00     0.057 C 
HETATM    8  C7  UNK     1      20.937  -9.324  37.304  1.00  0.00     0.015 A 
HETATM    9  C8  UNK     1      19.069  -8.600  38.656  1.00  0.00     0.015 A 
HETATM   10  C15 UNK     1      20.677 -10.648  37.655  1.00  0.00     0.037 A 
HETATM   11  C16 UNK     1      18.809  -9.925  39.008  1.00  0.00     0.037 A 
HETATM   12  C17 UNK     1      19.613 -10.949  38.507  1.00  0.00     0.068 A 
ENDROOT
BRANCH   5  13
HETATM   13  N1  UNK     1      20.084  -3.913  35.390  1.00  0.00    -0.316 N 
HETATM   14  C12 UNK     1      19.507  -2.687  35.690  1.00  0.00     0.262 C 
HETATM   15  O6  UNK     1      19.112  -2.272  36.778  1.00  0.00    -0.267 OA
HETATM   16  H1  UNK     1      20.382  -4.108  34.438  1.00  0.00     0.169 HD
BRANCH  14  17
HETATM   17  C10 UNK     1      19.388  -1.833  34.502  1.00  0.00     0.108 A 
HETATM   18  C14 UNK     1      20.015  -2.261  33.401  1.00  0.00     0.037 A 
HETATM   19  C11 UNK     1      19.955  -1.482  32.173  1.00  0.00     0.002 A 
HETATM   20  C13 UNK     1      19.237  -0.291  32.167  1.00  0.00     0.123 A 
HETATM   21  C20 UNK     1      20.593  -1.890  31.000  1.00  0.00     0.014 A 
HETATM   22  O1  UNK     1      18.578   0.154  33.330  1.00  0.00    -0.271 OA
HETATM   23  C19 UNK     1      19.139   0.503  31.025  1.00  0.00     0.102 A 
HETATM   24  C18 UNK     1      18.617  -0.569  34.519  1.00  0.00     0.304 A 
HETATM   25  O7  UNK     1      18.040  -0.174  35.527  1.00  0.00    -0.259 OA
HETATM   26  C21 UNK     1      19.779   0.088  29.860  1.00  0.00     0.040 A 
HETATM   27  C22 UNK     1      20.505  -1.105  29.847  1.00  0.00     0.004 A 
BRANCH  23  28
HETATM   28  O5  UNK     1      18.434   1.665  31.033  1.00  0.00    -0.353 OA
HETATM   29  C26 UNK     1      18.470   2.456  29.847  1.00  0.00     0.210 C 
ENDBRANCH  23  28
ENDBRANCH  14  17
ENDBRANCH   5  13
BRANCH   3  30
HETATM   30  C9  UNK     1      18.954  -6.756  35.349  1.00  0.00     0.297 C 
HETATM   31  O4  UNK     1      19.272  -7.028  34.183  1.00  0.00    -0.259 OA
BRANCH  30  32
HETATM   32  O2  UNK     1      17.673  -6.938  35.823  1.00  0.00    -0.318 OA
BRANCH  32  33
HETATM   33  C23 UNK     1      16.764  -7.648  34.973  1.00  0.00     0.174 C 
HETATM   34  C24 UNK     1      15.426  -6.942  34.983  1.00  0.00     0.034 C 
ENDBRANCH  32  33
ENDBRANCH  30  32
ENDBRANCH   3  30
BRANCH  12  35
HETATM   35  O3  UNK     1      19.361 -12.242  38.850  1.00  0.00    -0.356 OA
HETATM   36  C25 UNK     1      18.981 -12.492  40.203  1.00  0.00     0.210 C 
ENDBRANCH  12  35
TORSDOF 7
ENDMDL
MODEL 3
REMARK VINA RESULT:      -8.6     16.226     22.069
REMARK  7 active torsions:
REMARK  status: ('A' for Active; 'I' for Inactive)
REMARK    1  A    between atoms: C23_32  and  O2_3 
REMARK    2  A    between atoms: C9_18  and  O2_3 
REMARK    3  A    between atoms: C17_26  and  O3_4 
REMARK    4  A    between atoms: C19_28  and  O5_6 
REMARK       I    between atoms: C12_21  and  N1_9 
REMARK    5  A    between atoms: C4_13  and  N1_9 
REMARK    6  A    between atoms: C2_11  and  C9_18 
REMARK    7  A    between atoms: C10_19  and  C12_21 
ROOT
HETATM    1  S1  UNK     1      19.518   8.318  34.199  1.00  0.00    -0.075 SA
HETATM    2  C1  UNK     1      18.650   6.693  32.409  1.00  0.00     0.006 A 
HETATM    3  C2  UNK     1      17.617   7.655  32.603  1.00  0.00     0.085 A 
HETATM    4  C3  UNK     1      19.741   6.935  33.214  1.00  0.00    -0.007 A 
HETATM    5  C4  UNK     1      17.973   8.572  33.540  1.00  0.00     0.094 A 
HETATM    6  C5  UNK     1      18.634   5.574  31.501  1.00  0.00    -0.024 A 
HETATM    7  C6  UNK     1      21.015   6.184  33.323  1.00  0.00     0.057 C 
HETATM    8  C7  UNK     1      19.109   5.730  30.201  1.00  0.00     0.015 A 
HETATM    9  C8  UNK     1      18.143   4.343  31.928  1.00  0.00     0.015 A 
HETATM   10  C15 UNK     1      19.093   4.646  29.323  1.00  0.00     0.037 A 
HETATM   11  C16 UNK     1      18.128   3.259  31.050  1.00  0.00     0.037 A 
HETATM   12  C17 UNK     1      18.602   3.411  29.747  1.00  0.00     0.068 A 
ENDROOT
BRANCH   5  13
HETATM   13  N1  UNK     1      17.276   9.678  34.038  1.00  0.00    -0.316 N 
HETATM   14  C12 UNK     1      17.646  11.008  33.901  1.00  0.00     0.262 C 
HETATM   15  O6  UNK     1      18.632  11.476  33.333  1.00  0.00    -0.267 OA
HETATM   16  H1  UNK     1      16.414   9.444  34.522  1.00  0.00     0.169 HD
BRANCH  14  17
HETATM   17  C10 UNK     1      16.687  11.912  34.546  1.00  0.00     0.108 A 
HETATM   18  C14 UNK     1      15.393  11.620  34.375  1.00  0.00     0.037 A 
HETATM   19  C11 UNK     1      14.366  12.457  34.976  1.00  0.00     0.002 A 
HETATM   20  C13 UNK     1      14.754  13.563  35.726  1.00  0.00     0.123 A 
HETATM   21  C20 UNK     1      13.004  12.190  34.825  1.00  0.00     0.014 A 
HETATM   22  O1  UNK     1      16.118  13.866  35.902  1.00  0.00    -0.271 OA
HETATM   23  C19 UNK     1      13.821  14.407  36.328  1.00  0.00     0.102 A 
HETATM   24  C18 UNK     1      17.123  13.083  35.341  1.00  0.00     0.304 A 
HETATM   25  O7  UNK     1      18.308  13.353  35.499  1.00  0.00    -0.259 OA
HETATM   26  C21 UNK     1      12.465  14.132  36.172  1.00  0.00     0.040 A 
HETATM   27  C22 UNK     1      12.056  13.027  35.423  1.00  0.00     0.004 A 
BRANCH  23  28
HETATM   28  O5  UNK     1      14.214  15.484  37.059  1.00  0.00    -0.353 OA
HETATM   29  C26 UNK     1      13.956  15.447  38.461  1.00  0.00     0.210 C 
ENDBRANCH  23  28
ENDBRANCH  14  17
ENDBRANCH   5  13
BRANCH   3  30
HETATM   30  C9  UNK     1      16.351   7.680  31.914  1.00  0.00     0.297 C 
HETATM   31  O4  UNK     1      16.076   8.471  31.001  1.00  0.00    -0.259 OA
BRANCH  30  32
HETATM   32  O2  UNK     1      15.453   6.736  32.363  1.00  0.00    -0.318 OA
BRANCH  32  33
HETATM   33  C23 UNK     1      14.128   7.193  32.660  1.00  0.00     0.174 C 
HETATM   34  C24 UNK     1      14.178   8.094  33.874  1.00  0.00     0.034 C 
ENDBRANCH  32  33
ENDBRANCH  30  32
ENDBRANCH   3  30
BRANCH  12  35
HETATM   35  O3  UNK     1      18.588   2.354  28.889  1.00  0.00    -0.356 OA
HETATM   36  C25 UNK     1      19.047   1.101  29.397  1.00  0.00     0.210 C 
ENDBRANCH  12  35
TORSDOF 7
ENDMDL
MODEL 4
REMARK VINA RESULT:      -8.5      2.098      3.207
REMARK  7 active torsions:
REMARK  status: ('A' for Active; 'I' for Inactive)
REMARK    1  A    between atoms: C23_32  and  O2_3 
REMARK    2  A    between atoms: C9_18  and  O2_3 
REMARK    3  A    between atoms: C17_26  and  O3_4 
REMARK    4  A    between atoms: C19_28  and  O5_6 
REMARK       I    between atoms: C12_21  and  N1_9 
REMARK    5  A    between atoms: C4_13  and  N1_9 
REMARK    6  A    between atoms: C2_11  and  C9_18 
REMARK    7  A    between atoms: C10_19  and  C12_21 
ROOT
HETATM    1  S1  UNK     1      20.754  -4.955  15.351  1.00  0.00    -0.075 SA
HETATM    2  C1  UNK     1      20.171  -5.053  12.851  1.00  0.00     0.006 A 
HETATM    3  C2  UNK     1      19.848  -3.733  13.280  1.00  0.00     0.085 A 
HETATM    4  C3  UNK     1      20.673  -5.823  13.876  1.00  0.00    -0.007 A 
HETATM    5  C4  UNK     1      20.119  -3.569  14.601  1.00  0.00     0.094 A 
HETATM    6  C5  UNK     1      20.021  -5.595  11.524  1.00  0.00    -0.024 A 
HETATM    7  C6  UNK     1      21.127  -7.234  13.859  1.00  0.00     0.057 C 
HETATM    8  C7  UNK     1      21.067  -5.492  10.611  1.00  0.00     0.015 A 
HETATM    9  C8  UNK     1      18.830  -6.219  11.162  1.00  0.00     0.015 A 
HETATM   10  C15 UNK     1      20.922  -6.016   9.327  1.00  0.00     0.037 A 
HETATM   11  C16 UNK     1      18.684  -6.744   9.877  1.00  0.00     0.037 A 
HETATM   12  C17 UNK     1      19.730  -6.642   8.960  1.00  0.00     0.068 A 
ENDROOT
BRANCH   5  13
HETATM   13  N1  UNK     1      19.960  -2.452  15.428  1.00  0.00    -0.316 N 
HETATM   14  C12 UNK     1      18.769  -2.010  15.985  1.00  0.00     0.262 C 
HETATM   15  O6  UNK     1      17.643  -2.491  15.871  1.00  0.00    -0.267 OA
HETATM   16  H1  UNK     1      20.824  -1.957  15.631  1.00  0.00     0.169 HD
BRANCH  14  17
HETATM   17  C10 UNK     1      18.961  -0.806  16.803  1.00  0.00     0.108 A 
HETATM   18  C14 UNK     1      18.976  -0.988  18.128  1.00  0.00     0.037 A 
HETATM   19  C11 UNK     1      19.160   0.145  19.022  1.00  0.00     0.002 A 
HETATM   20  C13 UNK     1      19.319   1.414  18.475  1.00  0.00     0.123 A 
HETATM   21  C20 UNK     1      19.183   0.002  20.411  1.00  0.00     0.014 A 
HETATM   22  O1  UNK     1      19.302   1.599  17.079  1.00  0.00    -0.271 OA
HETATM   23  C19 UNK     1      19.499   2.542  19.275  1.00  0.00     0.102 A 
HETATM   24  C18 UNK     1      19.128   0.535  16.199  1.00  0.00     0.304 A 
HETATM   25  O7  UNK     1      19.115   0.705  14.984  1.00  0.00    -0.259 OA
HETATM   26  C21 UNK     1      19.521   2.389  20.659  1.00  0.00     0.040 A 
HETATM   27  C22 UNK     1      19.363   1.123  21.227  1.00  0.00     0.004 A 
BRANCH  23  28
HETATM   28  O5  UNK     1      19.653   3.776  18.727  1.00  0.00    -0.353 OA
HETATM   29  C26 UNK     1      20.988   4.228  18.506  1.00  0.00     0.210 C 
ENDBRANCH  23  28
ENDBRANCH  14  17
ENDBRANCH   5  13
BRANCH   3  30
HETATM   30  C9  UNK     1      19.305  -2.688  12.449  1.00  0.00     0.297 C 
HETATM   31  O4  UNK     1      18.444  -2.875  11.577  1.00  0.00    -0.259 OA
BRANCH  30  32
HETATM   32  O2  UNK     1      19.830  -1.441  12.706  1.00  0.00    -0.318 OA
BRANCH  32  33
HETATM   33  C23 UNK     1      21.189  -1.217  12.309  1.00  0.00     0.174 C 
HETATM   34  C24 UNK     1      21.277  -1.274  10.800  1.00  0.00     0.034 C 
ENDBRANCH  32  33
ENDBRANCH  30  32
ENDBRANCH   3  30
BRANCH  12  35
HETATM   35  O3  UNK     1      19.589  -7.155   7.707  1.00  0.00    -0.356 OA
HETATM   36  C25 UNK     1      19.165  -6.256   6.682  1.00  0.00     0.210 C 
ENDBRANCH  12  35
TORSDOF 7
ENDMDL
MODEL 5
REMARK VINA RESULT:      -8.3     17.361     22.303
REMARK  7 active torsions:
REMARK  status: ('A' for Active; 'I' for Inactive)
REMARK    1  A    between atoms: C23_32  and  O2_3 
REMARK    2  A    between atoms: C9_18  and  O2_3 
REMARK    3  A    between atoms: C17_26  and  O3_4 
REMARK    4  A    between atoms: C19_28  and  O5_6 
REMARK       I    between atoms: C12_21  and  N1_9 
REMARK    5  A    between atoms: C4_13  and  N1_9 
REMARK    6  A    between atoms: C2_11  and  C9_18 
REMARK    7  A    between atoms: C10_19  and  C12_21 
ROOT
HETATM    1  S1  UNK     1      17.224  -1.884  37.573  1.00  0.00    -0.075 SA
HETATM    2  C1  UNK     1      18.213  -0.135  35.972  1.00  0.00     0.006 A 
HETATM    3  C2  UNK     1      18.906  -1.351  35.704  1.00  0.00     0.085 A 
HETATM    4  C3  UNK     1      17.271  -0.284  36.966  1.00  0.00    -0.007 A 
HETATM    5  C4  UNK     1      18.458  -2.355  36.503  1.00  0.00     0.094 A 
HETATM    6  C5  UNK     1      18.413   1.138  35.326  1.00  0.00    -0.024 A 
HETATM    7  C6  UNK     1      16.344   0.720  37.542  1.00  0.00     0.057 C 
HETATM    8  C7  UNK     1      17.680   1.459  34.187  1.00  0.00     0.015 A 
HETATM    9  C8  UNK     1      19.338   2.039  35.846  1.00  0.00     0.015 A 
HETATM   10  C15 UNK     1      17.874   2.691  33.562  1.00  0.00     0.037 A 
HETATM   11  C16 UNK     1      19.532   3.272  35.221  1.00  0.00     0.037 A 
HETATM   12  C17 UNK     1      18.800   3.597  34.079  1.00  0.00     0.068 A 
ENDROOT
BRANCH   5  13
HETATM   13  N1  UNK     1      18.849  -3.695  36.581  1.00  0.00    -0.316 N 
HETATM   14  C12 UNK     1      20.001  -4.178  37.186  1.00  0.00     0.262 C 
HETATM   15  O6  UNK     1      20.887  -3.548  37.760  1.00  0.00    -0.267 OA
HETATM   16  H1  UNK     1      18.192  -4.347  36.161  1.00  0.00     0.169 HD
BRANCH  14  17
HETATM   17  C10 UNK     1      20.101  -5.639  37.086  1.00  0.00     0.108 A 
HETATM   18  C14 UNK     1      19.977  -6.320  38.231  1.00  0.00     0.037 A 
HETATM   19  C11 UNK     1      20.061  -7.772  38.233  1.00  0.00     0.002 A 
HETATM   20  C13 UNK     1      20.274  -8.436  37.028  1.00  0.00     0.123 A 
HETATM   21  C20 UNK     1      19.937  -8.524  39.403  1.00  0.00     0.014 A 
HETATM   22  O1  UNK     1      20.404  -7.713  35.826  1.00  0.00    -0.271 OA
HETATM   23  C19 UNK     1      20.366  -9.825  36.961  1.00  0.00     0.102 A 
HETATM   24  C18 UNK     1      20.326  -6.323  35.793  1.00  0.00     0.304 A 
HETATM   25  O7  UNK     1      20.440  -5.702  34.741  1.00  0.00    -0.259 OA
HETATM   26  C21 UNK     1      20.240 -10.567  38.133  1.00  0.00     0.040 A 
HETATM   27  C22 UNK     1      20.027  -9.918  39.351  1.00  0.00     0.004 A 
BRANCH  23  28
HETATM   28  O5  UNK     1      20.573 -10.460  35.777  1.00  0.00    -0.353 OA
HETATM   29  C26 UNK     1      21.887 -10.956  35.526  1.00  0.00     0.210 C 
ENDBRANCH  23  28
ENDBRANCH  14  17
ENDBRANCH   5  13
BRANCH   3  30
HETATM   30  C9  UNK     1      19.947  -1.527  34.723  1.00  0.00     0.297 C 
HETATM   31  O4  UNK     1      21.126  -1.785  35.006  1.00  0.00    -0.259 OA
BRANCH  30  32
HETATM   32  O2  UNK     1      19.519  -1.380  33.422  1.00  0.00    -0.318 OA
BRANCH  32  33
HETATM   33  C23 UNK     1      20.247  -2.096  32.417  1.00  0.00     0.174 C 
HETATM   34  C24 UNK     1      20.396  -1.216  31.196  1.00  0.00     0.034 C 
ENDBRANCH  32  33
ENDBRANCH  30  32
ENDBRANCH   3  30
BRANCH  12  35
HETATM   35  O3  UNK     1      18.988   4.800  33.470  1.00  0.00    -0.356 OA
HETATM   36  C25 UNK     1      18.194   5.073  32.315  1.00  0.00     0.210 C 
ENDBRANCH  12  35
TORSDOF 7
ENDMDL
MODEL 6
REMARK VINA RESULT:      -8.3     15.955     21.790
REMARK  7 active torsions:
REMARK  status: ('A' for Active; 'I' for Inactive)
REMARK    1  A    between atoms: C23_32  and  O2_3 
REMARK    2  A    between atoms: C9_18  and  O2_3 
REMARK    3  A    between atoms: C17_26  and  O3_4 
REMARK    4  A    between atoms: C19_28  and  O5_6 
REMARK       I    between atoms: C12_21  and  N1_9 
REMARK    5  A    between atoms: C4_13  and  N1_9 
REMARK    6  A    between atoms: C2_11  and  C9_18 
REMARK    7  A    between atoms: C10_19  and  C12_21 
ROOT
HETATM    1  S1  UNK     1      19.540   8.397  33.927  1.00  0.00    -0.075 SA
HETATM    2  C1  UNK     1      18.653   6.630  32.286  1.00  0.00     0.006 A 
HETATM    3  C2  UNK     1      17.659   7.649  32.344  1.00  0.00     0.085 A 
HETATM    4  C3  UNK     1      19.729   6.910  33.099  1.00  0.00    -0.007 A 
HETATM    5  C4  UNK     1      18.029   8.645  33.192  1.00  0.00     0.094 A 
HETATM    6  C5  UNK     1      18.613   5.423  31.500  1.00  0.00    -0.024 A 
HETATM    7  C6  UNK     1      20.964   6.122  33.329  1.00  0.00     0.057 C 
HETATM    8  C7  UNK     1      19.133   5.421  30.209  1.00  0.00     0.015 A 
HETATM    9  C8  UNK     1      18.055   4.265  32.037  1.00  0.00     0.015 A 
HETATM   10  C15 UNK     1      19.094   4.252  29.448  1.00  0.00     0.037 A 
HETATM   11  C16 UNK     1      18.016   3.097  31.276  1.00  0.00     0.037 A 
HETATM   12  C17 UNK     1      18.536   3.090  29.981  1.00  0.00     0.068 A 
ENDROOT
BRANCH   5  13
HETATM   13  N1  UNK     1      17.368   9.825  33.548  1.00  0.00    -0.316 N 
HETATM   14  C12 UNK     1      16.475   9.978  34.598  1.00  0.00     0.262 C 
HETATM   15  O6  UNK     1      16.091   9.135  35.407  1.00  0.00    -0.267 OA
HETATM   16  H1  UNK     1      17.606  10.627  32.971  1.00  0.00     0.169 HD
BRANCH  14  17
HETATM   17  C10 UNK     1      15.966  11.352  34.690  1.00  0.00     0.108 A 
HETATM   18  C14 UNK     1      16.876  12.327  34.585  1.00  0.00     0.037 A 
HETATM   19  C11 UNK     1      16.469  13.722  34.662  1.00  0.00     0.002 A 
HETATM   20  C13 UNK     1      15.123  14.020  34.848  1.00  0.00     0.123 A 
HETATM   21  C20 UNK     1      17.384  14.772  34.558  1.00  0.00     0.014 A 
HETATM   22  O1  UNK     1      14.170  12.989  34.957  1.00  0.00    -0.271 OA
HETATM   23  C19 UNK     1      14.667  15.335  34.931  1.00  0.00     0.102 A 
HETATM   24  C18 UNK     1      14.529  11.646  34.886  1.00  0.00     0.304 A 
HETATM   25  O7  UNK     1      13.692  10.754  34.982  1.00  0.00    -0.259 OA
HETATM   26  C21 UNK     1      15.586  16.375  34.825  1.00  0.00     0.040 A 
HETATM   27  C22 UNK     1      16.941  16.095  34.639  1.00  0.00     0.004 A 
BRANCH  23  28
HETATM   28  O5  UNK     1      13.348  15.612  35.112  1.00  0.00    -0.353 OA
HETATM   29  C26 UNK     1      12.609  16.033  33.967  1.00  0.00     0.210 C 
ENDBRANCH  23  28
ENDBRANCH  14  17
ENDBRANCH   5  13
BRANCH   3  30
HETATM   30  C9  UNK     1      16.416   7.654  31.614  1.00  0.00     0.297 C 
HETATM   31  O4  UNK     1      16.152   8.453  30.703  1.00  0.00    -0.259 OA
BRANCH  30  32
HETATM   32  O2  UNK     1      15.527   6.682  32.018  1.00  0.00    -0.318 OA
BRANCH  32  33
HETATM   33  C23 UNK     1      14.156   7.075  32.151  1.00  0.00     0.174 C 
HETATM   34  C24 UNK     1      13.890   7.458  33.590  1.00  0.00     0.034 C 
ENDBRANCH  32  33
ENDBRANCH  30  32
ENDBRANCH   3  30
BRANCH  12  35
HETATM   35  O3  UNK     1      18.499   1.950  29.239  1.00  0.00    -0.356 OA
HETATM   36  C25 UNK     1      19.492   0.963  29.517  1.00  0.00     0.210 C 
ENDBRANCH  12  35
TORSDOF 7
ENDMDL
MODEL 7
REMARK VINA RESULT:      -8.1     20.884     23.958
REMARK  7 active torsions:
REMARK  status: ('A' for Active; 'I' for Inactive)
REMARK    1  A    between atoms: C23_32  and  O2_3 
REMARK    2  A    between atoms: C9_18  and  O2_3 
REMARK    3  A    between atoms: C17_26  and  O3_4 
REMARK    4  A    between atoms: C19_28  and  O5_6 
REMARK       I    between atoms: C12_21  and  N1_9 
REMARK    5  A    between atoms: C4_13  and  N1_9 
REMARK    6  A    between atoms: C2_11  and  C9_18 
REMARK    7  A    between atoms: C10_19  and  C12_21 
ROOT
HETATM    1  S1  UNK     1      29.367  -6.044  38.496  1.00  0.00    -0.075 SA
HETATM    2  C1  UNK     1      31.108  -6.538  36.672  1.00  0.00     0.006 A 
HETATM    3  C2  UNK     1      29.906  -7.179  36.255  1.00  0.00     0.085 A 
HETATM    4  C3  UNK     1      30.955  -5.885  37.875  1.00  0.00    -0.007 A 
HETATM    5  C4  UNK     1      28.908  -6.981  37.155  1.00  0.00     0.094 A 
HETATM    6  C5  UNK     1      32.372  -6.527  35.980  1.00  0.00    -0.024 A 
HETATM    7  C6  UNK     1      31.945  -5.102  38.654  1.00  0.00     0.057 C 
HETATM    8  C7  UNK     1      32.648  -5.519  35.060  1.00  0.00     0.015 A 
HETATM    9  C8  UNK     1      33.309  -7.524  36.234  1.00  0.00     0.015 A 
HETATM   10  C15 UNK     1      33.871  -5.508  34.389  1.00  0.00     0.037 A 
HETATM   11  C16 UNK     1      34.533  -7.514  35.564  1.00  0.00     0.037 A 
HETATM   12  C17 UNK     1      34.813  -6.506  34.641  1.00  0.00     0.068 A 
ENDROOT
BRANCH   5  13
HETATM   13  N1  UNK     1      27.581  -7.422  37.150  1.00  0.00    -0.316 N 
HETATM   14  C12 UNK     1      27.117  -8.629  37.652  1.00  0.00     0.262 C 
HETATM   15  O6  UNK     1      27.756  -9.532  38.189  1.00  0.00    -0.267 OA
HETATM   16  H1  UNK     1      26.922  -6.760  36.749  1.00  0.00     0.169 HD
BRANCH  14  17
HETATM   17  C10 UNK     1      25.666  -8.772  37.484  1.00  0.00     0.108 A 
HETATM   18  C14 UNK     1      25.256  -9.799  36.731  1.00  0.00     0.037 A 
HETATM   19  C11 UNK     1      23.837 -10.023  36.507  1.00  0.00     0.002 A 
HETATM   20  C13 UNK     1      22.918  -9.153  37.085  1.00  0.00     0.123 A 
HETATM   21  C20 UNK     1      23.363 -11.082  35.728  1.00  0.00     0.014 A 
HETATM   22  O1  UNK     1      23.356  -8.073  37.877  1.00  0.00    -0.271 OA
HETATM   23  C19 UNK     1      21.544  -9.311  36.909  1.00  0.00     0.102 A 
HETATM   24  C18 UNK     1      24.707  -7.834  38.111  1.00  0.00     0.304 A 
HETATM   25  O7  UNK     1      25.079  -6.892  38.802  1.00  0.00    -0.259 OA
HETATM   26  C21 UNK     1      21.082 -10.370  36.132  1.00  0.00     0.040 A 
HETATM   27  C22 UNK     1      21.989 -11.253  35.543  1.00  0.00     0.004 A 
BRANCH  23  28
HETATM   28  O5  UNK     1      20.658  -8.453  37.481  1.00  0.00    -0.353 OA
HETATM   29  C26 UNK     1      19.494  -8.122  36.727  1.00  0.00     0.210 C 
ENDBRANCH  23  28
ENDBRANCH  14  17
ENDBRANCH   5  13
BRANCH   3  30
HETATM   30  C9  UNK     1      29.738  -7.943  35.044  1.00  0.00     0.297 C 
HETATM   31  O4  UNK     1      30.410  -8.945  34.759  1.00  0.00    -0.259 OA
BRANCH  30  32
HETATM   32  O2  UNK     1      28.752  -7.460  34.212  1.00  0.00    -0.318 OA
BRANCH  32  33
HETATM   33  C23 UNK     1      29.024  -6.227  33.533  1.00  0.00     0.174 C 
HETATM   34  C24 UNK     1      27.930  -5.970  32.521  1.00  0.00     0.034 C 
ENDBRANCH  32  33
ENDBRANCH  30  32
ENDBRANCH   3  30
BRANCH  12  35
HETATM   35  O3  UNK     1      36.007  -6.494  33.987  1.00  0.00    -0.356 OA
HETATM   36  C25 UNK     1      36.941  -7.521  34.324  1.00  0.00     0.210 C 
ENDBRANCH  12  35
TORSDOF 7
ENDMDL
MODEL 8
REMARK VINA RESULT:      -8.1     21.054     24.184
REMARK  7 active torsions:
REMARK  status: ('A' for Active; 'I' for Inactive)
REMARK    1  A    between atoms: C23_32  and  O2_3 
REMARK    2  A    between atoms: C9_18  and  O2_3 
REMARK    3  A    between atoms: C17_26  and  O3_4 
REMARK    4  A    between atoms: C19_28  and  O5_6 
REMARK       I    between atoms: C12_21  and  N1_9 
REMARK    5  A    between atoms: C4_13  and  N1_9 
REMARK    6  A    between atoms: C2_11  and  C9_18 
REMARK    7  A    between atoms: C10_19  and  C12_21 
ROOT
HETATM    1  S1  UNK     1      29.541  -5.887  38.591  1.00  0.00    -0.075 SA
HETATM    2  C1  UNK     1      31.170  -6.518  36.708  1.00  0.00     0.006 A 
HETATM    3  C2  UNK     1      29.929  -7.136  36.379  1.00  0.00     0.085 A 
HETATM    4  C3  UNK     1      31.099  -5.808  37.886  1.00  0.00    -0.007 A 
HETATM    5  C4  UNK     1      28.985  -6.866  37.318  1.00  0.00     0.094 A 
HETATM    6  C5  UNK     1      32.397  -6.580  35.953  1.00  0.00    -0.024 A 
HETATM    7  C6  UNK     1      32.152  -5.026  38.578  1.00  0.00     0.057 C 
HETATM    8  C7  UNK     1      32.657  -5.623  34.976  1.00  0.00     0.015 A 
HETATM    9  C8  UNK     1      33.315  -7.596  36.207  1.00  0.00     0.015 A 
HETATM   10  C15 UNK     1      33.845  -5.682  34.247  1.00  0.00     0.037 A 
HETATM   11  C16 UNK     1      34.502  -7.656  35.477  1.00  0.00     0.037 A 
HETATM   12  C17 UNK     1      34.767  -6.699  34.496  1.00  0.00     0.068 A 
ENDROOT
BRANCH   5  13
HETATM   13  N1  UNK     1      27.646  -7.262  37.398  1.00  0.00    -0.316 N 
HETATM   14  C12 UNK     1      27.088  -8.068  38.380  1.00  0.00     0.262 C 
HETATM   15  O6  UNK     1      27.638  -8.585  39.351  1.00  0.00    -0.267 OA
HETATM   16  H1  UNK     1      27.056  -6.888  36.661  1.00  0.00     0.169 HD
BRANCH  14  17
HETATM   17  C10 UNK     1      25.654  -8.285  38.160  1.00  0.00     0.108 A 
HETATM   18  C14 UNK     1      24.823  -7.585  38.941  1.00  0.00     0.037 A 
HETATM   19  C11 UNK     1      23.383  -7.732  38.798  1.00  0.00     0.002 A 
HETATM   20  C13 UNK     1      22.888  -8.611  37.840  1.00  0.00     0.123 A 
HETATM   21  C20 UNK     1      22.479  -7.021  39.590  1.00  0.00     0.014 A 
HETATM   22  O1  UNK     1      23.768  -9.347  37.021  1.00  0.00    -0.271 OA
HETATM   23  C19 UNK     1      21.520  -8.800  37.652  1.00  0.00     0.102 A 
HETATM   24  C18 UNK     1      25.150  -9.226  37.134  1.00  0.00     0.304 A 
HETATM   25  O7  UNK     1      25.909  -9.869  36.416  1.00  0.00    -0.259 OA
HETATM   26  C21 UNK     1      20.626  -8.086  38.447  1.00  0.00     0.040 A 
HETATM   27  C22 UNK     1      21.104  -7.198  39.413  1.00  0.00     0.004 A 
BRANCH  23  28
HETATM   28  O5  UNK     1      21.051  -9.662  36.712  1.00  0.00    -0.353 OA
HETATM   29  C26 UNK     1      20.494 -10.891  37.176  1.00  0.00     0.210 C 
ENDBRANCH  23  28
ENDBRANCH  14  17
ENDBRANCH   5  13
BRANCH   3  30
HETATM   30  C9  UNK     1      29.676  -7.946  35.214  1.00  0.00     0.297 C 
HETATM   31  O4  UNK     1      30.306  -8.977  34.938  1.00  0.00    -0.259 OA
BRANCH  30  32
HETATM   32  O2  UNK     1      28.659  -7.472  34.415  1.00  0.00    -0.318 OA
BRANCH  32  33
HETATM   33  C23 UNK     1      28.964  -6.354  33.574  1.00  0.00     0.174 C 
HETATM   34  C24 UNK     1      27.780  -6.075  32.674  1.00  0.00     0.034 C 
ENDBRANCH  32  33
ENDBRANCH  30  32
ENDBRANCH   3  30
BRANCH  12  35
HETATM   35  O3  UNK     1      35.926  -6.756  33.785  1.00  0.00    -0.356 OA
HETATM   36  C25 UNK     1      37.055  -7.344  34.430  1.00  0.00     0.210 C 
ENDBRANCH  12  35
TORSDOF 7
ENDMDL
MODEL 9
REMARK VINA RESULT:      -8.0     17.645     20.413
REMARK  7 active torsions:
REMARK  status: ('A' for Active; 'I' for Inactive)
REMARK    1  A    between atoms: C23_32  and  O2_3 
REMARK    2  A    between atoms: C9_18  and  O2_3 
REMARK    3  A    between atoms: C17_26  and  O3_4 
REMARK    4  A    between atoms: C19_28  and  O5_6 
REMARK       I    between atoms: C12_21  and  N1_9 
REMARK    5  A    between atoms: C4_13  and  N1_9 
REMARK    6  A    between atoms: C2_11  and  C9_18 
REMARK    7  A    between atoms: C10_19  and  C12_21 
ROOT
HETATM    1  S1  UNK     1      18.328   1.448  32.162  1.00  0.00    -0.075 SA
HETATM    2  C1  UNK     1      18.735   0.130  34.329  1.00  0.00     0.006 A 
HETATM    3  C2  UNK     1      18.524   1.483  34.723  1.00  0.00     0.085 A 
HETATM    4  C3  UNK     1      18.656  -0.029  32.963  1.00  0.00    -0.007 A 
HETATM    5  C4  UNK     1      18.297   2.277  33.645  1.00  0.00     0.094 A 
HETATM    6  C5  UNK     1      19.005  -0.993  35.191  1.00  0.00    -0.024 A 
HETATM    7  C6  UNK     1      18.811  -1.258  32.148  1.00  0.00     0.057 C 
HETATM    8  C7  UNK     1      17.949  -1.745  35.698  1.00  0.00     0.015 A 
HETATM    9  C8  UNK     1      20.320  -1.321  35.510  1.00  0.00     0.015 A 
HETATM   10  C15 UNK     1      18.210  -2.832  36.532  1.00  0.00     0.037 A 
HETATM   11  C16 UNK     1      20.582  -2.408  36.344  1.00  0.00     0.037 A 
HETATM   12  C17 UNK     1      19.526  -3.164  36.856  1.00  0.00     0.068 A 
ENDROOT
BRANCH   5  13
HETATM   13  N1  UNK     1      18.044   3.650  33.566  1.00  0.00    -0.316 N 
HETATM   14  C12 UNK     1      18.281   4.465  32.468  1.00  0.00     0.262 C 
HETATM   15  O6  UNK     1      18.748   4.158  31.372  1.00  0.00    -0.267 OA
HETATM   16  H1  UNK     1      17.632   4.047  34.405  1.00  0.00     0.169 HD
BRANCH  14  17
HETATM   17  C10 UNK     1      17.901   5.858  32.727  1.00  0.00     0.108 A 
HETATM   18  C14 UNK     1      16.590   6.127  32.703  1.00  0.00     0.037 A 
HETATM   19  C11 UNK     1      16.115   7.480  32.949  1.00  0.00     0.002 A 
HETATM   20  C13 UNK     1      17.044   8.483  33.206  1.00  0.00     0.123 A 
HETATM   21  C20 UNK     1      14.757   7.807  32.934  1.00  0.00     0.014 A 
HETATM   22  O1  UNK     1      18.422   8.194  33.230  1.00  0.00    -0.271 OA
HETATM   23  C19 UNK     1      16.655   9.800  33.449  1.00  0.00     0.102 A 
HETATM   24  C18 UNK     1      18.907   6.909  33.000  1.00  0.00     0.304 A 
HETATM   25  O7  UNK     1      20.109   6.666  33.024  1.00  0.00    -0.259 OA
HETATM   26  C21 UNK     1      15.299  10.116  33.433  1.00  0.00     0.040 A 
HETATM   27  C22 UNK     1      14.352   9.122  33.176  1.00  0.00     0.004 A 
BRANCH  23  28
HETATM   28  O5  UNK     1      17.573  10.770  33.700  1.00  0.00    -0.353 OA
HETATM   29  C26 UNK     1      17.085  12.016  34.195  1.00  0.00     0.210 C 
ENDBRANCH  23  28
ENDBRANCH  14  17
ENDBRANCH   5  13
BRANCH   3  30
HETATM   30  C9  UNK     1      18.543   1.976  36.078  1.00  0.00     0.297 C 
HETATM   31  O4  UNK     1      19.579   2.157  36.734  1.00  0.00    -0.259 OA
BRANCH  30  32
HETATM   32  O2  UNK     1      17.292   2.233  36.595  1.00  0.00    -0.318 OA
BRANCH  32  33
HETATM   33  C23 UNK     1      16.645   1.158  37.287  1.00  0.00     0.174 C 
HETATM   34  C24 UNK     1      15.413   0.744  36.511  1.00  0.00     0.034 C 
ENDBRANCH  32  33
ENDBRANCH  30  32
ENDBRANCH   3  30
BRANCH  12  35
HETATM   35  O3  UNK     1      19.780  -4.225  37.668  1.00  0.00    -0.356 OA
HETATM   36  C25 UNK     1      21.098  -4.774  37.626  1.00  0.00     0.210 C 
ENDBRANCH  12  35
TORSDOF 7
ENDMDL
MODEL 10
REMARK VINA RESULT:      -7.9     13.525     17.198
REMARK  7 active torsions:
REMARK  status: ('A' for Active; 'I' for Inactive)
REMARK    1  A    between atoms: C23_32  and  O2_3 
REMARK    2  A    between atoms: C9_18  and  O2_3 
REMARK    3  A    between atoms: C17_26  and  O3_4 
REMARK    4  A    between atoms: C19_28  and  O5_6 
REMARK       I    between atoms: C12_21  and  N1_9 
REMARK    5  A    between atoms: C4_13  and  N1_9 
REMARK    6  A    between atoms: C2_11  and  C9_18 
REMARK    7  A    between atoms: C10_19  and  C12_21 
ROOT
HETATM    1  S1  UNK     1      15.027  12.905   8.916  1.00  0.00    -0.075 SA
HETATM    2  C1  UNK     1      17.366  12.080   9.583  1.00  0.00     0.006 A 
HETATM    3  C2  UNK     1      16.539  10.921   9.534  1.00  0.00     0.085 A 
HETATM    4  C3  UNK     1      16.671  13.227   9.270  1.00  0.00    -0.007 A 
HETATM    5  C4  UNK     1      15.266  11.245   9.187  1.00  0.00     0.094 A 
HETATM    6  C5  UNK     1      18.769  12.131   9.913  1.00  0.00    -0.024 A 
HETATM    7  C6  UNK     1      17.149  14.629   9.204  1.00  0.00     0.057 C 
HETATM    8  C7  UNK     1      19.721  12.006   8.906  1.00  0.00     0.015 A 
HETATM    9  C8  UNK     1      19.162  12.306  11.237  1.00  0.00     0.015 A 
HETATM   10  C15 UNK     1      21.078  12.056   9.225  1.00  0.00     0.037 A 
HETATM   11  C16 UNK     1      20.519  12.356  11.557  1.00  0.00     0.037 A 
HETATM   12  C17 UNK     1      21.478  12.230  10.551  1.00  0.00     0.068 A 
ENDROOT
BRANCH   5  13
HETATM   13  N1  UNK     1      14.137  10.435   9.020  1.00  0.00    -0.316 N 
HETATM   14  C12 UNK     1      13.281  10.008  10.025  1.00  0.00     0.262 C 
HETATM   15  O6  UNK     1      13.335  10.244  11.230  1.00  0.00    -0.267 OA
HETATM   16  H1  UNK     1      13.951  10.173   8.057  1.00  0.00     0.169 HD
BRANCH  14  17
HETATM   17  C10 UNK     1      12.196   9.170   9.500  1.00  0.00     0.108 A 
HETATM   18  C14 UNK     1      12.479   8.454   8.406  1.00  0.00     0.037 A 
HETATM   19  C11 UNK     1      11.468   7.593   7.812  1.00  0.00     0.002 A 
HETATM   20  C13 UNK     1      10.209   7.529   8.399  1.00  0.00     0.123 A 
HETATM   21  C20 UNK     1      11.719   6.828   6.670  1.00  0.00     0.014 A 
HETATM   22  O1  UNK     1       9.917   8.285   9.551  1.00  0.00    -0.271 OA
HETATM   23  C19 UNK     1       9.196   6.724   7.880  1.00  0.00     0.102 A 
HETATM   24  C18 UNK     1      10.864   9.117  10.143  1.00  0.00     0.304 A 
HETATM   25  O7  UNK     1      10.602   9.771  11.147  1.00  0.00    -0.259 OA
HETATM   26  C21 UNK     1       9.455   5.965   6.742  1.00  0.00     0.040 A 
HETATM   27  C22 UNK     1      10.713   6.016   6.138  1.00  0.00     0.004 A 
BRANCH  23  28
HETATM   28  O5  UNK     1       7.970   6.671   8.465  1.00  0.00    -0.353 OA
HETATM   29  C26 UNK     1       7.678   5.524   9.262  1.00  0.00     0.210 C 
ENDBRANCH  23  28
ENDBRANCH  14  17
ENDBRANCH   5  13
BRANCH   3  30
HETATM   30  C9  UNK     1      16.964   9.572   9.809  1.00  0.00     0.297 C 
HETATM   31  O4  UNK     1      17.822   8.969   9.147  1.00  0.00    -0.259 OA
BRANCH  30  32
HETATM   32  O2  UNK     1      16.327   8.994  10.885  1.00  0.00    -0.318 OA
BRANCH  32  33
HETATM   33  C23 UNK     1      16.444   7.572  11.019  1.00  0.00     0.174 C 
HETATM   34  C24 UNK     1      15.219   6.918  10.420  1.00  0.00     0.034 C 
ENDBRANCH  32  33
ENDBRANCH  30  32
ENDBRANCH   3  30
BRANCH  12  35
HETATM   35  O3  UNK     1      22.802  12.280  10.861  1.00  0.00    -0.356 OA
HETATM   36  C25 UNK     1      23.535  13.414  10.397  1.00  0.00     0.210 C 
ENDBRANCH  12  35
TORSDOF 7
ENDMDL
