MODEL 1
REMARK VINA RESULT:      -7.0      0.000      0.000
REMARK  2 active torsions:
REMARK  status: ('A' for Active; 'I' for Inactive)
REMARK    1  A    between atoms: C7_11  and  O2_2 
REMARK    2  A    between atoms: C10_14  and  C4_8 
ROOT
HETATM    1  O1  UNK     1      18.159   3.133  33.164  1.00  0.00    -0.274 OA
HETATM    2  O3  UNK     1      18.253   0.948  32.499  1.00  0.00    -0.259 OA
HETATM    3  C1  UNK     1      18.543   4.898  31.537  1.00  0.00    -0.001 A 
HETATM    4  C2  UNK     1      18.257   4.500  32.839  1.00  0.00     0.092 A 
HETATM    5  C3  UNK     1      18.738   3.881  30.516  1.00  0.00     0.035 A 
HETATM    6  C4  UNK     1      18.642   2.583  30.830  1.00  0.00     0.086 A 
HETATM    7  C5  UNK     1      18.633   6.264  31.255  1.00  0.00     0.017 A 
HETATM    8  C6  UNK     1      18.059   5.424  33.863  1.00  0.00     0.075 A 
HETATM    9  C7  UNK     1      18.150   6.784  33.573  1.00  0.00     0.070 A 
HETATM   10  C8  UNK     1      18.437   7.203  32.271  1.00  0.00     0.038 A 
HETATM   11  C9  UNK     1      18.339   2.136  32.209  1.00  0.00     0.302 A 
ENDROOT
BRANCH   6  12
HETATM   12  C10 UNK     1      18.856   1.634  29.732  1.00  0.00     0.161 C 
HETATM   13  O4  UNK     1      19.799   0.842  29.765  1.00  0.00    -0.293 OA
HETATM   14  C11 UNK     1      17.886   1.657  28.579  1.00  0.00     0.097 C 
ENDBRANCH   6  12
BRANCH   9  15
HETATM   15  O2  UNK     1      17.960   7.704  34.556  1.00  0.00    -0.356 OA
HETATM   16  C12 UNK     1      16.617   7.935  34.979  1.00  0.00     0.210 C 
ENDBRANCH   9  15
TORSDOF 2
ENDMDL
MODEL 2
REMARK VINA RESULT:      -7.0      1.234      1.495
REMARK  2 active torsions:
REMARK  status: ('A' for Active; 'I' for Inactive)
REMARK    1  A    between atoms: C7_11  and  O2_2 
REMARK    2  A    between atoms: C10_14  and  C4_8 
ROOT
HETATM    1  O1  UNK     1      18.197   2.524  32.358  1.00  0.00    -0.274 OA
HETATM    2  O3  UNK     1      18.464   0.290  31.956  1.00  0.00    -0.259 OA
HETATM    3  C1  UNK     1      18.698   4.127  30.601  1.00  0.00    -0.001 A 
HETATM    4  C2  UNK     1      18.275   3.853  31.897  1.00  0.00     0.092 A 
HETATM    5  C3  UNK     1      19.058   3.020  29.727  1.00  0.00     0.035 A 
HETATM    6  C4  UNK     1      18.981   1.760  30.171  1.00  0.00     0.086 A 
HETATM    7  C5  UNK     1      18.763   5.458  30.180  1.00  0.00     0.017 A 
HETATM    8  C6  UNK     1      17.916   4.867  32.782  1.00  0.00     0.075 A 
HETATM    9  C7  UNK     1      17.983   6.192  32.356  1.00  0.00     0.070 A 
HETATM   10  C8  UNK     1      18.406   6.486  31.057  1.00  0.00     0.038 A 
HETATM   11  C9  UNK     1      18.534   1.444  31.547  1.00  0.00     0.302 A 
ENDROOT
BRANCH   6  12
HETATM   12  C10 UNK     1      19.366   0.713  29.217  1.00  0.00     0.161 C 
HETATM   13  O4  UNK     1      18.730   0.554  28.173  1.00  0.00    -0.293 OA
HETATM   14  C11 UNK     1      20.558  -0.145  29.551  1.00  0.00     0.097 C 
ENDBRANCH   6  12
BRANCH   9  15
HETATM   15  O2  UNK     1      17.637   7.198  33.203  1.00  0.00    -0.356 OA
HETATM   16  C12 UNK     1      17.008   6.827  34.429  1.00  0.00     0.210 C 
ENDBRANCH   9  15
TORSDOF 2
ENDMDL
MODEL 3
REMARK VINA RESULT:      -7.0     13.536     16.274
REMARK  2 active torsions:
REMARK  status: ('A' for Active; 'I' for Inactive)
REMARK    1  A    between atoms: C7_11  and  O2_2 
REMARK    2  A    between atoms: C10_14  and  C4_8 
ROOT
HETATM    1  O1  UNK     1      19.309   0.671  15.110  1.00  0.00    -0.274 OA
HETATM    2  O3  UNK     1      19.275  -0.749  13.320  1.00  0.00    -0.259 OA
HETATM    3  C1  UNK     1      18.920  -0.206  17.344  1.00  0.00    -0.001 A 
HETATM    4  C2  UNK     1      19.188   0.867  16.501  1.00  0.00     0.092 A 
HETATM    5  C3  UNK     1      18.767  -1.534  16.770  1.00  0.00     0.035 A 
HETATM    6  C4  UNK     1      18.884  -1.714  15.449  1.00  0.00     0.086 A 
HETATM    7  C5  UNK     1      18.806   0.029  18.717  1.00  0.00     0.017 A 
HETATM    8  C6  UNK     1      19.346   2.163  16.987  1.00  0.00     0.075 A 
HETATM    9  C7  UNK     1      19.231   2.388  18.357  1.00  0.00     0.070 A 
HETATM   10  C8  UNK     1      18.962   1.323  19.220  1.00  0.00     0.038 A 
HETATM   11  C9  UNK     1      19.169  -0.587  14.531  1.00  0.00     0.302 A 
ENDROOT
BRANCH   6  12
HETATM   12  C10 UNK     1      18.713  -3.089  14.965  1.00  0.00     0.161 C 
HETATM   13  O4  UNK     1      17.737  -3.392  14.276  1.00  0.00    -0.293 OA
HETATM   14  C11 UNK     1      19.765  -4.103  15.331  1.00  0.00     0.097 C 
ENDBRANCH   6  12
BRANCH   9  15
HETATM   15  O2  UNK     1      19.382   3.645  18.855  1.00  0.00    -0.356 OA
HETATM   16  C12 UNK     1      20.578   4.342  18.509  1.00  0.00     0.210 C 
ENDBRANCH   9  15
TORSDOF 2
ENDMDL
MODEL 4
REMARK VINA RESULT:      -6.9      1.600      5.910
REMARK  2 active torsions:
REMARK  status: ('A' for Active; 'I' for Inactive)
REMARK    1  A    between atoms: C7_11  and  O2_2 
REMARK    2  A    between atoms: C10_14  and  C4_8 
ROOT
HETATM    1  O1  UNK     1      17.351   5.416  33.567  1.00  0.00    -0.274 OA
HETATM    2  O3  UNK     1      17.014   7.076  35.101  1.00  0.00    -0.259 OA
HETATM    3  C1  UNK     1      18.849   5.801  31.691  1.00  0.00    -0.001 A 
HETATM    4  C2  UNK     1      17.982   4.967  32.390  1.00  0.00     0.092 A 
HETATM    5  C3  UNK     1      19.096   7.143  32.197  1.00  0.00     0.035 A 
HETATM    6  C4  UNK     1      18.494   7.563  33.316  1.00  0.00     0.086 A 
HETATM    7  C5  UNK     1      19.454   5.321  30.528  1.00  0.00     0.017 A 
HETATM    8  C6  UNK     1      17.703   3.672  31.960  1.00  0.00     0.075 A 
HETATM    9  C7  UNK     1      18.311   3.201  30.798  1.00  0.00     0.070 A 
HETATM   10  C8  UNK     1      19.185   4.024  30.083  1.00  0.00     0.038 A 
HETATM   11  C9  UNK     1      17.567   6.693  34.075  1.00  0.00     0.302 A 
ENDROOT
BRANCH   6  12
HETATM   12  C10 UNK     1      18.806   8.932  33.745  1.00  0.00     0.161 C 
HETATM   13  O4  UNK     1      18.040   9.860  33.480  1.00  0.00    -0.293 OA
HETATM   14  C11 UNK     1      20.080   9.157  34.518  1.00  0.00     0.097 C 
ENDBRANCH   6  12
BRANCH   9  15
HETATM   15  O2  UNK     1      18.055   1.939  30.359  1.00  0.00    -0.356 OA
HETATM   16  C12 UNK     1      17.955   1.749  28.948  1.00  0.00     0.210 C 
ENDBRANCH   9  15
TORSDOF 2
ENDMDL
MODEL 5
REMARK VINA RESULT:      -6.8      3.465      6.290
REMARK  2 active torsions:
REMARK  status: ('A' for Active; 'I' for Inactive)
REMARK    1  A    between atoms: C7_11  and  O2_2 
REMARK    2  A    between atoms: C10_14  and  C4_8 
ROOT
HETATM    1  O1  UNK     1      19.015  -0.691  33.555  1.00  0.00    -0.274 OA
HETATM    2  O3  UNK     1      18.733  -1.311  35.737  1.00  0.00    -0.259 OA
HETATM    3  C1  UNK     1      18.433   1.566  32.865  1.00  0.00    -0.001 A 
HETATM    4  C2  UNK     1      18.915   0.298  32.557  1.00  0.00     0.092 A 
HETATM    5  C3  UNK     1      18.036   1.856  34.235  1.00  0.00     0.035 A 
HETATM    6  C4  UNK     1      18.134   0.912  35.179  1.00  0.00     0.086 A 
HETATM    7  C5  UNK     1      18.347   2.520  31.848  1.00  0.00     0.017 A 
HETATM    8  C6  UNK     1      19.312  -0.042  31.266  1.00  0.00     0.075 A 
HETATM    9  C7  UNK     1      19.223   0.914  30.257  1.00  0.00     0.070 A 
HETATM   10  C8  UNK     1      18.742   2.193  30.548  1.00  0.00     0.038 A 
HETATM   11  C9  UNK     1      18.643  -0.444  34.874  1.00  0.00     0.302 A 
ENDROOT
BRANCH   6  12
HETATM   12  C10 UNK     1      17.708   1.300  36.529  1.00  0.00     0.161 C 
HETATM   13  O4  UNK     1      18.490   1.871  37.291  1.00  0.00    -0.293 OA
HETATM   14  C11 UNK     1      16.294   0.984  36.941  1.00  0.00     0.097 C 
ENDBRANCH   6  12
BRANCH   9  15
HETATM   15  O2  UNK     1      19.606   0.604  28.990  1.00  0.00    -0.356 OA
HETATM   16  C12 UNK     1      20.298  -0.630  28.803  1.00  0.00     0.210 C 
ENDBRANCH   9  15
TORSDOF 2
ENDMDL
MODEL 6
REMARK VINA RESULT:      -6.7     21.639     24.407
REMARK  2 active torsions:
REMARK  status: ('A' for Active; 'I' for Inactive)
REMARK    1  A    between atoms: C7_11  and  O2_2 
REMARK    2  A    between atoms: C10_14  and  C4_8 
ROOT
HETATM    1  O1  UNK     1      14.163   5.024   8.570  1.00  0.00    -0.274 OA
HETATM    2  O3  UNK     1      16.188   4.708   9.582  1.00  0.00    -0.259 OA
HETATM    3  C1  UNK     1      13.186   7.249   8.510  1.00  0.00    -0.001 A 
HETATM    4  C2  UNK     1      13.121   5.895   8.195  1.00  0.00     0.092 A 
HETATM    5  C3  UNK     1      14.347   7.751   9.229  1.00  0.00     0.035 A 
HETATM    6  C4  UNK     1      15.333   6.918   9.582  1.00  0.00     0.086 A 
HETATM    7  C5  UNK     1      12.133   8.082   8.122  1.00  0.00     0.017 A 
HETATM    8  C6  UNK     1      12.038   5.352   7.508  1.00  0.00     0.075 A 
HETATM    9  C7  UNK     1      10.992   6.189   7.125  1.00  0.00     0.070 A 
HETATM   10  C8  UNK     1      11.040   7.551   7.431  1.00  0.00     0.038 A 
HETATM   11  C9  UNK     1      15.285   5.474   9.259  1.00  0.00     0.302 A 
ENDROOT
BRANCH   6  12
HETATM   12  C10 UNK     1      16.460   7.518  10.305  1.00  0.00     0.161 C 
HETATM   13  O4  UNK     1      17.595   7.493   9.826  1.00  0.00    -0.293 OA
HETATM   14  C11 UNK     1      16.181   8.166  11.636  1.00  0.00     0.097 C 
ENDBRANCH   6  12
BRANCH   9  15
HETATM   15  O2  UNK     1       9.925   5.681   6.452  1.00  0.00    -0.356 OA
HETATM   16  C12 UNK     1       8.630   6.109   6.869  1.00  0.00     0.210 C 
ENDBRANCH   9  15
TORSDOF 2
ENDMDL
MODEL 7
REMARK VINA RESULT:      -6.7      2.872      4.079
REMARK  2 active torsions:
REMARK  status: ('A' for Active; 'I' for Inactive)
REMARK    1  A    between atoms: C7_11  and  O2_2 
REMARK    2  A    between atoms: C10_14  and  C4_8 
ROOT
HETATM    1  O1  UNK     1      19.072   7.527  33.680  1.00  0.00    -0.274 OA
HETATM    2  O3  UNK     1      20.824   6.318  32.848  1.00  0.00    -0.259 OA
HETATM    3  C1  UNK     1      17.042   7.758  32.363  1.00  0.00    -0.001 A 
HETATM    4  C2  UNK     1      17.765   8.028  33.520  1.00  0.00     0.092 A 
HETATM    5  C3  UNK     1      17.656   6.949  31.321  1.00  0.00     0.035 A 
HETATM    6  C4  UNK     1      18.897   6.476  31.479  1.00  0.00     0.086 A 
HETATM    7  C5  UNK     1      15.749   8.273  32.241  1.00  0.00     0.017 A 
HETATM    8  C6  UNK     1      17.234   8.794  34.555  1.00  0.00     0.075 A 
HETATM    9  C7  UNK     1      15.944   9.305  34.426  1.00  0.00     0.070 A 
HETATM   10  C8  UNK     1      15.203   9.044  33.271  1.00  0.00     0.038 A 
HETATM   11  C9  UNK     1      19.686   6.750  32.702  1.00  0.00     0.302 A 
ENDROOT
BRANCH   6  12
HETATM   12  C10 UNK     1      19.429   5.672  30.372  1.00  0.00     0.161 C 
HETATM   13  O4  UNK     1      20.210   6.168  29.558  1.00  0.00    -0.293 OA
HETATM   14  C11 UNK     1      18.997   4.232  30.274  1.00  0.00     0.097 C 
ENDBRANCH   6  12
BRANCH   9  15
HETATM   15  O2  UNK     1      15.406  10.055  35.424  1.00  0.00    -0.356 OA
HETATM   16  C12 UNK     1      14.216  10.782  35.121  1.00  0.00     0.210 C 
ENDBRANCH   9  15
TORSDOF 2
ENDMDL
MODEL 8
REMARK VINA RESULT:      -6.6     22.186     24.422
REMARK  2 active torsions:
REMARK  status: ('A' for Active; 'I' for Inactive)
REMARK    1  A    between atoms: C7_11  and  O2_2 
REMARK    2  A    between atoms: C10_14  and  C4_8 
ROOT
HETATM    1  O1  UNK     1      11.575   7.705   9.751  1.00  0.00    -0.274 OA
HETATM    2  O3  UNK     1       9.365   7.999   9.246  1.00  0.00    -0.259 OA
HETATM    3  C1  UNK     1      12.891   6.100   8.486  1.00  0.00    -0.001 A 
HETATM    4  C2  UNK     1      12.797   7.054   9.495  1.00  0.00     0.092 A 
HETATM    5  C3  UNK     1      11.708   5.787   7.700  1.00  0.00     0.035 A 
HETATM    6  C4  UNK     1      10.550   6.410   7.948  1.00  0.00     0.086 A 
HETATM    7  C5  UNK     1      14.121   5.475   8.263  1.00  0.00     0.017 A 
HETATM    8  C6  UNK     1      13.893   7.400  10.282  1.00  0.00     0.075 A 
HETATM    9  C7  UNK     1      15.115   6.772  10.053  1.00  0.00     0.070 A 
HETATM   10  C8  UNK     1      15.229   5.812   9.045  1.00  0.00     0.038 A 
HETATM   11  C9  UNK     1      10.426   7.427   9.016  1.00  0.00     0.302 A 
ENDROOT
BRANCH   6  12
HETATM   12  C10 UNK     1       9.413   6.025   7.102  1.00  0.00     0.161 C 
HETATM   13  O4  UNK     1       8.478   5.374   7.571  1.00  0.00    -0.293 OA
HETATM   14  C11 UNK     1       9.429   6.455   5.659  1.00  0.00     0.097 C 
ENDBRANCH   6  12
BRANCH   9  15
HETATM   15  O2  UNK     1      16.198   7.094  10.810  1.00  0.00    -0.356 OA
HETATM   16  C12 UNK     1      17.407   7.402  10.117  1.00  0.00     0.210 C 
ENDBRANCH   9  15
TORSDOF 2
ENDMDL
MODEL 9
REMARK VINA RESULT:      -6.6      3.577      4.981
REMARK  2 active torsions:
REMARK  status: ('A' for Active; 'I' for Inactive)
REMARK    1  A    between atoms: C7_11  and  O2_2 
REMARK    2  A    between atoms: C10_14  and  C4_8 
ROOT
HETATM    1  O1  UNK     1      18.349   2.280  32.110  1.00  0.00    -0.274 OA
HETATM    2  O3  UNK     1      18.709   2.877  29.933  1.00  0.00    -0.259 OA
HETATM    3  C1  UNK     1      18.780  -0.006  32.814  1.00  0.00    -0.001 A 
HETATM    4  C2  UNK     1      18.371   1.290  33.111  1.00  0.00     0.092 A 
HETATM    5  C3  UNK     1      19.186  -0.322  31.453  1.00  0.00     0.035 A 
HETATM    6  C4  UNK     1      19.164   0.624  30.506  1.00  0.00     0.086 A 
HETATM    7  C5  UNK     1      18.788  -0.961  33.833  1.00  0.00     0.017 A 
HETATM    8  C6  UNK     1      17.972   1.657  34.394  1.00  0.00     0.075 A 
HETATM    9  C7  UNK     1      17.982   0.699  35.406  1.00  0.00     0.070 A 
HETATM   10  C8  UNK     1      18.389  -0.608  35.126  1.00  0.00     0.038 A 
HETATM   11  C9  UNK     1      18.732   2.009  30.800  1.00  0.00     0.302 A 
ENDROOT
BRANCH   6  12
HETATM   12  C10 UNK     1      19.590   0.207  29.165  1.00  0.00     0.161 C 
HETATM   13  O4  UNK     1      18.939   0.536  28.172  1.00  0.00    -0.293 OA
HETATM   14  C11 UNK     1      20.843  -0.621  29.047  1.00  0.00     0.097 C 
ENDBRANCH   6  12
BRANCH   9  15
HETATM   15  O2  UNK     1      17.596   1.035  36.666  1.00  0.00    -0.356 OA
HETATM   16  C12 UNK     1      17.685   0.020  37.665  1.00  0.00     0.210 C 
ENDBRANCH   9  15
TORSDOF 2
ENDMDL
MODEL 10
REMARK VINA RESULT:      -6.5     13.892     18.178
REMARK  2 active torsions:
REMARK  status: ('A' for Active; 'I' for Inactive)
REMARK    1  A    between atoms: C7_11  and  O2_2 
REMARK    2  A    between atoms: C10_14  and  C4_8 
ROOT
HETATM    1  O1  UNK     1      19.476   0.595  14.763  1.00  0.00    -0.274 OA
HETATM    2  O3  UNK     1      19.843   2.481  16.000  1.00  0.00    -0.259 OA
HETATM    3  C1  UNK     1      18.717  -1.434  15.865  1.00  0.00    -0.001 A 
HETATM    4  C2  UNK     1      19.088  -0.758  14.708  1.00  0.00     0.092 A 
HETATM    5  C3  UNK     1      18.735  -0.722  17.134  1.00  0.00     0.035 A 
HETATM    6  C4  UNK     1      19.104   0.564  17.180  1.00  0.00     0.086 A 
HETATM    7  C5  UNK     1      18.339  -2.776  15.770  1.00  0.00     0.017 A 
HETATM    8  C6  UNK     1      19.092  -1.382  13.462  1.00  0.00     0.075 A 
HETATM    9  C7  UNK     1      18.714  -2.721  13.376  1.00  0.00     0.070 A 
HETATM   10  C8  UNK     1      18.339  -3.416  14.528  1.00  0.00     0.038 A 
HETATM   11  C9  UNK     1      19.503   1.303  15.961  1.00  0.00     0.302 A 
ENDROOT
BRANCH   6  12
HETATM   12  C10 UNK     1      19.090   1.194  18.505  1.00  0.00     0.161 C 
HETATM   13  O4  UNK     1      18.681   2.348  18.644  1.00  0.00    -0.293 OA
HETATM   14  C11 UNK     1      19.582   0.386  19.677  1.00  0.00     0.097 C 
ENDBRANCH   6  12
BRANCH   9  15
HETATM   15  O2  UNK     1      18.710  -3.350  12.170  1.00  0.00    -0.356 OA
HETATM   16  C12 UNK     1      19.386  -2.700  11.095  1.00  0.00     0.210 C 
ENDBRANCH   9  15
TORSDOF 2
ENDMDL
