MODEL 1
REMARK VINA RESULT:      -9.4      0.000      0.000
REMARK  2 active torsions:
REMARK  status: ('A' for Active; 'I' for Inactive)
REMARK       I    between atoms: C5_11  and  N1_6 
REMARK    1  A    between atoms: C7_13  and  N1_6 
REMARK    2  A    between atoms: C2_8  and  C5_11 
ROOT
HETATM    1  O2  UNK     1      17.621   3.288  32.859  1.00  0.00    -0.267 OA
HETATM    2  N1  UNK     1      18.783   4.765  31.442  1.00  0.00    -0.323 N 
HETATM    3  C5  UNK     1      18.308   3.534  31.870  1.00  0.00     0.262 C 
HETATM    4  H3  UNK     1      19.326   4.802  30.582  1.00  0.00     0.169 HD
ENDROOT
BRANCH   3   5
HETATM    5  C2  UNK     1      18.719   2.441  30.979  1.00  0.00     0.108 A 
HETATM    6  C4  UNK     1      19.143   1.321  31.575  1.00  0.00     0.037 A 
HETATM    7  C1  UNK     1      19.572   0.183  30.775  1.00  0.00    -0.001 A 
HETATM    8  C3  UNK     1      19.532   0.282  29.388  1.00  0.00     0.089 A 
HETATM    9  C6  UNK     1      20.022  -1.005  31.354  1.00  0.00     0.014 A 
HETATM   10  O1  UNK     1      19.084   1.465  28.768  1.00  0.00    -0.274 OA
HETATM   11  C9  UNK     1      19.928  -0.770  28.566  1.00  0.00     0.038 A 
HETATM   12  C8  UNK     1      18.668   2.569  29.506  1.00  0.00     0.304 A 
HETATM   13  O3  UNK     1      18.281   3.595  28.956  1.00  0.00    -0.259 OA
HETATM   14  C11 UNK     1      20.377  -1.953  29.151  1.00  0.00     0.003 A 
HETATM   15  C10 UNK     1      20.423  -2.070  30.542  1.00  0.00     0.001 A 
ENDBRANCH   3   5
BRANCH   2  16
HETATM   16  C7  UNK     1      18.582   6.028  32.051  1.00  0.00     0.038 A 
HETATM   17  C12 UNK     1      19.569   6.549  32.870  1.00  0.00     0.075 A 
HETATM   18  C14 UNK     1      19.370   7.793  33.469  1.00  0.00     0.157 A 
HETATM   19  F1  UNK     1      20.314   8.312  34.265  1.00  0.00    -0.203 F 
HETATM   20  C16 UNK     1      18.189   8.497  33.239  1.00  0.00     0.154 A 
HETATM   21  C15 UNK     1      17.204   7.957  32.410  1.00  0.00     0.048 A 
HETATM   22  F2  UNK     1      17.996   9.692  33.815  1.00  0.00    -0.203 F 
HETATM   23  C13 UNK     1      17.403   6.713  31.811  1.00  0.00     0.032 A 
ENDBRANCH   2  16
TORSDOF 2
ENDMDL
MODEL 2
REMARK VINA RESULT:      -9.4      8.932     11.962
REMARK  2 active torsions:
REMARK  status: ('A' for Active; 'I' for Inactive)
REMARK       I    between atoms: C5_11  and  N1_6 
REMARK    1  A    between atoms: C7_13  and  N1_6 
REMARK    2  A    between atoms: C2_8  and  C5_11 
ROOT
HETATM    1  O2  UNK     1      21.194  -4.410  36.955  1.00  0.00    -0.267 OA
HETATM    2  N1  UNK     1      18.945  -5.059  36.708  1.00  0.00    -0.323 N 
HETATM    3  C5  UNK     1      20.015  -4.177  36.693  1.00  0.00     0.262 C 
HETATM    4  H3  UNK     1      18.027  -4.711  36.442  1.00  0.00     0.169 HD
ENDROOT
BRANCH   3   5
HETATM    5  C2  UNK     1      19.610  -2.820  36.305  1.00  0.00     0.108 A 
HETATM    6  C4  UNK     1      18.910  -2.131  37.213  1.00  0.00     0.037 A 
HETATM    7  C1  UNK     1      18.464  -0.777  36.920  1.00  0.00    -0.001 A 
HETATM    8  C3  UNK     1      18.776  -0.217  35.686  1.00  0.00     0.089 A 
HETATM    9  C6  UNK     1      17.731  -0.021  37.838  1.00  0.00     0.014 A 
HETATM   10  O1  UNK     1      19.513  -0.949  34.734  1.00  0.00    -0.274 OA
HETATM   11  C9  UNK     1      18.378   1.073  35.343  1.00  0.00     0.038 A 
HETATM   12  C8  UNK     1      19.954  -2.246  34.986  1.00  0.00     0.304 A 
HETATM   13  O3  UNK     1      20.594  -2.875  34.150  1.00  0.00    -0.259 OA
HETATM   14  C11 UNK     1      17.647   1.822  36.264  1.00  0.00     0.003 A 
HETATM   15  C10 UNK     1      17.325   1.276  37.509  1.00  0.00     0.001 A 
ENDBRANCH   3   5
BRANCH   2  16
HETATM   16  C7  UNK     1      18.966  -6.438  37.030  1.00  0.00     0.038 A 
HETATM   17  C12 UNK     1      19.346  -6.830  38.303  1.00  0.00     0.075 A 
HETATM   18  C14 UNK     1      19.366  -8.188  38.620  1.00  0.00     0.157 A 
HETATM   19  F1  UNK     1      19.732  -8.585  39.846  1.00  0.00    -0.203 F 
HETATM   20  C16 UNK     1      19.005  -9.134  37.660  1.00  0.00     0.154 A 
HETATM   21  C15 UNK     1      18.624  -8.722  36.383  1.00  0.00     0.048 A 
HETATM   22  F2  UNK     1      19.025 -10.439  37.964  1.00  0.00    -0.203 F 
HETATM   23  C13 UNK     1      18.604  -7.364  36.066  1.00  0.00     0.032 A 
ENDBRANCH   2  16
TORSDOF 2
ENDMDL
MODEL 3
REMARK VINA RESULT:      -9.2     13.803     16.125
REMARK  2 active torsions:
REMARK  status: ('A' for Active; 'I' for Inactive)
REMARK       I    between atoms: C5_11  and  N1_6 
REMARK    1  A    between atoms: C7_13  and  N1_6 
REMARK    2  A    between atoms: C2_8  and  C5_11 
ROOT
HETATM    1  O2  UNK     1      17.109  -1.724  17.079  1.00  0.00    -0.267 OA
HETATM    2  N1  UNK     1      19.177  -0.608  16.946  1.00  0.00    -0.323 N 
HETATM    3  C5  UNK     1      18.179  -1.476  16.528  1.00  0.00     0.262 C 
HETATM    4  H3  UNK     1      20.001  -0.499  16.359  1.00  0.00     0.169 HD
ENDROOT
BRANCH   3   5
HETATM    5  C2  UNK     1      18.518  -2.142  15.264  1.00  0.00     0.108 A 
HETATM    6  C4  UNK     1      18.232  -3.447  15.187  1.00  0.00     0.037 A 
HETATM    7  C1  UNK     1      18.532  -4.193  13.974  1.00  0.00    -0.001 A 
HETATM    8  C3  UNK     1      19.117  -3.528  12.902  1.00  0.00     0.089 A 
HETATM    9  C6  UNK     1      18.250  -5.555  13.851  1.00  0.00     0.014 A 
HETATM   10  O1  UNK     1      19.415  -2.154  12.989  1.00  0.00    -0.274 OA
HETATM   11  C9  UNK     1      19.429  -4.184  11.714  1.00  0.00     0.038 A 
HETATM   12  C8  UNK     1      19.141  -1.414  14.136  1.00  0.00     0.304 A 
HETATM   13  O3  UNK     1      19.406  -0.218  14.202  1.00  0.00    -0.259 OA
HETATM   14  C11 UNK     1      19.145  -5.544  11.598  1.00  0.00     0.003 A 
HETATM   15  C10 UNK     1      18.557  -6.227  12.664  1.00  0.00     0.001 A 
ENDBRANCH   3   5
BRANCH   2  16
HETATM   16  C7  UNK     1      19.189   0.197  18.111  1.00  0.00     0.038 A 
HETATM   17  C12 UNK     1      19.422  -0.396  19.341  1.00  0.00     0.075 A 
HETATM   18  C14 UNK     1      19.435   0.398  20.488  1.00  0.00     0.157 A 
HETATM   19  F1  UNK     1      19.657  -0.159  21.686  1.00  0.00    -0.203 F 
HETATM   20  C16 UNK     1      19.215   1.771  20.388  1.00  0.00     0.154 A 
HETATM   21  C15 UNK     1      18.982   2.352  19.141  1.00  0.00     0.048 A 
HETATM   22  F2  UNK     1      19.225   2.535  21.490  1.00  0.00    -0.203 F 
HETATM   23  C13 UNK     1      18.969   1.559  17.994  1.00  0.00     0.032 A 
ENDBRANCH   2  16
TORSDOF 2
ENDMDL
MODEL 4
REMARK VINA RESULT:      -9.1      3.591      8.074
REMARK  2 active torsions:
REMARK  status: ('A' for Active; 'I' for Inactive)
REMARK       I    between atoms: C5_11  and  N1_6 
REMARK    1  A    between atoms: C7_13  and  N1_6 
REMARK    2  A    between atoms: C2_8  and  C5_11 
ROOT
HETATM    1  O2  UNK     1      19.631   5.046  30.477  1.00  0.00    -0.267 OA
HETATM    2  N1  UNK     1      18.147   3.340  31.130  1.00  0.00    -0.323 N 
HETATM    3  C5  UNK     1      18.690   4.616  31.141  1.00  0.00     0.262 C 
HETATM    4  H3  UNK     1      17.348   3.148  31.730  1.00  0.00     0.169 HD
ENDROOT
BRANCH   3   5
HETATM    5  C2  UNK     1      18.001   5.503  32.086  1.00  0.00     0.108 A 
HETATM    6  C4  UNK     1      17.318   6.522  31.551  1.00  0.00     0.037 A 
HETATM    7  C1  UNK     1      16.603   7.456  32.408  1.00  0.00    -0.001 A 
HETATM    8  C3  UNK     1      16.642   7.270  33.786  1.00  0.00     0.089 A 
HETATM    9  C6  UNK     1      15.878   8.532  31.893  1.00  0.00     0.014 A 
HETATM   10  O1  UNK     1      17.362   6.195  34.343  1.00  0.00    -0.274 OA
HETATM   11  C9  UNK     1      15.979   8.127  34.661  1.00  0.00     0.038 A 
HETATM   12  C8  UNK     1      18.056   5.286  33.549  1.00  0.00     0.304 A 
HETATM   13  O3  UNK     1      18.681   4.354  34.044  1.00  0.00    -0.259 OA
HETATM   14  C11 UNK     1      15.258   9.200  34.139  1.00  0.00     0.003 A 
HETATM   15  C10 UNK     1      15.207   9.402  32.758  1.00  0.00     0.001 A 
ENDBRANCH   3   5
BRANCH   2  16
HETATM   16  C7  UNK     1      18.556   2.234  30.345  1.00  0.00     0.038 A 
HETATM   17  C12 UNK     1      19.519   1.371  30.841  1.00  0.00     0.075 A 
HETATM   18  C14 UNK     1      19.920   0.282  30.067  1.00  0.00     0.157 A 
HETATM   19  F1  UNK     1      20.852  -0.561  30.530  1.00  0.00    -0.203 F 
HETATM   20  C16 UNK     1      19.353   0.071  28.811  1.00  0.00     0.154 A 
HETATM   21  C15 UNK     1      18.383   0.950  28.327  1.00  0.00     0.048 A 
HETATM   22  F2  UNK     1      19.739  -0.974  28.067  1.00  0.00    -0.203 F 
HETATM   23  C13 UNK     1      17.981   2.040  29.100  1.00  0.00     0.032 A 
ENDBRANCH   2  16
TORSDOF 2
ENDMDL
MODEL 5
REMARK VINA RESULT:      -9.1      9.053     11.929
REMARK  2 active torsions:
REMARK  status: ('A' for Active; 'I' for Inactive)
REMARK       I    between atoms: C5_11  and  N1_6 
REMARK    1  A    between atoms: C7_13  and  N1_6 
REMARK    2  A    between atoms: C2_8  and  C5_11 
ROOT
HETATM    1  O2  UNK     1      20.067  -5.216  35.521  1.00  0.00    -0.267 OA
HETATM    2  N1  UNK     1      20.495  -4.484  37.717  1.00  0.00    -0.323 N 
HETATM    3  C5  UNK     1      20.102  -4.351  36.393  1.00  0.00     0.262 C 
HETATM    4  H3  UNK     1      20.445  -3.668  38.322  1.00  0.00     0.169 HD
ENDROOT
BRANCH   3   5
HETATM    5  C2  UNK     1      19.691  -2.978  36.073  1.00  0.00     0.108 A 
HETATM    6  C4  UNK     1      18.957  -2.350  36.999  1.00  0.00     0.037 A 
HETATM    7  C1  UNK     1      18.502  -0.986  36.772  1.00  0.00    -0.001 A 
HETATM    8  C3  UNK     1      18.843  -0.352  35.582  1.00  0.00     0.089 A 
HETATM    9  C6  UNK     1      17.735  -0.292  37.710  1.00  0.00     0.014 A 
HETATM   10  O1  UNK     1      19.616  -1.020  34.611  1.00  0.00    -0.274 OA
HETATM   11  C9  UNK     1      18.439   0.951  35.303  1.00  0.00     0.038 A 
HETATM   12  C8  UNK     1      20.065  -2.323  34.800  1.00  0.00     0.304 A 
HETATM   13  O3  UNK     1      20.737  -2.896  33.948  1.00  0.00    -0.259 OA
HETATM   14  C11 UNK     1      17.673   1.637  36.244  1.00  0.00     0.003 A 
HETATM   15  C10 UNK     1      17.322   1.017  37.445  1.00  0.00     0.001 A 
ENDBRANCH   3   5
BRANCH   2  16
HETATM   16  C7  UNK     1      20.948  -5.657  38.369  1.00  0.00     0.038 A 
HETATM   17  C12 UNK     1      20.024  -6.605  38.776  1.00  0.00     0.075 A 
HETATM   18  C14 UNK     1      20.470  -7.760  39.417  1.00  0.00     0.157 A 
HETATM   19  F1  UNK     1      19.590  -8.687  39.819  1.00  0.00    -0.203 F 
HETATM   20  C16 UNK     1      21.833  -7.950  39.643  1.00  0.00     0.154 A 
HETATM   21  C15 UNK     1      22.751  -6.985  39.226  1.00  0.00     0.048 A 
HETATM   22  F2  UNK     1      22.263  -9.059  40.261  1.00  0.00    -0.203 F 
HETATM   23  C13 UNK     1      22.304  -5.830  38.585  1.00  0.00     0.032 A 
ENDBRANCH   2  16
TORSDOF 2
ENDMDL
MODEL 6
REMARK VINA RESULT:      -9.0      3.926      7.910
REMARK  2 active torsions:
REMARK  status: ('A' for Active; 'I' for Inactive)
REMARK       I    between atoms: C5_11  and  N1_6 
REMARK    1  A    between atoms: C7_13  and  N1_6 
REMARK    2  A    between atoms: C2_8  and  C5_11 
ROOT
HETATM    1  O2  UNK     1      17.025   2.704  30.855  1.00  0.00    -0.267 OA
HETATM    2  N1  UNK     1      19.371   2.511  30.851  1.00  0.00    -0.323 N 
HETATM    3  C5  UNK     1      18.155   3.143  31.062  1.00  0.00     0.262 C 
HETATM    4  H3  UNK     1      20.225   3.008  31.096  1.00  0.00     0.169 HD
ENDROOT
BRANCH   3   5
HETATM    5  C2  UNK     1      18.322   4.499  31.601  1.00  0.00     0.108 A 
HETATM    6  C4  UNK     1      17.623   4.786  32.706  1.00  0.00     0.037 A 
HETATM    7  C1  UNK     1      17.723   6.104  33.314  1.00  0.00    -0.001 A 
HETATM    8  C3  UNK     1      18.553   7.054  32.729  1.00  0.00     0.089 A 
HETATM    9  C6  UNK     1      17.012   6.447  34.466  1.00  0.00     0.014 A 
HETATM   10  O1  UNK     1      19.285   6.745  31.566  1.00  0.00    -0.274 OA
HETATM   11  C9  UNK     1      18.692   8.334  33.261  1.00  0.00     0.038 A 
HETATM   12  C8  UNK     1      19.211   5.494  30.961  1.00  0.00     0.304 A 
HETATM   13  O3  UNK     1      19.852   5.235  29.948  1.00  0.00    -0.259 OA
HETATM   14  C11 UNK     1      17.980   8.669  34.411  1.00  0.00     0.003 A 
HETATM   15  C10 UNK     1      17.142   7.727  35.012  1.00  0.00     0.001 A 
ENDBRANCH   3   5
BRANCH   2  16
HETATM   16  C7  UNK     1      19.590   1.206  30.345  1.00  0.00     0.038 A 
HETATM   17  C12 UNK     1      19.160   0.894  29.066  1.00  0.00     0.075 A 
HETATM   18  C14 UNK     1      19.376  -0.391  28.569  1.00  0.00     0.157 A 
HETATM   19  F1  UNK     1      18.965  -0.710  27.335  1.00  0.00    -0.203 F 
HETATM   20  C16 UNK     1      20.020  -1.345  29.357  1.00  0.00     0.154 A 
HETATM   21  C15 UNK     1      20.447  -1.014  30.644  1.00  0.00     0.048 A 
HETATM   22  F2  UNK     1      20.227  -2.580  28.881  1.00  0.00    -0.203 F 
HETATM   23  C13 UNK     1      20.231   0.271  31.141  1.00  0.00     0.032 A 
ENDBRANCH   2  16
TORSDOF 2
ENDMDL
MODEL 7
REMARK VINA RESULT:      -9.0      1.450      2.202
REMARK  2 active torsions:
REMARK  status: ('A' for Active; 'I' for Inactive)
REMARK       I    between atoms: C5_11  and  N1_6 
REMARK    1  A    between atoms: C7_13  and  N1_6 
REMARK    2  A    between atoms: C2_8  and  C5_11 
ROOT
HETATM    1  O2  UNK     1      17.238   4.235  31.233  1.00  0.00    -0.267 OA
HETATM    2  N1  UNK     1      18.709   4.482  33.055  1.00  0.00    -0.323 N 
HETATM    3  C5  UNK     1      18.069   3.801  32.029  1.00  0.00     0.262 C 
HETATM    4  H3  UNK     1      19.393   3.980  33.616  1.00  0.00     0.169 HD
ENDROOT
BRANCH   3   5
HETATM    5  C2  UNK     1      18.489   2.397  31.950  1.00  0.00     0.108 A 
HETATM    6  C4  UNK     1      18.995   1.997  30.777  1.00  0.00     0.037 A 
HETATM    7  C1  UNK     1      19.439   0.622  30.602  1.00  0.00    -0.001 A 
HETATM    8  C3  UNK     1      19.328  -0.263  31.669  1.00  0.00     0.089 A 
HETATM    9  C6  UNK     1      19.973   0.162  29.397  1.00  0.00     0.014 A 
HETATM   10  O1  UNK     1      18.794   0.165  32.901  1.00  0.00    -0.274 OA
HETATM   11  C9  UNK     1      19.733  -1.591  31.566  1.00  0.00     0.038 A 
HETATM   12  C8  UNK     1      18.361   1.473  33.098  1.00  0.00     0.304 A 
HETATM   13  O3  UNK     1      17.896   1.835  34.174  1.00  0.00    -0.259 OA
HETATM   14  C11 UNK     1      20.265  -2.044  30.360  1.00  0.00     0.003 A 
HETATM   15  C10 UNK     1      20.386  -1.169  29.278  1.00  0.00     0.001 A 
ENDBRANCH   3   5
BRANCH   2  16
HETATM   16  C7  UNK     1      18.551   5.841  33.420  1.00  0.00     0.038 A 
HETATM   17  C12 UNK     1      19.676   6.623  33.622  1.00  0.00     0.075 A 
HETATM   18  C14 UNK     1      19.520   7.962  33.981  1.00  0.00     0.157 A 
HETATM   19  F1  UNK     1      20.597   8.732  34.182  1.00  0.00    -0.203 F 
HETATM   20  C16 UNK     1      18.241   8.499  34.132  1.00  0.00     0.154 A 
HETATM   21  C15 UNK     1      17.118   7.697  33.923  1.00  0.00     0.048 A 
HETATM   22  F2  UNK     1      18.090   9.784  34.478  1.00  0.00    -0.203 F 
HETATM   23  C13 UNK     1      17.275   6.358  33.565  1.00  0.00     0.032 A 
ENDBRANCH   2  16
TORSDOF 2
ENDMDL
MODEL 8
REMARK VINA RESULT:      -8.9      8.366     10.104
REMARK  2 active torsions:
REMARK  status: ('A' for Active; 'I' for Inactive)
REMARK       I    between atoms: C5_11  and  N1_6 
REMARK    1  A    between atoms: C7_13  and  N1_6 
REMARK    2  A    between atoms: C2_8  and  C5_11 
ROOT
HETATM    1  O2  UNK     1      21.034  -3.437  37.658  1.00  0.00    -0.267 OA
HETATM    2  N1  UNK     1      18.904  -3.429  36.656  1.00  0.00    -0.323 N 
HETATM    3  C5  UNK     1      20.063  -4.002  37.158  1.00  0.00     0.262 C 
HETATM    4  H3  UNK     1      18.178  -4.042  36.292  1.00  0.00     0.169 HD
ENDROOT
BRANCH   3   5
HETATM    5  C2  UNK     1      20.052  -5.465  37.043  1.00  0.00     0.108 A 
HETATM    6  C4  UNK     1      19.964  -6.147  38.191  1.00  0.00     0.037 A 
HETATM    7  C1  UNK     1      19.947  -7.603  38.179  1.00  0.00    -0.001 A 
HETATM    8  C3  UNK     1      20.022  -8.266  36.960  1.00  0.00     0.089 A 
HETATM    9  C6  UNK     1      19.856  -8.354  39.353  1.00  0.00     0.014 A 
HETATM   10  O1  UNK     1      20.114  -7.542  35.755  1.00  0.00    -0.274 OA
HETATM   11  C9  UNK     1      20.010  -9.657  36.880  1.00  0.00     0.038 A 
HETATM   12  C8  UNK     1      20.133  -6.151  35.735  1.00  0.00     0.304 A 
HETATM   13  O3  UNK     1      20.215  -5.529  34.680  1.00  0.00    -0.259 OA
HETATM   14  C11 UNK     1      19.920 -10.401  38.055  1.00  0.00     0.003 A 
HETATM   15  C10 UNK     1      19.843  -9.751  39.289  1.00  0.00     0.001 A 
ENDBRANCH   3   5
BRANCH   2  16
HETATM   16  C7  UNK     1      18.573  -2.052  36.604  1.00  0.00     0.038 A 
HETATM   17  C12 UNK     1      18.785  -1.348  35.431  1.00  0.00     0.075 A 
HETATM   18  C14 UNK     1      18.458   0.007  35.381  1.00  0.00     0.157 A 
HETATM   19  F1  UNK     1      18.659   0.704  34.255  1.00  0.00    -0.203 F 
HETATM   20  C16 UNK     1      17.924   0.637  36.505  1.00  0.00     0.154 A 
HETATM   21  C15 UNK     1      17.715  -0.087  37.679  1.00  0.00     0.048 A 
HETATM   22  F2  UNK     1      17.610   1.939  36.458  1.00  0.00    -0.203 F 
HETATM   23  C13 UNK     1      18.043  -1.442  37.729  1.00  0.00     0.032 A 
ENDBRANCH   2  16
TORSDOF 2
ENDMDL
MODEL 9
REMARK VINA RESULT:      -8.9      3.584      7.807
REMARK  2 active torsions:
REMARK  status: ('A' for Active; 'I' for Inactive)
REMARK       I    between atoms: C5_11  and  N1_6 
REMARK    1  A    between atoms: C7_13  and  N1_6 
REMARK    2  A    between atoms: C2_8  and  C5_11 
ROOT
HETATM    1  O2  UNK     1      17.882   3.154  32.937  1.00  0.00    -0.267 OA
HETATM    2  N1  UNK     1      18.499   3.894  30.789  1.00  0.00    -0.323 N 
HETATM    3  C5  UNK     1      18.134   4.037  32.119  1.00  0.00     0.262 C 
HETATM    4  H3  UNK     1      18.696   4.733  30.248  1.00  0.00     0.169 HD
ENDROOT
BRANCH   3   5
HETATM    5  C2  UNK     1      18.062   5.446  32.525  1.00  0.00     0.108 A 
HETATM    6  C4  UNK     1      19.176   5.967  33.051  1.00  0.00     0.037 A 
HETATM    7  C1  UNK     1      19.201   7.357  33.484  1.00  0.00    -0.001 A 
HETATM    8  C3  UNK     1      18.053   8.127  33.341  1.00  0.00     0.089 A 
HETATM    9  C6  UNK     1      20.342   7.942  34.038  1.00  0.00     0.014 A 
HETATM   10  O1  UNK     1      16.883   7.572  32.787  1.00  0.00    -0.274 OA
HETATM   11  C9  UNK     1      18.011   9.463  33.736  1.00  0.00     0.038 A 
HETATM   12  C8  UNK     1      16.828   6.247  32.364  1.00  0.00     0.304 A 
HETATM   13  O3  UNK     1      15.804   5.773  31.884  1.00  0.00    -0.259 OA
HETATM   14  C11 UNK     1      19.154  10.040  34.288  1.00  0.00     0.003 A 
HETATM   15  C10 UNK     1      20.317   9.281  34.438  1.00  0.00     0.001 A 
ENDBRANCH   3   5
BRANCH   2  16
HETATM   16  C7  UNK     1      18.667   2.688  30.064  1.00  0.00     0.038 A 
HETATM   17  C12 UNK     1      19.624   1.778  30.478  1.00  0.00     0.075 A 
HETATM   18  C14 UNK     1      19.789   0.591  29.765  1.00  0.00     0.157 A 
HETATM   19  F1  UNK     1      20.711  -0.301  30.151  1.00  0.00    -0.203 F 
HETATM   20  C16 UNK     1      18.994   0.332  28.648  1.00  0.00     0.154 A 
HETATM   21  C15 UNK     1      18.034   1.261  28.245  1.00  0.00     0.048 A 
HETATM   22  F2  UNK     1      19.152  -0.807  27.961  1.00  0.00    -0.203 F 
HETATM   23  C13 UNK     1      17.869   2.448  28.958  1.00  0.00     0.032 A 
ENDBRANCH   2  16
TORSDOF 2
ENDMDL
MODEL 10
REMARK VINA RESULT:      -8.8      1.712      2.823
REMARK  2 active torsions:
REMARK  status: ('A' for Active; 'I' for Inactive)
REMARK       I    between atoms: C5_11  and  N1_6 
REMARK    1  A    between atoms: C7_13  and  N1_6 
REMARK    2  A    between atoms: C2_8  and  C5_11 
ROOT
HETATM    1  O2  UNK     1      18.778   4.906  30.223  1.00  0.00    -0.267 OA
HETATM    2  N1  UNK     1      17.641   4.773  32.281  1.00  0.00    -0.323 N 
HETATM    3  C5  UNK     1      18.374   4.289  31.207  1.00  0.00     0.262 C 
HETATM    4  H3  UNK     1      17.401   4.131  33.032  1.00  0.00     0.169 HD
ENDROOT
BRANCH   3   5
HETATM    5  C2  UNK     1      18.661   2.855  31.335  1.00  0.00     0.108 A 
HETATM    6  C4  UNK     1      19.158   2.252  30.248  1.00  0.00     0.037 A 
HETATM    7  C1  UNK     1      19.474   0.832  30.278  1.00  0.00    -0.001 A 
HETATM    8  C3  UNK     1      19.251   0.117  31.450  1.00  0.00     0.089 A 
HETATM    9  C6  UNK     1      19.995   0.163  29.168  1.00  0.00     0.014 A 
HETATM   10  O1  UNK     1      18.728   0.758  32.590  1.00  0.00    -0.274 OA
HETATM   11  C9  UNK     1      19.532  -1.244  31.544  1.00  0.00     0.038 A 
HETATM   12  C8  UNK     1      18.415   2.114  32.592  1.00  0.00     0.304 A 
HETATM   13  O3  UNK     1      17.959   2.662  33.590  1.00  0.00    -0.259 OA
HETATM   14  C11 UNK     1      20.051  -1.906  30.432  1.00  0.00     0.003 A 
HETATM   15  C10 UNK     1      20.282  -1.203  29.247  1.00  0.00     0.001 A 
ENDBRANCH   3   5
BRANCH   2  16
HETATM   16  C7  UNK     1      17.191   6.100  32.491  1.00  0.00     0.038 A 
HETATM   17  C12 UNK     1      15.849   6.395  32.317  1.00  0.00     0.075 A 
HETATM   18  C14 UNK     1      15.406   7.701  32.525  1.00  0.00     0.157 A 
HETATM   19  F1  UNK     1      14.112   8.004  32.359  1.00  0.00    -0.203 F 
HETATM   20  C16 UNK     1      16.311   8.692  32.903  1.00  0.00     0.154 A 
HETATM   21  C15 UNK     1      17.660   8.378  33.074  1.00  0.00     0.048 A 
HETATM   22  F2  UNK     1      15.887   9.948  33.101  1.00  0.00    -0.203 F 
HETATM   23  C13 UNK     1      18.103   7.072  32.866  1.00  0.00     0.032 A 
ENDBRANCH   2  16
TORSDOF 2
ENDMDL
