MODEL 1
REMARK VINA RESULT:      -9.5      0.000      0.000
REMARK  6 active torsions:
REMARK  status: ('A' for Active; 'I' for Inactive)
REMARK    1  A    between atoms: C14_22  and  O1_3 
REMARK    2  A    between atoms: C13_21  and  N1_8 
REMARK       I    between atoms: C15_23  and  N1_8 
REMARK    3  A    between atoms: C1_9  and  C2_10 
REMARK    4  A    between atoms: C2_10  and  C6_14 
REMARK    5  A    between atoms: C11_19  and  C14_22 
REMARK    6  A    between atoms: C15_23  and  C16_24 
ROOT
HETATM    1  S1  UNK     1      16.040   6.412  31.833  1.00  0.00    -0.075 SA
HETATM    2  C1  UNK     1      15.679  10.206  33.374  1.00  0.00    -0.002 C 
HETATM    3  C3  UNK     1      16.881  10.090  34.336  1.00  0.00     0.010 C 
HETATM    4  C4  UNK     1      15.148   8.808  32.979  1.00  0.00     0.052 C 
HETATM    5  C5  UNK     1      18.056   9.341  33.689  1.00  0.00     0.041 C 
HETATM    6  C7  UNK     1      16.281   7.888  32.648  1.00  0.00    -0.008 A 
HETATM    7  C8  UNK     1      17.604   8.101  32.982  1.00  0.00    -0.026 A 
HETATM    8  C11 UNK     1      18.432   7.024  32.547  1.00  0.00     0.080 A 
HETATM    9  C13 UNK     1      17.710   6.038  31.909  1.00  0.00     0.094 A 
ENDROOT
BRANCH   9  10
HETATM   10  N1  UNK     1      18.098   4.853  31.345  1.00  0.00    -0.316 N 
HETATM   11  C15 UNK     1      18.089   3.592  31.956  1.00  0.00     0.262 C 
HETATM   12  O3  UNK     1      17.741   3.299  33.093  1.00  0.00    -0.267 OA
HETATM   13  H19 UNK     1      18.437   4.929  30.390  1.00  0.00     0.169 HD
BRANCH  11  14
HETATM   14  C16 UNK     1      18.577   2.526  31.055  1.00  0.00     0.108 A 
HETATM   15  C18 UNK     1      19.010   1.405  31.646  1.00  0.00     0.037 A 
HETATM   16  C20 UNK     1      19.508   0.299  30.844  1.00  0.00     0.001 A 
HETATM   17  C21 UNK     1      19.526   0.426  29.459  1.00  0.00     0.089 A 
HETATM   18  C22 UNK     1      19.970  -0.888  31.416  1.00  0.00     0.038 A 
HETATM   19  C23 UNK     1      19.990  -0.596  28.633  1.00  0.00     0.040 A 
HETATM   20  O4  UNK     1      19.068   1.609  28.843  1.00  0.00    -0.274 OA
HETATM   21  C25 UNK     1      20.448  -1.776  29.213  1.00  0.00     0.026 A 
HETATM   22  C24 UNK     1      20.439  -1.923  30.602  1.00  0.00     0.035 A 
HETATM   23 Cl1  UNK     1      21.006  -3.385  31.312  1.00  0.00    -0.084 Cl
HETATM   24  C19 UNK     1      18.586   2.683  29.584  1.00  0.00     0.304 A 
HETATM   25  O5  UNK     1      18.190   3.708  29.040  1.00  0.00    -0.259 OA
ENDBRANCH  11  14
ENDBRANCH   9  10
BRANCH   8  26
HETATM   26  C14 UNK     1      19.860   6.939  32.729  1.00  0.00     0.296 C 
HETATM   27  O2  UNK     1      20.462   7.415  33.701  1.00  0.00    -0.259 OA
BRANCH  26  28
HETATM   28  O1  UNK     1      20.514   6.271  31.716  1.00  0.00    -0.322 OA
HETATM   29  C17 UNK     1      21.867   5.876  31.970  1.00  0.00     0.213 C 
ENDBRANCH  26  28
ENDBRANCH   8  26
BRANCH   2  30
HETATM   30  C2  UNK     1      14.564  11.044  33.997  1.00  0.00    -0.044 C 
HETATM   31  C10 UNK     1      15.025  12.516  34.068  1.00  0.00     0.015 C 
HETATM   32  C9  UNK     1      13.308  10.976  33.105  1.00  0.00     0.015 C 
BRANCH  30  33
HETATM   33  C6  UNK     1      14.238  10.576  35.442  1.00  0.00     0.004 C 
HETATM   34  C12 UNK     1      14.153  11.680  36.489  1.00  0.00     0.006 C 
ENDBRANCH  30  33
ENDBRANCH   2  30
TORSDOF 6
ENDMDL
MODEL 2
REMARK VINA RESULT:      -8.8      5.942     11.977
REMARK  6 active torsions:
REMARK  status: ('A' for Active; 'I' for Inactive)
REMARK    1  A    between atoms: C14_22  and  O1_3 
REMARK    2  A    between atoms: C13_21  and  N1_8 
REMARK       I    between atoms: C15_23  and  N1_8 
REMARK    3  A    between atoms: C1_9  and  C2_10 
REMARK    4  A    between atoms: C2_10  and  C6_14 
REMARK    5  A    between atoms: C11_19  and  C14_22 
REMARK    6  A    between atoms: C15_23  and  C16_24 
ROOT
HETATM    1  S1  UNK     1      19.183  -2.288  36.903  1.00  0.00    -0.075 SA
HETATM    2  C1  UNK     1      20.414  -6.204  37.118  1.00  0.00    -0.002 C 
HETATM    3  C3  UNK     1      20.150  -6.524  35.631  1.00  0.00     0.010 C 
HETATM    4  C4  UNK     1      19.592  -4.977  37.575  1.00  0.00     0.052 C 
HETATM    5  C5  UNK     1      20.558  -5.358  34.717  1.00  0.00     0.041 C 
HETATM    6  C7  UNK     1      19.663  -3.884  36.555  1.00  0.00    -0.008 A 
HETATM    7  C8  UNK     1      20.076  -4.042  35.246  1.00  0.00    -0.026 A 
HETATM    8  C11 UNK     1      20.001  -2.814  34.524  1.00  0.00     0.080 A 
HETATM    9  C13 UNK     1      19.531  -1.780  35.305  1.00  0.00     0.094 A 
ENDROOT
BRANCH   9  10
HETATM   10  N1  UNK     1      19.307  -0.461  35.019  1.00  0.00    -0.316 N 
HETATM   11  C15 UNK     1      18.164   0.085  34.418  1.00  0.00     0.262 C 
HETATM   12  O3  UNK     1      17.157  -0.495  34.034  1.00  0.00    -0.267 OA
HETATM   13  H19 UNK     1      20.071   0.163  35.266  1.00  0.00     0.169 HD
BRANCH  11  14
HETATM   14  C16 UNK     1      18.257   1.552  34.257  1.00  0.00     0.108 A 
HETATM   15  C18 UNK     1      18.305   2.006  32.999  1.00  0.00     0.037 A 
HETATM   16  C20 UNK     1      18.396   3.434  32.738  1.00  0.00     0.001 A 
HETATM   17  C21 UNK     1      18.433   4.314  33.815  1.00  0.00     0.089 A 
HETATM   18  C22 UNK     1      18.449   3.953  31.442  1.00  0.00     0.038 A 
HETATM   19  C23 UNK     1      18.520   5.693  33.634  1.00  0.00     0.040 A 
HETATM   20  O4  UNK     1      18.382   3.829  35.137  1.00  0.00    -0.274 OA
HETATM   21  C25 UNK     1      18.572   6.201  32.338  1.00  0.00     0.026 A 
HETATM   22  C24 UNK     1      18.536   5.334  31.244  1.00  0.00     0.035 A 
HETATM   23 Cl1  UNK     1      18.600   5.969  29.645  1.00  0.00    -0.084 Cl
HETATM   24  C19 UNK     1      18.295   2.469  35.417  1.00  0.00     0.304 A 
HETATM   25  O5  UNK     1      18.251   2.056  36.571  1.00  0.00    -0.259 OA
ENDBRANCH  11  14
ENDBRANCH   9  10
BRANCH   8  26
HETATM   26  C14 UNK     1      20.368  -2.632  33.141  1.00  0.00     0.296 C 
HETATM   27  O2  UNK     1      21.440  -3.017  32.654  1.00  0.00    -0.259 OA
BRANCH  26  28
HETATM   28  O1  UNK     1      19.412  -1.984  32.390  1.00  0.00    -0.322 OA
HETATM   29  C17 UNK     1      19.882  -1.140  31.332  1.00  0.00     0.213 C 
ENDBRANCH  26  28
ENDBRANCH   8  26
BRANCH   2  30
HETATM   30  C2  UNK     1      20.102  -7.413  37.997  1.00  0.00    -0.044 C 
HETATM   31  C10 UNK     1      21.305  -8.381  37.962  1.00  0.00     0.015 C 
HETATM   32  C9  UNK     1      19.897  -6.953  39.454  1.00  0.00     0.015 C 
BRANCH  30  33
HETATM   33  C6  UNK     1      18.855  -8.186  37.483  1.00  0.00     0.004 C 
HETATM   34  C12 UNK     1      18.972  -9.705  37.486  1.00  0.00     0.006 C 
ENDBRANCH  30  33
ENDBRANCH   2  30
TORSDOF 6
ENDMDL
MODEL 3
REMARK VINA RESULT:      -8.8      2.038      2.534
REMARK  6 active torsions:
REMARK  status: ('A' for Active; 'I' for Inactive)
REMARK    1  A    between atoms: C14_22  and  O1_3 
REMARK    2  A    between atoms: C13_21  and  N1_8 
REMARK       I    between atoms: C15_23  and  N1_8 
REMARK    3  A    between atoms: C1_9  and  C2_10 
REMARK    4  A    between atoms: C2_10  and  C6_14 
REMARK    5  A    between atoms: C11_19  and  C14_22 
REMARK    6  A    between atoms: C15_23  and  C16_24 
ROOT
HETATM    1  S1  UNK     1      15.224   7.068  32.766  1.00  0.00    -0.075 SA
HETATM    2  C1  UNK     1      14.868  11.128  33.308  1.00  0.00    -0.002 C 
HETATM    3  C3  UNK     1      15.917  11.219  34.437  1.00  0.00     0.010 C 
HETATM    4  C4  UNK     1      14.318   9.689  33.176  1.00  0.00     0.052 C 
HETATM    5  C5  UNK     1      17.126  10.312  34.164  1.00  0.00     0.041 C 
HETATM    6  C7  UNK     1      15.432   8.691  33.240  1.00  0.00    -0.008 A 
HETATM    7  C8  UNK     1      16.707   8.949  33.706  1.00  0.00    -0.026 A 
HETATM    8  C11 UNK     1      17.525   7.781  33.661  1.00  0.00     0.080 A 
HETATM    9  C13 UNK     1      16.843   6.687  33.172  1.00  0.00     0.094 A 
ENDROOT
BRANCH   9  10
HETATM   10  N1  UNK     1      17.238   5.394  32.964  1.00  0.00    -0.316 N 
HETATM   11  C15 UNK     1      17.921   4.896  31.846  1.00  0.00     0.262 C 
HETATM   12  O3  UNK     1      18.295   5.503  30.850  1.00  0.00    -0.267 OA
HETATM   13  H19 UNK     1      16.982   4.747  33.705  1.00  0.00     0.169 HD
BRANCH  11  14
HETATM   14  C16 UNK     1      18.190   3.446  31.949  1.00  0.00     0.108 A 
HETATM   15  C18 UNK     1      18.092   2.912  33.173  1.00  0.00     0.037 A 
HETATM   16  C20 UNK     1      18.337   1.493  33.376  1.00  0.00     0.001 A 
HETATM   17  C21 UNK     1      18.674   0.705  32.280  1.00  0.00     0.089 A 
HETATM   18  C22 UNK     1      18.247   0.894  34.634  1.00  0.00     0.038 A 
HETATM   19  C23 UNK     1      18.922  -0.661  32.406  1.00  0.00     0.040 A 
HETATM   20  O4  UNK     1      18.776   1.273  30.994  1.00  0.00    -0.274 OA
HETATM   21  C25 UNK     1      18.829  -1.250  33.664  1.00  0.00     0.026 A 
HETATM   22  C24 UNK     1      18.492  -0.475  34.777  1.00  0.00     0.035 A 
HETATM   23 Cl1  UNK     1      18.378  -1.210  36.330  1.00  0.00    -0.084 Cl
HETATM   24  C19 UNK     1      18.547   2.627  30.770  1.00  0.00     0.304 A 
HETATM   25  O5  UNK     1      18.637   3.112  29.647  1.00  0.00    -0.259 OA
ENDBRANCH  11  14
ENDBRANCH   9  10
BRANCH   8  26
HETATM   26  C14 UNK     1      18.907   7.710  34.067  1.00  0.00     0.296 C 
HETATM   27  O2  UNK     1      19.285   7.765  35.246  1.00  0.00    -0.259 OA
BRANCH  26  28
HETATM   28  O1  UNK     1      19.791   7.573  33.018  1.00  0.00    -0.322 OA
HETATM   29  C17 UNK     1      20.740   6.505  33.108  1.00  0.00     0.213 C 
ENDBRANCH  26  28
ENDBRANCH   8  26
BRANCH   2  30
HETATM   30  C2  UNK     1      13.726  12.115  33.547  1.00  0.00    -0.044 C 
HETATM   31  C10 UNK     1      14.131  13.493  32.981  1.00  0.00     0.015 C 
HETATM   32  C9  UNK     1      12.466  11.638  32.797  1.00  0.00     0.015 C 
BRANCH  30  33
HETATM   33  C6  UNK     1      13.431  12.290  35.063  1.00  0.00     0.004 C 
HETATM   34  C12 UNK     1      12.002  12.682  35.416  1.00  0.00     0.006 C 
ENDBRANCH  30  33
ENDBRANCH   2  30
TORSDOF 6
ENDMDL
MODEL 4
REMARK VINA RESULT:      -8.6      5.300      7.919
REMARK  6 active torsions:
REMARK  status: ('A' for Active; 'I' for Inactive)
REMARK    1  A    between atoms: C14_22  and  O1_3 
REMARK    2  A    between atoms: C13_21  and  N1_8 
REMARK       I    between atoms: C15_23  and  N1_8 
REMARK    3  A    between atoms: C1_9  and  C2_10 
REMARK    4  A    between atoms: C2_10  and  C6_14 
REMARK    5  A    between atoms: C11_19  and  C14_22 
REMARK    6  A    between atoms: C15_23  and  C16_24 
ROOT
HETATM    1  S1  UNK     1      18.850   1.441  35.642  1.00  0.00    -0.075 SA
HETATM    2  C1  UNK     1      17.856   4.527  33.114  1.00  0.00    -0.002 C 
HETATM    3  C3  UNK     1      18.489   3.897  31.854  1.00  0.00     0.010 C 
HETATM    4  C4  UNK     1      18.465   3.924  34.401  1.00  0.00     0.052 C 
HETATM    5  C5  UNK     1      18.238   2.382  31.791  1.00  0.00     0.041 C 
HETATM    6  C7  UNK     1      18.571   2.436  34.288  1.00  0.00    -0.008 A 
HETATM    7  C8  UNK     1      18.494   1.720  33.109  1.00  0.00    -0.026 A 
HETATM    8  C11 UNK     1      18.662   0.321  33.337  1.00  0.00     0.080 A 
HETATM    9  C13 UNK     1      18.864   0.032  34.669  1.00  0.00     0.094 A 
ENDROOT
BRANCH   9  10
HETATM   10  N1  UNK     1      19.065  -1.156  35.317  1.00  0.00    -0.316 N 
HETATM   11  C15 UNK     1      20.113  -2.061  35.101  1.00  0.00     0.262 C 
HETATM   12  O3  UNK     1      21.041  -1.976  34.307  1.00  0.00    -0.267 OA
HETATM   13  H19 UNK     1      18.358  -1.387  36.009  1.00  0.00     0.169 HD
BRANCH  11  14
HETATM   14  C16 UNK     1      20.022  -3.249  35.977  1.00  0.00     0.108 A 
HETATM   15  C18 UNK     1      20.273  -4.430  35.399  1.00  0.00     0.037 A 
HETATM   16  C20 UNK     1      20.209  -5.656  36.180  1.00  0.00     0.001 A 
HETATM   17  C21 UNK     1      19.885  -5.578  37.530  1.00  0.00     0.089 A 
HETATM   18  C22 UNK     1      20.462  -6.910  35.619  1.00  0.00     0.038 A 
HETATM   19  C23 UNK     1      19.807  -6.714  38.334  1.00  0.00     0.040 A 
HETATM   20  O4  UNK     1      19.623  -4.331  38.133  1.00  0.00    -0.274 OA
HETATM   21  C25 UNK     1      20.061  -7.960  37.766  1.00  0.00     0.026 A 
HETATM   22  C24 UNK     1      20.388  -8.059  36.412  1.00  0.00     0.035 A 
HETATM   23 Cl1  UNK     1      20.702  -9.603  35.717  1.00  0.00    -0.084 Cl
HETATM   24  C19 UNK     1      19.676  -3.142  37.412  1.00  0.00     0.304 A 
HETATM   25  O5  UNK     1      19.447  -2.062  37.944  1.00  0.00    -0.259 OA
ENDBRANCH  11  14
ENDBRANCH   9  10
BRANCH   8  26
HETATM   26  C14 UNK     1      18.626  -0.703  32.322  1.00  0.00     0.296 C 
HETATM   27  O2  UNK     1      17.752  -1.580  32.255  1.00  0.00    -0.259 OA
BRANCH  26  28
HETATM   28  O1  UNK     1      19.660  -0.627  31.414  1.00  0.00    -0.322 OA
HETATM   29  C17 UNK     1      20.156  -1.865  30.893  1.00  0.00     0.213 C 
ENDBRANCH  26  28
ENDBRANCH   8  26
BRANCH   2  30
HETATM   30  C2  UNK     1      18.026   6.045  33.104  1.00  0.00    -0.044 C 
HETATM   31  C10 UNK     1      18.151   6.524  31.641  1.00  0.00     0.015 C 
HETATM   32  C9  UNK     1      16.779   6.708  33.721  1.00  0.00     0.015 C 
BRANCH  30  33
HETATM   33  C6  UNK     1      19.312   6.481  33.859  1.00  0.00     0.004 C 
HETATM   34  C12 UNK     1      20.552   6.674  32.995  1.00  0.00     0.006 C 
ENDBRANCH  30  33
ENDBRANCH   2  30
TORSDOF 6
ENDMDL
MODEL 5
REMARK VINA RESULT:      -8.5     15.352     18.873
REMARK  6 active torsions:
REMARK  status: ('A' for Active; 'I' for Inactive)
REMARK    1  A    between atoms: C14_22  and  O1_3 
REMARK    2  A    between atoms: C13_21  and  N1_8 
REMARK       I    between atoms: C15_23  and  N1_8 
REMARK    3  A    between atoms: C1_9  and  C2_10 
REMARK    4  A    between atoms: C2_10  and  C6_14 
REMARK    5  A    between atoms: C11_19  and  C14_22 
REMARK    6  A    between atoms: C15_23  and  C16_24 
ROOT
HETATM    1  S1  UNK     1      29.567  -7.696  35.422  1.00  0.00    -0.075 SA
HETATM    2  C1  UNK     1      33.560  -7.350  34.508  1.00  0.00    -0.002 C 
HETATM    3  C3  UNK     1      33.623  -5.819  34.697  1.00  0.00     0.010 C 
HETATM    4  C4  UNK     1      32.109  -7.818  34.250  1.00  0.00     0.052 C 
HETATM    5  C5  UNK     1      32.792  -5.361  35.905  1.00  0.00     0.041 C 
HETATM    6  C7  UNK     1      31.161  -7.144  35.192  1.00  0.00    -0.008 A 
HETATM    7  C8  UNK     1      31.446  -6.014  35.935  1.00  0.00    -0.026 A 
HETATM    8  C11 UNK     1      30.322  -5.607  36.714  1.00  0.00     0.080 A 
HETATM    9  C13 UNK     1      29.233  -6.433  36.528  1.00  0.00     0.094 A 
ENDROOT
BRANCH   9  10
HETATM   10  N1  UNK     1      27.977  -6.407  37.068  1.00  0.00    -0.316 N 
HETATM   11  C15 UNK     1      27.512  -7.175  38.145  1.00  0.00     0.262 C 
HETATM   12  O3  UNK     1      28.121  -8.005  38.807  1.00  0.00    -0.267 OA
HETATM   13  H19 UNK     1      27.331  -5.768  36.612  1.00  0.00     0.169 HD
BRANCH  11  14
HETATM   14  C16 UNK     1      26.096  -6.895  38.467  1.00  0.00     0.108 A 
HETATM   15  C18 UNK     1      25.256  -7.934  38.392  1.00  0.00     0.037 A 
HETATM   16  C20 UNK     1      23.844  -7.759  38.692  1.00  0.00     0.001 A 
HETATM   17  C21 UNK     1      23.385  -6.498  39.056  1.00  0.00     0.089 A 
HETATM   18  C22 UNK     1      22.931  -8.814  38.625  1.00  0.00     0.038 A 
HETATM   19  C23 UNK     1      22.044  -6.262  39.355  1.00  0.00     0.040 A 
HETATM   20  O4  UNK     1      24.274  -5.407  39.134  1.00  0.00    -0.274 OA
HETATM   21  C25 UNK     1      21.142  -7.320  39.287  1.00  0.00     0.026 A 
HETATM   22  C24 UNK     1      21.583  -8.594  38.923  1.00  0.00     0.035 A 
HETATM   23 Cl1  UNK     1      20.462  -9.899  38.841  1.00  0.00    -0.084 Cl
HETATM   24  C19 UNK     1      25.630  -5.545  38.853  1.00  0.00     0.304 A 
HETATM   25  O5  UNK     1      26.397  -4.590  38.924  1.00  0.00    -0.259 OA
ENDBRANCH  11  14
ENDBRANCH   9  10
BRANCH   8  26
HETATM   26  C14 UNK     1      30.287  -4.473  37.605  1.00  0.00     0.296 C 
HETATM   27  O2  UNK     1      30.486  -3.304  37.244  1.00  0.00    -0.259 OA
BRANCH  26  28
HETATM   28  O1  UNK     1      30.010  -4.800  38.914  1.00  0.00    -0.322 OA
HETATM   29  C17 UNK     1      29.530  -3.745  39.756  1.00  0.00     0.213 C 
ENDBRANCH  26  28
ENDBRANCH   8  26
BRANCH   2  30
HETATM   30  C2  UNK     1      34.475  -7.794  33.368  1.00  0.00    -0.044 C 
HETATM   31  C10 UNK     1      34.784  -9.298  33.533  1.00  0.00     0.015 C 
HETATM   32  C9  UNK     1      33.753  -7.597  32.021  1.00  0.00     0.015 C 
BRANCH  30  33
HETATM   33  C6  UNK     1      35.825  -7.026  33.388  1.00  0.00     0.004 C 
HETATM   34  C12 UNK     1      36.949  -7.685  34.178  1.00  0.00     0.006 C 
ENDBRANCH  30  33
ENDBRANCH   2  30
TORSDOF 6
ENDMDL
MODEL 6
REMARK VINA RESULT:      -8.4     15.905     18.636
REMARK  6 active torsions:
REMARK  status: ('A' for Active; 'I' for Inactive)
REMARK    1  A    between atoms: C14_22  and  O1_3 
REMARK    2  A    between atoms: C13_21  and  N1_8 
REMARK       I    between atoms: C15_23  and  N1_8 
REMARK    3  A    between atoms: C1_9  and  C2_10 
REMARK    4  A    between atoms: C2_10  and  C6_14 
REMARK    5  A    between atoms: C11_19  and  C14_22 
REMARK    6  A    between atoms: C15_23  and  C16_24 
ROOT
HETATM    1  S1  UNK     1      29.033  -8.134  35.298  1.00  0.00    -0.075 SA
HETATM    2  C1  UNK     1      32.796  -6.880  36.377  1.00  0.00    -0.002 C 
HETATM    3  C3  UNK     1      32.317  -5.884  37.456  1.00  0.00     0.010 C 
HETATM    4  C4  UNK     1      31.669  -7.185  35.364  1.00  0.00     0.052 C 
HETATM    5  C5  UNK     1      31.139  -6.448  38.266  1.00  0.00     0.041 C 
HETATM    6  C7  UNK     1      30.372  -7.423  36.073  1.00  0.00    -0.008 A 
HETATM    7  C8  UNK     1      30.106  -7.075  37.383  1.00  0.00    -0.026 A 
HETATM    8  C11 UNK     1      28.769  -7.412  37.750  1.00  0.00     0.080 A 
HETATM    9  C13 UNK     1      28.075  -7.994  36.710  1.00  0.00     0.094 A 
ENDROOT
BRANCH   9  10
HETATM   10  N1  UNK     1      26.792  -8.462  36.629  1.00  0.00    -0.316 N 
HETATM   11  C15 UNK     1      26.310  -9.678  37.131  1.00  0.00     0.262 C 
HETATM   12  O3  UNK     1      26.925 -10.550  37.731  1.00  0.00    -0.267 OA
HETATM   13  H19 UNK     1      26.148  -7.850  36.134  1.00  0.00     0.169 HD
BRANCH  11  14
HETATM   14  C16 UNK     1      24.868  -9.867  36.865  1.00  0.00     0.108 A 
HETATM   15  C18 UNK     1      24.051  -8.918  37.338  1.00  0.00     0.037 A 
HETATM   16  C20 UNK     1      22.615  -9.014  37.126  1.00  0.00     0.001 A 
HETATM   17  C21 UNK     1      22.110 -10.105  36.426  1.00  0.00     0.089 A 
HETATM   18  C22 UNK     1      21.725  -8.049  37.602  1.00  0.00     0.038 A 
HETATM   19  C23 UNK     1      20.745 -10.257  36.189  1.00  0.00     0.040 A 
HETATM   20  O4  UNK     1      22.976 -11.100  35.930  1.00  0.00    -0.274 OA
HETATM   21  C25 UNK     1      19.865  -9.289  36.667  1.00  0.00     0.026 A 
HETATM   22  C24 UNK     1      20.353  -8.187  37.372  1.00  0.00     0.035 A 
HETATM   23 Cl1  UNK     1      19.260  -6.993  37.960  1.00  0.00    -0.084 Cl
HETATM   24  C19 UNK     1      24.353 -11.035  36.118  1.00  0.00     0.304 A 
HETATM   25  O5  UNK     1      25.099 -11.906  35.682  1.00  0.00    -0.259 OA
ENDBRANCH  11  14
ENDBRANCH   9  10
BRANCH   8  26
HETATM   26  C14 UNK     1      28.175  -7.192  39.046  1.00  0.00     0.296 C 
HETATM   27  O2  UNK     1      27.865  -8.102  39.828  1.00  0.00    -0.259 OA
BRANCH  26  28
HETATM   28  O1  UNK     1      27.977  -5.863  39.351  1.00  0.00    -0.322 OA
HETATM   29  C17 UNK     1      26.890  -5.203  38.691  1.00  0.00     0.213 C 
ENDBRANCH  26  28
ENDBRANCH   8  26
BRANCH   2  30
HETATM   30  C2  UNK     1      34.032  -6.344  35.656  1.00  0.00    -0.044 C 
HETATM   31  C10 UNK     1      35.007  -5.760  36.701  1.00  0.00     0.015 C 
HETATM   32  C9  UNK     1      34.745  -7.500  34.927  1.00  0.00     0.015 C 
BRANCH  30  33
HETATM   33  C6  UNK     1      33.664  -5.209  34.660  1.00  0.00     0.004 C 
HETATM   34  C12 UNK     1      34.356  -3.873  34.898  1.00  0.00     0.006 C 
ENDBRANCH  30  33
ENDBRANCH   2  30
TORSDOF 6
ENDMDL
MODEL 7
REMARK VINA RESULT:      -8.3     16.370     22.514
REMARK  6 active torsions:
REMARK  status: ('A' for Active; 'I' for Inactive)
REMARK    1  A    between atoms: C14_22  and  O1_3 
REMARK    2  A    between atoms: C13_21  and  N1_8 
REMARK       I    between atoms: C15_23  and  N1_8 
REMARK    3  A    between atoms: C1_9  and  C2_10 
REMARK    4  A    between atoms: C2_10  and  C6_14 
REMARK    5  A    between atoms: C11_19  and  C14_22 
REMARK    6  A    between atoms: C15_23  and  C16_24 
ROOT
HETATM    1  S1  UNK     1      19.853  -3.974  11.586  1.00  0.00    -0.075 SA
HETATM    2  C1  UNK     1      20.253  -7.814  10.175  1.00  0.00    -0.002 C 
HETATM    3  C3  UNK     1      21.262  -8.264  11.254  1.00  0.00     0.010 C 
HETATM    4  C4  UNK     1      20.242  -6.274  10.034  1.00  0.00     0.052 C 
HETATM    5  C5  UNK     1      20.904  -7.699  12.637  1.00  0.00     0.041 C 
HETATM    6  C7  UNK     1      20.232  -5.621  11.381  1.00  0.00    -0.008 A 
HETATM    7  C8  UNK     1      20.552  -6.246  12.571  1.00  0.00    -0.026 A 
HETATM    8  C11 UNK     1      20.472  -5.341  13.672  1.00  0.00     0.080 A 
HETATM    9  C13 UNK     1      20.104  -4.073  13.277  1.00  0.00     0.094 A 
ENDROOT
BRANCH   9  10
HETATM   10  N1  UNK     1      19.912  -2.923  13.993  1.00  0.00    -0.316 N 
HETATM   11  C15 UNK     1      18.912  -2.687  14.946  1.00  0.00     0.262 C 
HETATM   12  O3  UNK     1      18.026  -3.443  15.324  1.00  0.00    -0.267 OA
HETATM   13  H19 UNK     1      20.567  -2.175  13.780  1.00  0.00     0.169 HD
BRANCH  11  14
HETATM   14  C16 UNK     1      18.996  -1.330  15.528  1.00  0.00     0.108 A 
HETATM   15  C18 UNK     1      18.889  -1.250  16.860  1.00  0.00     0.037 A 
HETATM   16  C20 UNK     1      18.961   0.041  17.526  1.00  0.00     0.001 A 
HETATM   17  C21 UNK     1      19.142   1.186  16.756  1.00  0.00     0.089 A 
HETATM   18  C22 UNK     1      18.853   0.172  18.912  1.00  0.00     0.038 A 
HETATM   19  C23 UNK     1      19.219   2.453  17.331  1.00  0.00     0.040 A 
HETATM   20  O4  UNK     1      19.255   1.095  15.354  1.00  0.00    -0.274 OA
HETATM   21  C25 UNK     1      19.111   2.573  18.714  1.00  0.00     0.026 A 
HETATM   22  C24 UNK     1      18.928   1.436  19.504  1.00  0.00     0.035 A 
HETATM   23 Cl1  UNK     1      18.796   1.592  21.214  1.00  0.00    -0.084 Cl
HETATM   24  C19 UNK     1      19.190  -0.126  14.690  1.00  0.00     0.304 A 
HETATM   25  O5  UNK     1      19.290  -0.195  13.470  1.00  0.00    -0.259 OA
ENDBRANCH  11  14
ENDBRANCH   9  10
BRANCH   8  26
HETATM   26  C14 UNK     1      20.734  -5.675  15.050  1.00  0.00     0.296 C 
HETATM   27  O2  UNK     1      19.874  -6.102  15.833  1.00  0.00    -0.259 OA
BRANCH  26  28
HETATM   28  O1  UNK     1      22.043  -5.478  15.434  1.00  0.00    -0.322 OA
HETATM   29  C17 UNK     1      22.305  -4.364  16.295  1.00  0.00     0.213 C 
ENDBRANCH  26  28
ENDBRANCH   8  26
BRANCH   2  30
HETATM   30  C2  UNK     1      20.568  -8.470   8.832  1.00  0.00    -0.044 C 
HETATM   31  C10 UNK     1      21.368  -9.766   9.084  1.00  0.00     0.015 C 
HETATM   32  C9  UNK     1      19.252  -8.848   8.122  1.00  0.00     0.015 C 
BRANCH  30  33
HETATM   33  C6  UNK     1      21.432  -7.544   7.932  1.00  0.00     0.004 C 
HETATM   34  C12 UNK     1      22.925  -7.847   7.915  1.00  0.00     0.006 C 
ENDBRANCH  30  33
ENDBRANCH   2  30
TORSDOF 6
ENDMDL
MODEL 8
REMARK VINA RESULT:      -8.3     21.902     24.148
REMARK  6 active torsions:
REMARK  status: ('A' for Active; 'I' for Inactive)
REMARK    1  A    between atoms: C14_22  and  O1_3 
REMARK    2  A    between atoms: C13_21  and  N1_8 
REMARK       I    between atoms: C15_23  and  N1_8 
REMARK    3  A    between atoms: C1_9  and  C2_10 
REMARK    4  A    between atoms: C2_10  and  C6_14 
REMARK    5  A    between atoms: C11_19  and  C14_22 
REMARK    6  A    between atoms: C15_23  and  C16_24 
ROOT
HETATM    1  S1  UNK     1      12.509   9.540   9.681  1.00  0.00    -0.075 SA
HETATM    2  C1  UNK     1      10.002   6.392   8.840  1.00  0.00    -0.002 C 
HETATM    3  C3  UNK     1      11.069   5.544   8.113  1.00  0.00     0.010 C 
HETATM    4  C4  UNK     1      10.401   7.886   8.860  1.00  0.00     0.052 C 
HETATM    5  C5  UNK     1      12.434   5.625   8.814  1.00  0.00     0.041 C 
HETATM    6  C7  UNK     1      11.847   8.042   9.217  1.00  0.00    -0.008 A 
HETATM    7  C8  UNK     1      12.789   7.032   9.180  1.00  0.00    -0.026 A 
HETATM    8  C11 UNK     1      14.081   7.511   9.552  1.00  0.00     0.080 A 
HETATM    9  C13 UNK     1      14.070   8.858   9.848  1.00  0.00     0.094 A 
ENDROOT
BRANCH   9  10
HETATM   10  N1  UNK     1      15.070   9.705  10.242  1.00  0.00    -0.316 N 
HETATM   11  C15 UNK     1      15.857  10.515   9.412  1.00  0.00     0.262 C 
HETATM   12  O3  UNK     1      15.813  10.626   8.194  1.00  0.00    -0.267 OA
HETATM   13  H19 UNK     1      15.247   9.716  11.243  1.00  0.00     0.169 HD
BRANCH  11  14
HETATM   14  C16 UNK     1      16.848  11.307  10.172  1.00  0.00     0.108 A 
HETATM   15  C18 UNK     1      18.131  11.130   9.834  1.00  0.00     0.037 A 
HETATM   16  C20 UNK     1      19.179  11.866  10.524  1.00  0.00     0.001 A 
HETATM   17  C21 UNK     1      18.825  12.751  11.537  1.00  0.00     0.089 A 
HETATM   18  C22 UNK     1      20.530  11.713  10.205  1.00  0.00     0.038 A 
HETATM   19  C23 UNK     1      19.780  13.486  12.237  1.00  0.00     0.040 A 
HETATM   20  O4  UNK     1      17.472  12.933  11.888  1.00  0.00    -0.274 OA
HETATM   21  C25 UNK     1      21.124  13.328  11.912  1.00  0.00     0.026 A 
HETATM   22  C24 UNK     1      21.500  12.443  10.898  1.00  0.00     0.035 A 
HETATM   23 Cl1  UNK     1      23.164  12.253  10.501  1.00  0.00    -0.084 Cl
HETATM   24  C19 UNK     1      16.448  12.243  11.246  1.00  0.00     0.304 A 
HETATM   25  O5  UNK     1      15.274  12.407  11.558  1.00  0.00    -0.259 OA
ENDBRANCH  11  14
ENDBRANCH   9  10
BRANCH   8  26
HETATM   26  C14 UNK     1      15.280   6.714   9.625  1.00  0.00     0.296 C 
HETATM   27  O2  UNK     1      15.546   5.793   8.840  1.00  0.00    -0.259 OA
BRANCH  26  28
HETATM   28  O1  UNK     1      16.123   7.066  10.657  1.00  0.00    -0.322 OA
HETATM   29  C17 UNK     1      17.501   7.273  10.325  1.00  0.00     0.213 C 
ENDBRANCH  26  28
ENDBRANCH   8  26
BRANCH   2  30
HETATM   30  C2  UNK     1       8.632   6.215   8.189  1.00  0.00    -0.044 C 
HETATM   31  C10 UNK     1       7.793   7.487   8.436  1.00  0.00     0.015 C 
HETATM   32  C9  UNK     1       8.803   6.040   6.667  1.00  0.00     0.015 C 
BRANCH  30  33
HETATM   33  C6  UNK     1       7.862   5.011   8.798  1.00  0.00     0.004 C 
HETATM   34  C12 UNK     1       8.119   4.742  10.276  1.00  0.00     0.006 C 
ENDBRANCH  30  33
ENDBRANCH   2  30
TORSDOF 6
ENDMDL
MODEL 9
REMARK VINA RESULT:      -8.3     18.153     22.962
REMARK  6 active torsions:
REMARK  status: ('A' for Active; 'I' for Inactive)
REMARK    1  A    between atoms: C14_22  and  O1_3 
REMARK    2  A    between atoms: C13_21  and  N1_8 
REMARK       I    between atoms: C15_23  and  N1_8 
REMARK    3  A    between atoms: C1_9  and  C2_10 
REMARK    4  A    between atoms: C2_10  and  C6_14 
REMARK    5  A    between atoms: C11_19  and  C14_22 
REMARK    6  A    between atoms: C15_23  and  C16_24 
ROOT
HETATM    1  S1  UNK     1      33.096  -9.925  31.289  1.00  0.00    -0.075 SA
HETATM    2  C1  UNK     1      29.808  -7.736  30.151  1.00  0.00    -0.002 C 
HETATM    3  C3  UNK     1      30.568  -6.401  29.986  1.00  0.00     0.010 C 
HETATM    4  C4  UNK     1      30.583  -8.705  31.074  1.00  0.00     0.052 C 
HETATM    5  C5  UNK     1      31.948  -6.610  29.344  1.00  0.00     0.041 C 
HETATM    6  C7  UNK     1      32.038  -8.716  30.725  1.00  0.00    -0.008 A 
HETATM    7  C8  UNK     1      32.681  -7.761  29.960  1.00  0.00    -0.026 A 
HETATM    8  C11 UNK     1      34.074  -8.045  29.834  1.00  0.00     0.080 A 
HETATM    9  C13 UNK     1      34.433  -9.192  30.509  1.00  0.00     0.094 A 
ENDROOT
BRANCH   9  10
HETATM   10  N1  UNK     1      35.642  -9.817  30.649  1.00  0.00    -0.316 N 
HETATM   11  C15 UNK     1      36.711  -9.404  31.455  1.00  0.00     0.262 C 
HETATM   12  O3  UNK     1      36.781  -8.420  32.181  1.00  0.00    -0.267 OA
HETATM   13  H19 UNK     1      35.753 -10.658  30.088  1.00  0.00     0.169 HD
BRANCH  11  14
HETATM   14  C16 UNK     1      37.870 -10.317  31.367  1.00  0.00     0.108 A 
HETATM   15  C18 UNK     1      38.459 -10.639  32.525  1.00  0.00     0.037 A 
HETATM   16  C20 UNK     1      39.606 -11.533  32.542  1.00  0.00     0.001 A 
HETATM   17  C21 UNK     1      40.078 -12.044  31.337  1.00  0.00     0.089 A 
HETATM   18  C22 UNK     1      40.252 -11.895  33.726  1.00  0.00     0.038 A 
HETATM   19  C23 UNK     1      41.174 -12.904  31.283  1.00  0.00     0.040 A 
HETATM   20  O4  UNK     1      39.454 -11.702  30.121  1.00  0.00    -0.274 OA
HETATM   21  C25 UNK     1      41.810 -13.261  32.469  1.00  0.00     0.026 A 
HETATM   22  C24 UNK     1      41.351 -12.758  33.689  1.00  0.00     0.035 A 
HETATM   23 Cl1  UNK     1      42.143 -13.203  35.152  1.00  0.00    -0.084 Cl
HETATM   24  C19 UNK     1      38.356 -10.849  30.074  1.00  0.00     0.304 A 
HETATM   25  O5  UNK     1      37.819 -10.557  29.011  1.00  0.00    -0.259 OA
ENDBRANCH  11  14
ENDBRANCH   9  10
BRANCH   8  26
HETATM   26  C14 UNK     1      35.026  -7.254  29.095  1.00  0.00     0.296 C 
HETATM   27  O2  UNK     1      35.572  -6.235  29.542  1.00  0.00    -0.259 OA
BRANCH  26  28
HETATM   28  O1  UNK     1      35.286  -7.730  27.829  1.00  0.00    -0.322 OA
HETATM   29  C17 UNK     1      36.658  -7.765  27.419  1.00  0.00     0.213 C 
ENDBRANCH  26  28
ENDBRANCH   8  26
BRANCH   2  30
HETATM   30  C2  UNK     1      28.400  -7.494  30.693  1.00  0.00    -0.044 C 
HETATM   31  C10 UNK     1      27.881  -6.144  30.151  1.00  0.00     0.015 C 
HETATM   32  C9  UNK     1      27.457  -8.607  30.194  1.00  0.00     0.015 C 
BRANCH  30  33
HETATM   33  C6  UNK     1      28.391  -7.420  32.245  1.00  0.00     0.004 C 
HETATM   34  C12 UNK     1      28.068  -6.054  32.839  1.00  0.00     0.006 C 
ENDBRANCH  30  33
ENDBRANCH   2  30
TORSDOF 6
ENDMDL
MODEL 10
REMARK VINA RESULT:      -8.1     22.108     24.327
REMARK  6 active torsions:
REMARK  status: ('A' for Active; 'I' for Inactive)
REMARK    1  A    between atoms: C14_22  and  O1_3 
REMARK    2  A    between atoms: C13_21  and  N1_8 
REMARK       I    between atoms: C15_23  and  N1_8 
REMARK    3  A    between atoms: C1_9  and  C2_10 
REMARK    4  A    between atoms: C2_10  and  C6_14 
REMARK    5  A    between atoms: C11_19  and  C14_22 
REMARK    6  A    between atoms: C15_23  and  C16_24 
ROOT
HETATM    1  S1  UNK     1      14.816  10.056   8.343  1.00  0.00    -0.075 SA
HETATM    2  C1  UNK     1      11.811   7.346   9.066  1.00  0.00    -0.002 C 
HETATM    3  C3  UNK     1      12.750   6.144   9.307  1.00  0.00     0.010 C 
HETATM    4  C4  UNK     1      12.522   8.451   8.250  1.00  0.00     0.052 C 
HETATM    5  C5  UNK     1      13.996   6.549  10.109  1.00  0.00     0.041 C 
HETATM    6  C7  UNK     1      13.907   8.681   8.768  1.00  0.00    -0.008 A 
HETATM    7  C8  UNK     1      14.602   7.818   9.594  1.00  0.00    -0.026 A 
HETATM    8  C11 UNK     1      15.908   8.313   9.885  1.00  0.00     0.080 A 
HETATM    9  C13 UNK     1      16.155   9.521   9.267  1.00  0.00     0.094 A 
ENDROOT
BRANCH   9  10
HETATM   10  N1  UNK     1      17.256  10.332   9.276  1.00  0.00    -0.316 N 
HETATM   11  C15 UNK     1      17.488  11.422  10.126  1.00  0.00     0.262 C 
HETATM   12  O3  UNK     1      16.768  11.860  11.015  1.00  0.00    -0.267 OA
HETATM   13  H19 UNK     1      17.955  10.107   8.572  1.00  0.00     0.169 HD
BRANCH  11  14
HETATM   14  C16 UNK     1      18.785  12.080   9.860  1.00  0.00     0.108 A 
HETATM   15  C18 UNK     1      19.774  11.808  10.721  1.00  0.00     0.037 A 
HETATM   16  C20 UNK     1      21.087  12.407  10.542  1.00  0.00     0.001 A 
HETATM   17  C21 UNK     1      21.296  13.262   9.465  1.00  0.00     0.089 A 
HETATM   18  C22 UNK     1      22.147  12.153  11.416  1.00  0.00     0.038 A 
HETATM   19  C23 UNK     1      22.530  13.869   9.237  1.00  0.00     0.040 A 
HETATM   20  O4  UNK     1      20.251  13.544   8.562  1.00  0.00    -0.274 OA
HETATM   21  C25 UNK     1      23.581  13.609  10.113  1.00  0.00     0.026 A 
HETATM   22  C24 UNK     1      23.391  12.753  11.200  1.00  0.00     0.035 A 
HETATM   23 Cl1  UNK     1      24.695  12.436  12.279  1.00  0.00    -0.084 Cl
HETATM   24  C19 UNK     1      18.985  12.986   8.708  1.00  0.00     0.304 A 
HETATM   25  O5  UNK     1      18.082  13.237   7.917  1.00  0.00    -0.259 OA
ENDBRANCH  11  14
ENDBRANCH   9  10
BRANCH   8  26
HETATM   26  C14 UNK     1      16.883   7.661  10.723  1.00  0.00     0.296 C 
HETATM   27  O2  UNK     1      16.720   7.445  11.932  1.00  0.00    -0.259 OA
BRANCH  26  28
HETATM   28  O1  UNK     1      18.032   7.291  10.059  1.00  0.00    -0.322 OA
HETATM   29  C17 UNK     1      17.939   6.158   9.187  1.00  0.00     0.213 C 
ENDBRANCH  26  28
ENDBRANCH   8  26
BRANCH   2  30
HETATM   30  C2  UNK     1      10.531   6.902   8.360  1.00  0.00    -0.044 C 
HETATM   31  C10 UNK     1      10.211   5.449   8.775  1.00  0.00     0.015 C 
HETATM   32  C9  UNK     1       9.358   7.798   8.806  1.00  0.00     0.015 C 
BRANCH  30  33
HETATM   33  C6  UNK     1      10.691   6.932   6.815  1.00  0.00     0.004 C 
HETATM   34  C12 UNK     1       9.628   6.176   6.027  1.00  0.00     0.006 C 
ENDBRANCH  30  33
ENDBRANCH   2  30
TORSDOF 6
ENDMDL
