MODEL 1
REMARK VINA RESULT:      -9.5      0.000      0.000
REMARK  4 active torsions:
REMARK  status: ('A' for Active; 'I' for Inactive)
REMARK    1  A    between atoms: C10_15  and  O2_2 
REMARK    2  A    between atoms: C1_6  and  N1_5 
REMARK       I    between atoms: C5_10  and  N1_5 
REMARK    3  A    between atoms: C1_6  and  C2_7 
REMARK    4  A    between atoms: C5_10  and  C7_12 
ROOT
HETATM    1  O3  UNK     1      18.218   3.353  29.029  1.00  0.00    -0.267 OA
HETATM    2  N1  UNK     1      18.860   4.177  31.113  1.00  0.00    -0.348 N 
HETATM    3  C5  UNK     1      18.633   3.187  30.174  1.00  0.00     0.258 C 
HETATM    4  H2  UNK     1      19.267   3.927  32.009  1.00  0.00     0.163 HD
ENDROOT
BRANCH   3   5
HETATM    5  C7  UNK     1      18.945   1.843  30.675  1.00  0.00     0.108 A 
HETATM    6  C14 UNK     1      18.561   1.403  32.035  1.00  0.00     0.304 A 
HETATM    7  O1  UNK     1      18.914   0.106  32.396  1.00  0.00    -0.274 OA
HETATM    8  O4  UNK     1      17.963   2.141  32.810  1.00  0.00    -0.259 OA
HETATM    9  C11 UNK     1      19.601  -0.750  31.512  1.00  0.00     0.089 A 
HETATM   10  C8  UNK     1      19.952  -0.316  30.238  1.00  0.00    -0.001 A 
HETATM   11  C16 UNK     1      19.909  -2.033  31.963  1.00  0.00     0.038 A 
HETATM   12  C15 UNK     1      20.634  -1.194  29.392  1.00  0.00     0.014 A 
HETATM   13  C9  UNK     1      19.599   1.035  29.832  1.00  0.00     0.037 A 
HETATM   14  C17 UNK     1      20.951  -2.483  29.830  1.00  0.00     0.001 A 
HETATM   15  C18 UNK     1      20.590  -2.901  31.112  1.00  0.00     0.003 A 
ENDBRANCH   3   5
BRANCH   2  16
HETATM   16  C1  UNK     1      18.627   5.579  30.851  1.00  0.00     0.114 C 
HETATM   17  C3  UNK     1      19.718   6.160  29.958  1.00  0.00     0.037 C 
BRANCH  16  18
HETATM   18  C2  UNK     1      18.488   6.323  32.162  1.00  0.00    -0.033 A 
HETATM   19  C4  UNK     1      17.246   6.400  32.766  1.00  0.00     0.046 A 
HETATM   20  C10 UNK     1      17.118   7.085  33.975  1.00  0.00     0.068 A 
HETATM   21  C13 UNK     1      18.235   7.681  34.559  1.00  0.00     0.037 A 
HETATM   22  C12 UNK     1      19.479   7.593  33.937  1.00  0.00     0.003 A 
HETATM   23  C6  UNK     1      19.607   6.908  32.728  1.00  0.00     0.009 A 
BRANCH  20  24
HETATM   24  O2  UNK     1      15.903   7.171  34.583  1.00  0.00    -0.356 OA
HETATM   25  C19 UNK     1      14.791   7.529  33.765  1.00  0.00     0.210 C 
ENDBRANCH  20  24
ENDBRANCH  16  18
ENDBRANCH   2  16
TORSDOF 4
ENDMDL
MODEL 2
REMARK VINA RESULT:      -9.4      1.763      7.497
REMARK  4 active torsions:
REMARK  status: ('A' for Active; 'I' for Inactive)
REMARK    1  A    between atoms: C10_15  and  O2_2 
REMARK    2  A    between atoms: C1_6  and  N1_5 
REMARK       I    between atoms: C5_10  and  N1_5 
REMARK    3  A    between atoms: C1_6  and  C2_7 
REMARK    4  A    between atoms: C5_10  and  C7_12 
ROOT
HETATM    1  O3  UNK     1      18.751   4.739  28.871  1.00  0.00    -0.267 OA
HETATM    2  N1  UNK     1      19.142   2.963  30.330  1.00  0.00    -0.348 N 
HETATM    3  C5  UNK     1      18.971   4.294  29.996  1.00  0.00     0.258 C 
HETATM    4  H2  UNK     1      19.253   2.707  31.306  1.00  0.00     0.163 HD
ENDROOT
BRANCH   3   5
HETATM    5  C7  UNK     1      19.075   5.191  31.153  1.00  0.00     0.108 A 
HETATM    6  C14 UNK     1      20.349   5.846  31.526  1.00  0.00     0.304 A 
HETATM    7  O1  UNK     1      20.323   6.674  32.645  1.00  0.00    -0.274 OA
HETATM    8  O4  UNK     1      21.380   5.670  30.886  1.00  0.00    -0.259 OA
HETATM    9  C11 UNK     1      19.144   6.883  33.387  1.00  0.00     0.089 A 
HETATM   10  C8  UNK     1      17.957   6.258  33.019  1.00  0.00    -0.001 A 
HETATM   11  C16 UNK     1      19.215   7.731  34.491  1.00  0.00     0.038 A 
HETATM   12  C15 UNK     1      16.809   6.489  33.781  1.00  0.00     0.014 A 
HETATM   13  C9  UNK     1      17.952   5.385  31.855  1.00  0.00     0.037 A 
HETATM   14  C17 UNK     1      16.866   7.337  34.891  1.00  0.00     0.001 A 
HETATM   15  C18 UNK     1      18.066   7.956  35.245  1.00  0.00     0.003 A 
ENDBRANCH   3   5
BRANCH   2  16
HETATM   16  C1  UNK     1      19.080   1.893  29.360  1.00  0.00     0.114 C 
HETATM   17  C3  UNK     1      17.699   1.811  28.719  1.00  0.00     0.037 C 
BRANCH  16  18
HETATM   18  C2  UNK     1      19.498   0.594  30.013  1.00  0.00    -0.033 A 
HETATM   19  C4  UNK     1      19.181   0.372  31.341  1.00  0.00     0.046 A 
HETATM   20  C10 UNK     1      19.567  -0.826  31.943  1.00  0.00     0.068 A 
HETATM   21  C13 UNK     1      20.262  -1.783  31.206  1.00  0.00     0.037 A 
HETATM   22  C12 UNK     1      20.573  -1.544  29.868  1.00  0.00     0.003 A 
HETATM   23  C6  UNK     1      20.188  -0.345  29.266  1.00  0.00     0.009 A 
BRANCH  20  24
HETATM   24  O2  UNK     1      19.262  -1.061  33.249  1.00  0.00    -0.356 OA
HETATM   25  C19 UNK     1      18.335  -0.171  33.869  1.00  0.00     0.210 C 
ENDBRANCH  20  24
ENDBRANCH  16  18
ENDBRANCH   2  16
TORSDOF 4
ENDMDL
MODEL 3
REMARK VINA RESULT:      -9.0      2.770      3.888
REMARK  4 active torsions:
REMARK  status: ('A' for Active; 'I' for Inactive)
REMARK    1  A    between atoms: C10_15  and  O2_2 
REMARK    2  A    between atoms: C1_6  and  N1_5 
REMARK       I    between atoms: C5_10  and  N1_5 
REMARK    3  A    between atoms: C1_6  and  C2_7 
REMARK    4  A    between atoms: C5_10  and  C7_12 
ROOT
HETATM    1  O3  UNK     1      17.537   2.793  31.066  1.00  0.00    -0.267 OA
HETATM    2  N1  UNK     1      18.653   4.236  32.518  1.00  0.00    -0.348 N 
HETATM    3  C5  UNK     1      18.083   3.034  32.142  1.00  0.00     0.258 C 
HETATM    4  H2  UNK     1      19.136   4.299  33.409  1.00  0.00     0.163 HD
ENDROOT
BRANCH   3   5
HETATM    5  C7  UNK     1      18.185   2.003  33.182  1.00  0.00     0.108 A 
HETATM    6  C14 UNK     1      18.640   0.627  32.881  1.00  0.00     0.304 A 
HETATM    7  O1  UNK     1      18.693  -0.262  33.951  1.00  0.00    -0.274 OA
HETATM    8  O4  UNK     1      18.953   0.281  31.747  1.00  0.00    -0.259 OA
HETATM    9  C11 UNK     1      18.336   0.126  35.257  1.00  0.00     0.089 A 
HETATM   10  C8  UNK     1      17.911   1.425  35.518  1.00  0.00    -0.001 A 
HETATM   11  C16 UNK     1      18.423  -0.834  36.264  1.00  0.00     0.038 A 
HETATM   12  C15 UNK     1      17.564   1.771  36.827  1.00  0.00     0.014 A 
HETATM   13  C9  UNK     1      17.843   2.377  34.420  1.00  0.00     0.037 A 
HETATM   14  C17 UNK     1      17.647   0.818  37.847  1.00  0.00     0.001 A 
HETATM   15  C18 UNK     1      18.075  -0.481  37.566  1.00  0.00     0.003 A 
ENDBRANCH   3   5
BRANCH   2  16
HETATM   16  C1  UNK     1      18.678   5.399  31.659  1.00  0.00     0.114 C 
HETATM   17  C3  UNK     1      19.851   5.341  30.688  1.00  0.00     0.037 C 
BRANCH  16  18
HETATM   18  C2  UNK     1      18.683   6.653  32.507  1.00  0.00    -0.033 A 
HETATM   19  C4  UNK     1      17.636   7.551  32.390  1.00  0.00     0.046 A 
HETATM   20  C10 UNK     1      17.641   8.706  33.172  1.00  0.00     0.068 A 
HETATM   21  C13 UNK     1      18.691   8.945  34.057  1.00  0.00     0.037 A 
HETATM   22  C12 UNK     1      19.738   8.029  34.161  1.00  0.00     0.003 A 
HETATM   23  C6  UNK     1      19.733   6.873  33.380  1.00  0.00     0.009 A 
BRANCH  20  24
HETATM   24  O2  UNK     1      16.619   9.600  33.071  1.00  0.00    -0.356 OA
HETATM   25  C19 UNK     1      15.306   9.069  32.901  1.00  0.00     0.210 C 
ENDBRANCH  20  24
ENDBRANCH  16  18
ENDBRANCH   2  16
TORSDOF 4
ENDMDL
MODEL 4
REMARK VINA RESULT:      -8.8      6.517      9.838
REMARK  4 active torsions:
REMARK  status: ('A' for Active; 'I' for Inactive)
REMARK    1  A    between atoms: C10_15  and  O2_2 
REMARK    2  A    between atoms: C1_6  and  N1_5 
REMARK       I    between atoms: C5_10  and  N1_5 
REMARK    3  A    between atoms: C1_6  and  C2_7 
REMARK    4  A    between atoms: C5_10  and  C7_12 
ROOT
HETATM    1  O3  UNK     1      21.072  -3.856  37.604  1.00  0.00    -0.267 OA
HETATM    2  N1  UNK     1      19.527  -3.794  35.859  1.00  0.00    -0.348 N 
HETATM    3  C5  UNK     1      20.315  -4.414  36.811  1.00  0.00     0.258 C 
HETATM    4  H2  UNK     1      18.890  -4.354  35.301  1.00  0.00     0.163 HD
ENDROOT
BRANCH   3   5
HETATM    5  C7  UNK     1      20.172  -5.875  36.808  1.00  0.00     0.108 A 
HETATM    6  C14 UNK     1      20.178  -6.661  35.554  1.00  0.00     0.304 A 
HETATM    7  O1  UNK     1      20.033  -8.040  35.679  1.00  0.00    -0.274 OA
HETATM    8  O4  UNK     1      20.303  -6.130  34.456  1.00  0.00    -0.259 OA
HETATM    9  C11 UNK     1      19.889  -8.660  36.936  1.00  0.00     0.089 A 
HETATM   10  C8  UNK     1      19.886  -7.902  38.103  1.00  0.00    -0.001 A 
HETATM   11  C16 UNK     1      19.751 -10.047  36.961  1.00  0.00     0.038 A 
HETATM   12  C15 UNK     1      19.740  -8.554  39.330  1.00  0.00     0.014 A 
HETATM   13  C9  UNK     1      20.034  -6.458  38.004  1.00  0.00     0.037 A 
HETATM   14  C17 UNK     1      19.601  -9.945  39.370  1.00  0.00     0.001 A 
HETATM   15  C18 UNK     1      19.606 -10.689  38.189  1.00  0.00     0.003 A 
ENDBRANCH   3   5
BRANCH   2  16
HETATM   16  C1  UNK     1      19.497  -2.361  35.673  1.00  0.00     0.114 C 
HETATM   17  C3  UNK     1      18.194  -1.766  36.197  1.00  0.00     0.037 C 
BRANCH  16  18
HETATM   18  C2  UNK     1      19.743  -2.034  34.216  1.00  0.00    -0.033 A 
HETATM   19  C4  UNK     1      19.001  -1.034  33.614  1.00  0.00     0.046 A 
HETATM   20  C10 UNK     1      19.228  -0.732  32.271  1.00  0.00     0.068 A 
HETATM   21  C13 UNK     1      20.194  -1.435  31.553  1.00  0.00     0.037 A 
HETATM   22  C12 UNK     1      20.933  -2.441  32.176  1.00  0.00     0.003 A 
HETATM   23  C6  UNK     1      20.706  -2.742  33.519  1.00  0.00     0.009 A 
BRANCH  20  24
HETATM   24  O2  UNK     1      18.508   0.250  31.662  1.00  0.00    -0.356 OA
HETATM   25  C19 UNK     1      19.135   0.943  30.585  1.00  0.00     0.210 C 
ENDBRANCH  20  24
ENDBRANCH  16  18
ENDBRANCH   2  16
TORSDOF 4
ENDMDL
MODEL 5
REMARK VINA RESULT:      -8.7      6.714     10.151
REMARK  4 active torsions:
REMARK  status: ('A' for Active; 'I' for Inactive)
REMARK    1  A    between atoms: C10_15  and  O2_2 
REMARK    2  A    between atoms: C1_6  and  N1_5 
REMARK       I    between atoms: C5_10  and  N1_5 
REMARK    3  A    between atoms: C1_6  and  C2_7 
REMARK    4  A    between atoms: C5_10  and  C7_12 
ROOT
HETATM    1  O3  UNK     1      21.634  -4.037  37.262  1.00  0.00    -0.267 OA
HETATM    2  N1  UNK     1      19.446  -3.768  36.502  1.00  0.00    -0.348 N 
HETATM    3  C5  UNK     1      20.551  -4.497  36.904  1.00  0.00     0.258 C 
HETATM    4  H2  UNK     1      18.581  -4.255  36.289  1.00  0.00     0.163 HD
ENDROOT
BRANCH   3   5
HETATM    5  C7  UNK     1      20.321  -5.946  36.870  1.00  0.00     0.108 A 
HETATM    6  C14 UNK     1      20.225  -6.696  35.598  1.00  0.00     0.304 A 
HETATM    7  O1  UNK     1      20.004  -8.067  35.695  1.00  0.00    -0.274 OA
HETATM    8  O4  UNK     1      20.330  -6.143  34.509  1.00  0.00    -0.259 OA
HETATM    9  C11 UNK     1      19.880  -8.713  36.941  1.00  0.00     0.089 A 
HETATM   10  C8  UNK     1      19.975  -7.989  38.125  1.00  0.00    -0.001 A 
HETATM   11  C16 UNK     1      19.662 -10.090  36.938  1.00  0.00     0.038 A 
HETATM   12  C15 UNK     1      19.847  -8.665  39.341  1.00  0.00     0.014 A 
HETATM   13  C9  UNK     1      20.204  -6.554  38.057  1.00  0.00     0.037 A 
HETATM   14  C17 UNK     1      19.628 -10.046  39.353  1.00  0.00     0.001 A 
HETATM   15  C18 UNK     1      19.535 -10.756  38.155  1.00  0.00     0.003 A 
ENDBRANCH   3   5
BRANCH   2  16
HETATM   16  C1  UNK     1      19.431  -2.323  36.454  1.00  0.00     0.114 C 
HETATM   17  C3  UNK     1      18.322  -1.756  37.333  1.00  0.00     0.037 C 
BRANCH  16  18
HETATM   18  C2  UNK     1      19.327  -1.866  35.015  1.00  0.00    -0.033 A 
HETATM   19  C4  UNK     1      20.152  -2.439  34.063  1.00  0.00     0.046 A 
HETATM   20  C10 UNK     1      20.056  -2.018  32.737  1.00  0.00     0.068 A 
HETATM   21  C13 UNK     1      19.137  -1.031  32.384  1.00  0.00     0.037 A 
HETATM   22  C12 UNK     1      18.314  -0.464  33.357  1.00  0.00     0.003 A 
HETATM   23  C6  UNK     1      18.409  -0.885  34.683  1.00  0.00     0.009 A 
BRANCH  20  24
HETATM   24  O2  UNK     1      20.858  -2.572  31.787  1.00  0.00    -0.356 OA
HETATM   25  C19 UNK     1      20.490  -2.364  30.424  1.00  0.00     0.210 C 
ENDBRANCH  20  24
ENDBRANCH  16  18
ENDBRANCH   2  16
TORSDOF 4
ENDMDL
MODEL 6
REMARK VINA RESULT:      -8.5      4.722      9.677
REMARK  4 active torsions:
REMARK  status: ('A' for Active; 'I' for Inactive)
REMARK    1  A    between atoms: C10_15  and  O2_2 
REMARK    2  A    between atoms: C1_6  and  N1_5 
REMARK       I    between atoms: C5_10  and  N1_5 
REMARK    3  A    between atoms: C1_6  and  C2_7 
REMARK    4  A    between atoms: C5_10  and  C7_12 
ROOT
HETATM    1  O3  UNK     1      17.985  -1.052  36.197  1.00  0.00    -0.267 OA
HETATM    2  N1  UNK     1      19.350  -2.788  35.448  1.00  0.00    -0.348 N 
HETATM    3  C5  UNK     1      18.673  -1.588  35.329  1.00  0.00     0.258 C 
HETATM    4  H2  UNK     1      19.941  -3.102  34.685  1.00  0.00     0.163 HD
ENDROOT
BRANCH   3   5
HETATM    5  C7  UNK     1      18.848  -0.962  34.014  1.00  0.00     0.108 A 
HETATM    6  C14 UNK     1      18.395   0.419  33.735  1.00  0.00     0.304 A 
HETATM    7  O1  UNK     1      18.614   0.902  32.448  1.00  0.00    -0.274 OA
HETATM    8  O4  UNK     1      17.850   1.108  34.591  1.00  0.00    -0.259 OA
HETATM    9  C11 UNK     1      19.238   0.119  31.457  1.00  0.00     0.089 A 
HETATM   10  C8  UNK     1      19.657  -1.177  31.740  1.00  0.00    -0.001 A 
HETATM   11  C16 UNK     1      19.416   0.690  30.198  1.00  0.00     0.038 A 
HETATM   12  C15 UNK     1      20.272  -1.922  30.731  1.00  0.00     0.014 A 
HETATM   13  C9  UNK     1      19.440  -1.711  33.076  1.00  0.00     0.037 A 
HETATM   14  C17 UNK     1      20.456  -1.363  29.463  1.00  0.00     0.001 A 
HETATM   15  C18 UNK     1      20.029  -0.061  29.197  1.00  0.00     0.003 A 
ENDBRANCH   3   5
BRANCH   2  16
HETATM   16  C1  UNK     1      19.330  -3.588  36.652  1.00  0.00     0.114 C 
HETATM   17  C3  UNK     1      20.582  -3.351  37.490  1.00  0.00     0.037 C 
BRANCH  16  18
HETATM   18  C2  UNK     1      19.137  -5.044  36.290  1.00  0.00    -0.033 A 
HETATM   19  C4  UNK     1      20.113  -5.692  35.554  1.00  0.00     0.046 A 
HETATM   20  C10 UNK     1      19.935  -7.035  35.220  1.00  0.00     0.068 A 
HETATM   21  C13 UNK     1      18.784  -7.707  35.628  1.00  0.00     0.037 A 
HETATM   22  C12 UNK     1      17.810  -7.038  36.368  1.00  0.00     0.003 A 
HETATM   23  C6  UNK     1      17.988  -5.696  36.702  1.00  0.00     0.009 A 
BRANCH  20  24
HETATM   24  O2  UNK     1      20.886  -7.689  34.498  1.00  0.00    -0.356 OA
HETATM   25  C19 UNK     1      21.409  -8.894  35.054  1.00  0.00     0.210 C 
ENDBRANCH  20  24
ENDBRANCH  16  18
ENDBRANCH   2  16
TORSDOF 4
ENDMDL
MODEL 7
REMARK VINA RESULT:      -8.5      3.195      7.756
REMARK  4 active torsions:
REMARK  status: ('A' for Active; 'I' for Inactive)
REMARK    1  A    between atoms: C10_15  and  O2_2 
REMARK    2  A    between atoms: C1_6  and  N1_5 
REMARK       I    between atoms: C5_10  and  N1_5 
REMARK    3  A    between atoms: C1_6  and  C2_7 
REMARK    4  A    between atoms: C5_10  and  C7_12 
ROOT
HETATM    1  O3  UNK     1      18.535   1.957  35.551  1.00  0.00    -0.267 OA
HETATM    2  N1  UNK     1      17.161   0.568  34.279  1.00  0.00    -0.348 N 
HETATM    3  C5  UNK     1      18.012   1.639  34.484  1.00  0.00     0.258 C 
HETATM    4  H2  UNK     1      16.841   0.364  33.337  1.00  0.00     0.163 HD
ENDROOT
BRANCH   3   5
HETATM    5  C7  UNK     1      18.261   2.413  33.263  1.00  0.00     0.108 A 
HETATM    6  C14 UNK     1      18.618   1.765  31.981  1.00  0.00     0.304 A 
HETATM    7  O1  UNK     1      18.832   2.606  30.893  1.00  0.00    -0.274 OA
HETATM    8  O4  UNK     1      18.725   0.548  31.878  1.00  0.00    -0.259 OA
HETATM    9  C11 UNK     1      18.712   4.006  31.001  1.00  0.00     0.089 A 
HETATM   10  C8  UNK     1      18.375   4.595  32.215  1.00  0.00    -0.001 A 
HETATM   11  C16 UNK     1      18.944   4.766  29.855  1.00  0.00     0.038 A 
HETATM   12  C15 UNK     1      18.267   5.986  32.282  1.00  0.00     0.014 A 
HETATM   13  C9  UNK     1      18.147   3.742  33.372  1.00  0.00     0.037 A 
HETATM   14  C17 UNK     1      18.496   6.761  31.142  1.00  0.00     0.001 A 
HETATM   15  C18 UNK     1      18.834   6.152  29.931  1.00  0.00     0.003 A 
ENDBRANCH   3   5
BRANCH   2  16
HETATM   16  C1  UNK     1      16.770  -0.341  35.332  1.00  0.00     0.114 C 
HETATM   17  C3  UNK     1      16.132   0.408  36.497  1.00  0.00     0.037 C 
BRANCH  16  18
HETATM   18  C2  UNK     1      17.964  -1.169  35.755  1.00  0.00    -0.033 A 
HETATM   19  C4  UNK     1      18.965  -1.429  34.836  1.00  0.00     0.046 A 
HETATM   20  C10 UNK     1      20.066  -2.192  35.226  1.00  0.00     0.068 A 
HETATM   21  C13 UNK     1      20.148  -2.682  36.528  1.00  0.00     0.037 A 
HETATM   22  C12 UNK     1      19.130  -2.411  37.442  1.00  0.00     0.003 A 
HETATM   23  C6  UNK     1      18.029  -1.648  37.052  1.00  0.00     0.009 A 
BRANCH  20  24
HETATM   24  O2  UNK     1      21.061  -2.457  34.335  1.00  0.00    -0.356 OA
HETATM   25  C19 UNK     1      20.702  -2.496  32.954  1.00  0.00     0.210 C 
ENDBRANCH  20  24
ENDBRANCH  16  18
ENDBRANCH   2  16
TORSDOF 4
ENDMDL
MODEL 8
REMARK VINA RESULT:      -8.4      6.708     12.103
REMARK  4 active torsions:
REMARK  status: ('A' for Active; 'I' for Inactive)
REMARK    1  A    between atoms: C10_15  and  O2_2 
REMARK    2  A    between atoms: C1_6  and  N1_5 
REMARK       I    between atoms: C5_10  and  N1_5 
REMARK    3  A    between atoms: C1_6  and  C2_7 
REMARK    4  A    between atoms: C5_10  and  C7_12 
ROOT
HETATM    1  O3  UNK     1      21.372  -4.419  37.266  1.00  0.00    -0.267 OA
HETATM    2  N1  UNK     1      19.139  -5.090  37.273  1.00  0.00    -0.348 N 
HETATM    3  C5  UNK     1      20.177  -4.199  37.072  1.00  0.00     0.258 C 
HETATM    4  H2  UNK     1      18.195  -4.818  37.016  1.00  0.00     0.163 HD
ENDROOT
BRANCH   3   5
HETATM    5  C7  UNK     1      19.722  -2.894  36.579  1.00  0.00     0.108 A 
HETATM    6  C14 UNK     1      20.038  -2.417  35.213  1.00  0.00     0.304 A 
HETATM    7  O1  UNK     1      19.552  -1.161  34.861  1.00  0.00    -0.274 OA
HETATM    8  O4  UNK     1      20.696  -3.090  34.428  1.00  0.00    -0.259 OA
HETATM    9  C11 UNK     1      18.795  -0.380  35.757  1.00  0.00     0.089 A 
HETATM   10  C8  UNK     1      18.509  -0.847  37.036  1.00  0.00    -0.001 A 
HETATM   11  C16 UNK     1      18.350   0.865  35.314  1.00  0.00     0.038 A 
HETATM   12  C15 UNK     1      17.756  -0.043  37.895  1.00  0.00     0.014 A 
HETATM   13  C9  UNK     1      19.004  -2.156  37.434  1.00  0.00     0.037 A 
HETATM   14  C17 UNK     1      17.304   1.208  37.464  1.00  0.00     0.001 A 
HETATM   15  C18 UNK     1      17.600   1.661  36.177  1.00  0.00     0.003 A 
ENDBRANCH   3   5
BRANCH   2  16
HETATM   16  C1  UNK     1      19.340  -6.439  37.753  1.00  0.00     0.114 C 
HETATM   17  C3  UNK     1      20.042  -6.441  39.107  1.00  0.00     0.037 C 
BRANCH  16  18
HETATM   18  C2  UNK     1      20.083  -7.242  36.709  1.00  0.00    -0.033 A 
HETATM   19  C4  UNK     1      20.990  -8.205  37.116  1.00  0.00     0.046 A 
HETATM   20  C10 UNK     1      21.675  -8.946  36.153  1.00  0.00     0.068 A 
HETATM   21  C13 UNK     1      21.442  -8.712  34.798  1.00  0.00     0.037 A 
HETATM   22  C12 UNK     1      20.524  -7.738  34.406  1.00  0.00     0.003 A 
HETATM   23  C6  UNK     1      19.839  -6.997  35.369  1.00  0.00     0.009 A 
BRANCH  20  24
HETATM   24  O2  UNK     1      22.570  -9.897  36.535  1.00  0.00    -0.356 OA
HETATM   25  C19 UNK     1      22.618 -11.093  35.759  1.00  0.00     0.210 C 
ENDBRANCH  20  24
ENDBRANCH  16  18
ENDBRANCH   2  16
TORSDOF 4
ENDMDL
MODEL 9
REMARK VINA RESULT:      -8.3     10.007     14.124
REMARK  4 active torsions:
REMARK  status: ('A' for Active; 'I' for Inactive)
REMARK    1  A    between atoms: C10_15  and  O2_2 
REMARK    2  A    between atoms: C1_6  and  N1_5 
REMARK       I    between atoms: C5_10  and  N1_5 
REMARK    3  A    between atoms: C1_6  and  C2_7 
REMARK    4  A    between atoms: C5_10  and  C7_12 
ROOT
HETATM    1  O3  UNK     1      22.536  -8.317  39.937  1.00  0.00    -0.267 OA
HETATM    2  N1  UNK     1      22.781  -8.723  37.654  1.00  0.00    -0.348 N 
HETATM    3  C5  UNK     1      23.159  -8.211  38.882  1.00  0.00     0.258 C 
HETATM    4  H2  UNK     1      23.409  -8.628  36.863  1.00  0.00     0.163 HD
ENDROOT
BRANCH   3   5
HETATM    5  C7  UNK     1      24.434  -7.487  38.831  1.00  0.00     0.108 A 
HETATM    6  C14 UNK     1      24.499  -6.008  38.841  1.00  0.00     0.304 A 
HETATM    7  O1  UNK     1      25.768  -5.437  38.787  1.00  0.00    -0.274 OA
HETATM    8  O4  UNK     1      23.489  -5.315  38.892  1.00  0.00    -0.259 OA
HETATM    9  C11 UNK     1      26.934  -6.225  38.728  1.00  0.00     0.089 A 
HETATM   10  C8  UNK     1      26.851  -7.613  38.720  1.00  0.00    -0.001 A 
HETATM   11  C16 UNK     1      28.160  -5.562  38.678  1.00  0.00     0.038 A 
HETATM   12  C15 UNK     1      28.031  -8.359  38.659  1.00  0.00     0.014 A 
HETATM   13  C9  UNK     1      25.539  -8.240  38.773  1.00  0.00     0.037 A 
HETATM   14  C17 UNK     1      29.267  -7.709  38.609  1.00  0.00     0.001 A 
HETATM   15  C18 UNK     1      29.332  -6.314  38.618  1.00  0.00     0.003 A 
ENDBRANCH   3   5
BRANCH   2  16
HETATM   16  C1  UNK     1      21.563  -9.476  37.456  1.00  0.00     0.114 C 
HETATM   17  C3  UNK     1      21.818 -10.724  36.619  1.00  0.00     0.037 C 
BRANCH  16  18
HETATM   18  C2  UNK     1      20.505  -8.577  36.855  1.00  0.00    -0.033 A 
HETATM   19  C4  UNK     1      20.865  -7.322  36.396  1.00  0.00     0.046 A 
HETATM   20  C10 UNK     1      19.890  -6.493  35.841  1.00  0.00     0.068 A 
HETATM   21  C13 UNK     1      18.570  -6.932  35.755  1.00  0.00     0.037 A 
HETATM   22  C12 UNK     1      18.223  -8.200  36.223  1.00  0.00     0.003 A 
HETATM   23  C6  UNK     1      19.199  -9.029  36.778  1.00  0.00     0.009 A 
BRANCH  20  24
HETATM   24  O2  UNK     1      20.227  -5.257  35.384  1.00  0.00    -0.356 OA
HETATM   25  C19 UNK     1      19.966  -4.151  36.247  1.00  0.00     0.210 C 
ENDBRANCH  20  24
ENDBRANCH  16  18
ENDBRANCH   2  16
TORSDOF 4
ENDMDL
MODEL 10
REMARK VINA RESULT:      -8.3     22.753     25.218
REMARK  4 active torsions:
REMARK  status: ('A' for Active; 'I' for Inactive)
REMARK    1  A    between atoms: C10_15  and  O2_2 
REMARK    2  A    between atoms: C1_6  and  N1_5 
REMARK       I    between atoms: C5_10  and  N1_5 
REMARK    3  A    between atoms: C1_6  and  C2_7 
REMARK    4  A    between atoms: C5_10  and  C7_12 
ROOT
HETATM    1  O3  UNK     1      12.614   7.645  10.706  1.00  0.00    -0.267 OA
HETATM    2  N1  UNK     1      13.224   6.415   8.822  1.00  0.00    -0.348 N 
HETATM    3  C5  UNK     1      13.365   7.423   9.758  1.00  0.00     0.258 C 
HETATM    4  H2  UNK     1      13.944   6.287   8.119  1.00  0.00     0.163 HD
ENDROOT
BRANCH   3   5
HETATM    5  C7  UNK     1      14.548   8.259   9.523  1.00  0.00     0.108 A 
HETATM    6  C14 UNK     1      15.878   7.909  10.072  1.00  0.00     0.304 A 
HETATM    7  O1  UNK     1      16.923   8.781   9.783  1.00  0.00    -0.274 OA
HETATM    8  O4  UNK     1      16.055   6.904  10.752  1.00  0.00    -0.259 OA
HETATM    9  C11 UNK     1      16.730   9.939   9.003  1.00  0.00     0.089 A 
HETATM   10  C8  UNK     1      15.472  10.249   8.496  1.00  0.00    -0.001 A 
HETATM   11  C16 UNK     1      17.838  10.751   8.765  1.00  0.00     0.038 A 
HETATM   12  C15 UNK     1      15.321  11.406   7.728  1.00  0.00     0.014 A 
HETATM   13  C9  UNK     1      14.359   9.358   8.783  1.00  0.00     0.037 A 
HETATM   14  C17 UNK     1      16.424  12.230   7.481  1.00  0.00     0.001 A 
HETATM   15  C18 UNK     1      17.679  11.903   7.999  1.00  0.00     0.003 A 
ENDBRANCH   3   5
BRANCH   2  16
HETATM   16  C1  UNK     1      12.136   5.463   8.848  1.00  0.00     0.114 C 
HETATM   17  C3  UNK     1      12.641   4.045   8.604  1.00  0.00     0.037 C 
BRANCH  16  18
HETATM   18  C2  UNK     1      11.074   5.883   7.856  1.00  0.00    -0.033 A 
HETATM   19  C4  UNK     1       9.788   6.129   8.306  1.00  0.00     0.046 A 
HETATM   20  C10 UNK     1       8.809   6.516   7.391  1.00  0.00     0.068 A 
HETATM   21  C13 UNK     1       9.131   6.652   6.041  1.00  0.00     0.037 A 
HETATM   22  C12 UNK     1      10.431   6.400   5.605  1.00  0.00     0.003 A 
HETATM   23  C6  UNK     1      11.411   6.013   6.519  1.00  0.00     0.009 A 
BRANCH  20  24
HETATM   24  O2  UNK     1       7.540   6.762   7.816  1.00  0.00    -0.356 OA
HETATM   25  C19 UNK     1       7.393   7.508   9.024  1.00  0.00     0.210 C 
ENDBRANCH  20  24
ENDBRANCH  16  18
ENDBRANCH   2  16
TORSDOF 4
ENDMDL
