MODEL 1
REMARK VINA RESULT:      -7.5      0.000      0.000
REMARK  5 active torsions:
REMARK  status: ('A' for Active; 'I' for Inactive)
REMARK    1  A    between atoms: C7_10  and  O2_2 
REMARK    2  A    between atoms: C9_12  and  O2_2 
REMARK    3  A    between atoms: C3_6  and  C5_8 
REMARK    4  A    between atoms: C12_15  and  C6_9 
REMARK    5  A    between atoms: C6_9  and  C9_12 
ROOT
HETATM    1  O1  UNK     1      17.458  -0.328  33.667  1.00  0.00    -0.274 OA
HETATM    2  O3  UNK     1      16.037   0.430  35.265  1.00  0.00    -0.259 OA
HETATM    3  C1  UNK     1      19.359  -1.720  34.276  1.00  0.00     0.005 A 
HETATM    4  C2  UNK     1      18.940  -1.642  35.691  1.00  0.00    -0.037 A 
HETATM    5  C3  UNK     1      17.857  -0.907  36.022  1.00  0.00     0.024 A 
HETATM    6  C4  UNK     1      18.603  -1.061  33.312  1.00  0.00     0.092 A 
HETATM    7  C7  UNK     1      20.053  -1.784  31.536  1.00  0.00     0.071 A 
HETATM    8  C8  UNK     1      20.494  -2.416  33.831  1.00  0.00     0.017 A 
HETATM    9  C10 UNK     1      18.929  -1.083  31.953  1.00  0.00     0.075 A 
HETATM   10  C11 UNK     1      17.043  -0.213  34.982  1.00  0.00     0.295 A 
HETATM   11  C13 UNK     1      19.759  -2.422  36.689  1.00  0.00     0.050 C 
HETATM   12  C14 UNK     1      20.837  -2.449  32.474  1.00  0.00     0.038 A 
ENDROOT
BRANCH   7  13
HETATM   13  O2  UNK     1      20.389  -1.817  30.218  1.00  0.00    -0.351 OA
BRANCH  13  14
HETATM   14  C9  UNK     1      20.799  -0.588  29.619  1.00  0.00     0.175 C 
BRANCH  14  15
HETATM   15  C6  UNK     1      19.665  -0.061  28.752  1.00  0.00     0.026 C 
BRANCH  15  16
HETATM   16  C12 UNK     1      19.154   1.287  29.253  1.00  0.00    -0.002 C 
HETATM   17  C16 UNK     1      17.854   1.680  28.568  1.00  0.00     0.005 C 
ENDBRANCH  15  16
ENDBRANCH  14  15
ENDBRANCH  13  14
ENDBRANCH   7  13
BRANCH   5  18
HETATM   18  C5  UNK     1      17.360  -0.691  37.429  1.00  0.00     0.041 C 
HETATM   19  C15 UNK     1      17.721   0.688  37.936  1.00  0.00     0.010 C 
ENDBRANCH   5  18
TORSDOF 5
ENDMDL
MODEL 2
REMARK VINA RESULT:      -7.2      1.721      5.984
REMARK  5 active torsions:
REMARK  status: ('A' for Active; 'I' for Inactive)
REMARK    1  A    between atoms: C7_10  and  O2_2 
REMARK    2  A    between atoms: C9_12  and  O2_2 
REMARK    3  A    between atoms: C3_6  and  C5_8 
REMARK    4  A    between atoms: C12_15  and  C6_9 
REMARK    5  A    between atoms: C6_9  and  C9_12 
ROOT
HETATM    1  O1  UNK     1      18.617   0.707  32.777  1.00  0.00    -0.274 OA
HETATM    2  O3  UNK     1      17.786   2.592  31.826  1.00  0.00    -0.259 OA
HETATM    3  C1  UNK     1      19.987  -0.825  31.472  1.00  0.00     0.005 A 
HETATM    4  C2  UNK     1      19.845   0.072  30.306  1.00  0.00    -0.037 A 
HETATM    5  C3  UNK     1      19.094   1.187  30.414  1.00  0.00     0.024 A 
HETATM    6  C4  UNK     1      19.368  -0.475  32.669  1.00  0.00     0.092 A 
HETATM    7  C7  UNK     1      20.173  -2.452  33.777  1.00  0.00     0.071 A 
HETATM    8  C8  UNK     1      20.705  -2.031  31.453  1.00  0.00     0.017 A 
HETATM    9  C10 UNK     1      19.451  -1.266  33.818  1.00  0.00     0.075 A 
HETATM   10  C11 UNK     1      18.444   1.563  31.703  1.00  0.00     0.295 A 
HETATM   11  C13 UNK     1      20.583  -0.322  29.050  1.00  0.00     0.050 C 
HETATM   12  C14 UNK     1      20.798  -2.836  32.595  1.00  0.00     0.038 A 
ENDROOT
BRANCH   7  13
HETATM   13  O2  UNK     1      20.265  -3.236  34.885  1.00  0.00    -0.351 OA
BRANCH  13  14
HETATM   14  C9  UNK     1      20.589  -2.589  36.116  1.00  0.00     0.175 C 
BRANCH  14  15
HETATM   15  C6  UNK     1      19.581  -3.013  37.174  1.00  0.00     0.026 C 
BRANCH  15  16
HETATM   16  C12 UNK     1      18.209  -2.395  36.924  1.00  0.00    -0.002 C 
HETATM   17  C16 UNK     1      18.030  -1.100  37.702  1.00  0.00     0.005 C 
ENDBRANCH  15  16
ENDBRANCH  14  15
ENDBRANCH  13  14
ENDBRANCH   7  13
BRANCH   5  18
HETATM   18  C5  UNK     1      18.815   2.151  29.289  1.00  0.00     0.041 C 
HETATM   19  C15 UNK     1      17.690   1.657  28.405  1.00  0.00     0.010 C 
ENDBRANCH   5  18
TORSDOF 5
ENDMDL
MODEL 3
REMARK VINA RESULT:      -7.1      7.767      9.031
REMARK  5 active torsions:
REMARK  status: ('A' for Active; 'I' for Inactive)
REMARK    1  A    between atoms: C7_10  and  O2_2 
REMARK    2  A    between atoms: C9_12  and  O2_2 
REMARK    3  A    between atoms: C3_6  and  C5_8 
REMARK    4  A    between atoms: C12_15  and  C6_9 
REMARK    5  A    between atoms: C6_9  and  C9_12 
ROOT
HETATM    1  O1  UNK     1      16.406   8.602  33.221  1.00  0.00    -0.274 OA
HETATM    2  O3  UNK     1      15.693  10.684  33.774  1.00  0.00    -0.259 OA
HETATM    3  C1  UNK     1      18.745   7.990  33.504  1.00  0.00     0.005 A 
HETATM    4  C2  UNK     1      19.016   9.344  34.031  1.00  0.00    -0.037 A 
HETATM    5  C3  UNK     1      18.013  10.245  34.093  1.00  0.00     0.024 A 
HETATM    6  C4  UNK     1      17.448   7.666  33.118  1.00  0.00     0.092 A 
HETATM    7  C7  UNK     1      18.091   5.439  32.476  1.00  0.00     0.071 A 
HETATM    8  C8  UNK     1      19.724   6.996  33.353  1.00  0.00     0.017 A 
HETATM    9  C10 UNK     1      17.106   6.410  32.610  1.00  0.00     0.075 A 
HETATM   10  C11 UNK     1      16.622   9.887  33.690  1.00  0.00     0.295 A 
HETATM   11  C13 UNK     1      20.425   9.627  34.490  1.00  0.00     0.050 C 
HETATM   12  C14 UNK     1      19.400   5.732  32.845  1.00  0.00     0.038 A 
ENDROOT
BRANCH   7  13
HETATM   13  O2  UNK     1      17.778   4.211  31.982  1.00  0.00    -0.351 OA
BRANCH  13  14
HETATM   14  C9  UNK     1      18.562   3.728  30.891  1.00  0.00     0.175 C 
BRANCH  14  15
HETATM   15  C6  UNK     1      18.625   2.210  30.964  1.00  0.00     0.026 C 
BRANCH  15  16
HETATM   16  C12 UNK     1      18.948   1.594  29.606  1.00  0.00    -0.002 C 
HETATM   17  C16 UNK     1      17.856   1.883  28.587  1.00  0.00     0.005 C 
ENDBRANCH  15  16
ENDBRANCH  14  15
ENDBRANCH  13  14
ENDBRANCH   7  13
BRANCH   5  18
HETATM   18  C5  UNK     1      18.165  11.675  34.548  1.00  0.00     0.041 C 
HETATM   19  C15 UNK     1      18.613  12.569  33.412  1.00  0.00     0.010 C 
ENDBRANCH   5  18
TORSDOF 5
ENDMDL
MODEL 4
REMARK VINA RESULT:      -7.0      5.852      8.522
REMARK  5 active torsions:
REMARK  status: ('A' for Active; 'I' for Inactive)
REMARK    1  A    between atoms: C7_10  and  O2_2 
REMARK    2  A    between atoms: C9_12  and  O2_2 
REMARK    3  A    between atoms: C3_6  and  C5_8 
REMARK    4  A    between atoms: C12_15  and  C6_9 
REMARK    5  A    between atoms: C6_9  and  C9_12 
ROOT
HETATM    1  O1  UNK     1      17.860   3.524  33.237  1.00  0.00    -0.274 OA
HETATM    2  O3  UNK     1      18.109   1.395  32.492  1.00  0.00    -0.259 OA
HETATM    3  C1  UNK     1      18.381   5.402  31.779  1.00  0.00     0.005 A 
HETATM    4  C2  UNK     1      18.737   4.448  30.708  1.00  0.00    -0.037 A 
HETATM    5  C3  UNK     1      18.675   3.123  30.953  1.00  0.00     0.024 A 
HETATM    6  C4  UNK     1      17.954   4.906  33.007  1.00  0.00     0.092 A 
HETATM    7  C7  UNK     1      17.675   7.116  33.914  1.00  0.00     0.071 A 
HETATM    8  C8  UNK     1      18.456   6.797  31.645  1.00  0.00     0.017 A 
HETATM    9  C10 UNK     1      17.598   5.738  34.073  1.00  0.00     0.075 A 
HETATM   10  C11 UNK     1      18.204   2.597  32.267  1.00  0.00     0.295 A 
HETATM   11  C13 UNK     1      19.138   5.036  29.378  1.00  0.00     0.050 C 
HETATM   12  C14 UNK     1      18.105   7.646  32.702  1.00  0.00     0.038 A 
ENDROOT
BRANCH   7  13
HETATM   13  O2  UNK     1      17.334   7.943  34.939  1.00  0.00    -0.351 OA
BRANCH  13  14
HETATM   14  C9  UNK     1      16.339   8.932  34.676  1.00  0.00     0.175 C 
BRANCH  14  15
HETATM   15  C6  UNK     1      15.013   8.237  34.410  1.00  0.00     0.026 C 
BRANCH  15  16
HETATM   16  C12 UNK     1      14.508   8.508  32.996  1.00  0.00    -0.002 C 
HETATM   17  C16 UNK     1      13.976   7.242  32.342  1.00  0.00     0.005 C 
ENDBRANCH  15  16
ENDBRANCH  14  15
ENDBRANCH  13  14
ENDBRANCH   7  13
BRANCH   5  18
HETATM   18  C5  UNK     1      19.069   2.046  29.974  1.00  0.00     0.041 C 
HETATM   19  C15 UNK     1      17.952   1.754  28.996  1.00  0.00     0.010 C 
ENDBRANCH   5  18
TORSDOF 5
ENDMDL
MODEL 5
REMARK VINA RESULT:      -7.0      6.521      7.813
REMARK  5 active torsions:
REMARK  status: ('A' for Active; 'I' for Inactive)
REMARK    1  A    between atoms: C7_10  and  O2_2 
REMARK    2  A    between atoms: C9_12  and  O2_2 
REMARK    3  A    between atoms: C3_6  and  C5_8 
REMARK    4  A    between atoms: C12_15  and  C6_9 
REMARK    5  A    between atoms: C6_9  and  C9_12 
ROOT
HETATM    1  O1  UNK     1      16.052   6.350  32.647  1.00  0.00    -0.274 OA
HETATM    2  O3  UNK     1      14.448   7.537  33.727  1.00  0.00    -0.259 OA
HETATM    3  C1  UNK     1      18.389   7.011  32.812  1.00  0.00     0.005 A 
HETATM    4  C2  UNK     1      17.991   8.128  33.695  1.00  0.00    -0.037 A 
HETATM    5  C3  UNK     1      16.684   8.320  33.974  1.00  0.00     0.024 A 
HETATM    6  C4  UNK     1      17.405   6.160  32.320  1.00  0.00     0.092 A 
HETATM    7  C7  UNK     1      19.012   4.840  31.112  1.00  0.00     0.071 A 
HETATM    8  C8  UNK     1      19.712   6.752  32.422  1.00  0.00     0.017 A 
HETATM    9  C10 UNK     1      17.694   5.080  31.480  1.00  0.00     0.075 A 
HETATM   10  C11 UNK     1      15.636   7.396  33.453  1.00  0.00     0.295 A 
HETATM   11  C13 UNK     1      19.100   8.987  34.249  1.00  0.00     0.050 C 
HETATM   12  C14 UNK     1      20.021   5.676  31.581  1.00  0.00     0.038 A 
ENDROOT
BRANCH   7  13
HETATM   13  O2  UNK     1      19.315   3.796  30.295  1.00  0.00    -0.351 OA
BRANCH  13  14
HETATM   14  C9  UNK     1      18.492   2.633  30.391  1.00  0.00     0.175 C 
BRANCH  14  15
HETATM   15  C6  UNK     1      17.996   2.265  29.001  1.00  0.00     0.026 C 
BRANCH  15  16
HETATM   16  C12 UNK     1      18.485   0.884  28.575  1.00  0.00    -0.002 C 
HETATM   17  C16 UNK     1      19.752   0.488  29.318  1.00  0.00     0.005 C 
ENDBRANCH  15  16
ENDBRANCH  14  15
ENDBRANCH  13  14
ENDBRANCH   7  13
BRANCH   5  18
HETATM   18  C5  UNK     1      16.138   9.453  34.804  1.00  0.00     0.041 C 
HETATM   19  C15 UNK     1      15.913  10.693  33.965  1.00  0.00     0.010 C 
ENDBRANCH   5  18
TORSDOF 5
ENDMDL
MODEL 6
REMARK VINA RESULT:      -7.0     24.474     26.520
REMARK  5 active torsions:
REMARK  status: ('A' for Active; 'I' for Inactive)
REMARK    1  A    between atoms: C7_10  and  O2_2 
REMARK    2  A    between atoms: C9_12  and  O2_2 
REMARK    3  A    between atoms: C3_6  and  C5_8 
REMARK    4  A    between atoms: C12_15  and  C6_9 
REMARK    5  A    between atoms: C6_9  and  C9_12 
ROOT
HETATM    1  O1  UNK     1      11.186   5.067  10.011  1.00  0.00    -0.274 OA
HETATM    2  O3  UNK     1       8.932   4.968  10.253  1.00  0.00    -0.259 OA
HETATM    3  C1  UNK     1      12.163   5.978   7.977  1.00  0.00     0.005 A 
HETATM    4  C2  UNK     1      10.802   6.231   7.458  1.00  0.00    -0.037 A 
HETATM    5  C3  UNK     1       9.733   5.871   8.199  1.00  0.00     0.024 A 
HETATM    6  C4  UNK     1      12.307   5.406   9.237  1.00  0.00     0.092 A 
HETATM    7  C7  UNK     1      14.707   5.437   9.085  1.00  0.00     0.071 A 
HETATM    8  C8  UNK     1      13.340   6.271   7.270  1.00  0.00     0.017 A 
HETATM    9  C10 UNK     1      13.557   5.133   9.802  1.00  0.00     0.075 A 
HETATM   10  C11 UNK     1       9.895   5.269   9.554  1.00  0.00     0.295 A 
HETATM   11  C13 UNK     1      10.700   6.907   6.114  1.00  0.00     0.050 C 
HETATM   12  C14 UNK     1      14.600   6.004   7.819  1.00  0.00     0.038 A 
ENDROOT
BRANCH   7  13
HETATM   13  O2  UNK     1      15.932   5.179   9.616  1.00  0.00    -0.351 OA
BRANCH  13  14
HETATM   14  C9  UNK     1      16.937   6.180   9.456  1.00  0.00     0.175 C 
BRANCH  14  15
HETATM   15  C6  UNK     1      16.747   7.244  10.527  1.00  0.00     0.026 C 
BRANCH  15  16
HETATM   16  C12 UNK     1      16.673   8.643   9.924  1.00  0.00    -0.002 C 
HETATM   17  C16 UNK     1      15.236   9.132   9.824  1.00  0.00     0.005 C 
ENDBRANCH  15  16
ENDBRANCH  14  15
ENDBRANCH  13  14
ENDBRANCH   7  13
BRANCH   5  18
HETATM   18  C5  UNK     1       8.296   6.012   7.764  1.00  0.00     0.041 C 
HETATM   19  C15 UNK     1       7.718   7.342   8.196  1.00  0.00     0.010 C 
ENDBRANCH   5  18
TORSDOF 5
ENDMDL
MODEL 7
REMARK VINA RESULT:      -6.9     24.258     26.867
REMARK  5 active torsions:
REMARK  status: ('A' for Active; 'I' for Inactive)
REMARK    1  A    between atoms: C7_10  and  O2_2 
REMARK    2  A    between atoms: C9_12  and  O2_2 
REMARK    3  A    between atoms: C3_6  and  C5_8 
REMARK    4  A    between atoms: C12_15  and  C6_9 
REMARK    5  A    between atoms: C6_9  and  C9_12 
ROOT
HETATM    1  O1  UNK     1      13.894   4.827   8.732  1.00  0.00    -0.274 OA
HETATM    2  O3  UNK     1      15.833   4.316   9.795  1.00  0.00    -0.259 OA
HETATM    3  C1  UNK     1      13.112   7.130   8.644  1.00  0.00     0.005 A 
HETATM    4  C2  UNK     1      14.310   7.546   9.404  1.00  0.00    -0.037 A 
HETATM    5  C3  UNK     1      15.195   6.611   9.810  1.00  0.00     0.024 A 
HETATM    6  C4  UNK     1      12.947   5.784   8.333  1.00  0.00     0.092 A 
HETATM    7  C7  UNK     1      10.867   6.200   7.200  1.00  0.00     0.071 A 
HETATM    8  C8  UNK     1      12.108   8.012   8.216  1.00  0.00     0.017 A 
HETATM    9  C10 UNK     1      11.845   5.306   7.619  1.00  0.00     0.075 A 
HETATM   10  C11 UNK     1      15.018   5.172   9.462  1.00  0.00     0.295 A 
HETATM   11  C13 UNK     1      14.473   9.022   9.665  1.00  0.00     0.050 C 
HETATM   12  C14 UNK     1      10.997   7.552   7.500  1.00  0.00     0.038 A 
ENDROOT
BRANCH   7  13
HETATM   13  O2  UNK     1       9.786   5.755   6.504  1.00  0.00    -0.351 OA
BRANCH  13  14
HETATM   14  C9  UNK     1       8.502   6.210   6.933  1.00  0.00     0.175 C 
BRANCH  14  15
HETATM   15  C6  UNK     1       8.066   5.388   8.137  1.00  0.00     0.026 C 
BRANCH  15  16
HETATM   16  C12 UNK     1       7.935   6.250   9.389  1.00  0.00    -0.002 C 
HETATM   17  C16 UNK     1       7.623   7.698   9.040  1.00  0.00     0.005 C 
ENDBRANCH  15  16
ENDBRANCH  14  15
ENDBRANCH  13  14
ENDBRANCH   7  13
BRANCH   5  18
HETATM   18  C5  UNK     1      16.420   6.890  10.644  1.00  0.00     0.041 C 
HETATM   19  C15 UNK     1      17.608   7.247   9.776  1.00  0.00     0.010 C 
ENDBRANCH   5  18
TORSDOF 5
ENDMDL
MODEL 8
REMARK VINA RESULT:      -6.8     24.263     26.861
REMARK  5 active torsions:
REMARK  status: ('A' for Active; 'I' for Inactive)
REMARK    1  A    between atoms: C7_10  and  O2_2 
REMARK    2  A    between atoms: C9_12  and  O2_2 
REMARK    3  A    between atoms: C3_6  and  C5_8 
REMARK    4  A    between atoms: C12_15  and  C6_9 
REMARK    5  A    between atoms: C6_9  and  C9_12 
ROOT
HETATM    1  O1  UNK     1      13.362   8.877   9.077  1.00  0.00    -0.274 OA
HETATM    2  O3  UNK     1      14.818   9.862  10.513  1.00  0.00    -0.259 OA
HETATM    3  C1  UNK     1      13.473   6.480   8.670  1.00  0.00     0.005 A 
HETATM    4  C2  UNK     1      14.601   6.389   9.621  1.00  0.00    -0.037 A 
HETATM    5  C3  UNK     1      15.065   7.512  10.208  1.00  0.00     0.024 A 
HETATM    6  C4  UNK     1      12.892   7.722   8.432  1.00  0.00     0.092 A 
HETATM    7  C7  UNK     1      11.314   6.794   6.872  1.00  0.00     0.071 A 
HETATM    8  C8  UNK     1      12.946   5.383   7.970  1.00  0.00     0.017 A 
HETATM    9  C10 UNK     1      11.823   7.896   7.548  1.00  0.00     0.075 A 
HETATM   10  C11 UNK     1      14.429   8.838   9.958  1.00  0.00     0.295 A 
HETATM   11  C13 UNK     1      15.158   5.013   9.889  1.00  0.00     0.050 C 
HETATM   12  C14 UNK     1      11.876   5.539   7.081  1.00  0.00     0.038 A 
ENDROOT
BRANCH   7  13
HETATM   13  O2  UNK     1      10.275   6.942   6.007  1.00  0.00    -0.351 OA
BRANCH  13  14
HETATM   14  C9  UNK     1       9.141   6.096   6.200  1.00  0.00     0.175 C 
BRANCH  14  15
HETATM   15  C6  UNK     1       8.291   6.662   7.328  1.00  0.00     0.026 C 
BRANCH  15  16
HETATM   16  C12 UNK     1       7.932   5.591   8.354  1.00  0.00    -0.002 C 
HETATM   17  C16 UNK     1       9.026   5.430   9.398  1.00  0.00     0.005 C 
ENDBRANCH  15  16
ENDBRANCH  14  15
ENDBRANCH  13  14
ENDBRANCH   7  13
BRANCH   5  18
HETATM   18  C5  UNK     1      16.245   7.570  11.145  1.00  0.00     0.041 C 
HETATM   19  C15 UNK     1      17.553   7.556  10.385  1.00  0.00     0.010 C 
ENDBRANCH   5  18
TORSDOF 5
ENDMDL
MODEL 9
REMARK VINA RESULT:      -6.8      4.162      6.343
REMARK  5 active torsions:
REMARK  status: ('A' for Active; 'I' for Inactive)
REMARK    1  A    between atoms: C7_10  and  O2_2 
REMARK    2  A    between atoms: C9_12  and  O2_2 
REMARK    3  A    between atoms: C3_6  and  C5_8 
REMARK    4  A    between atoms: C12_15  and  C6_9 
REMARK    5  A    between atoms: C6_9  and  C9_12 
ROOT
HETATM    1  O1  UNK     1      18.361   1.008  33.232  1.00  0.00    -0.274 OA
HETATM    2  O3  UNK     1      18.653  -1.180  33.756  1.00  0.00    -0.259 OA
HETATM    3  C1  UNK     1      18.955   1.830  31.020  1.00  0.00     0.005 A 
HETATM    4  C2  UNK     1      19.370   0.462  30.643  1.00  0.00    -0.037 A 
HETATM    5  C3  UNK     1      19.298  -0.528  31.558  1.00  0.00     0.024 A 
HETATM    6  C4  UNK     1      18.464   2.055  32.302  1.00  0.00     0.092 A 
HETATM    7  C7  UNK     1      18.132   4.398  31.869  1.00  0.00     0.071 A 
HETATM    8  C8  UNK     1      19.034   2.938  30.162  1.00  0.00     0.017 A 
HETATM    9  C10 UNK     1      18.050   3.317  32.739  1.00  0.00     0.075 A 
HETATM   10  C11 UNK     1      18.758  -0.282  32.926  1.00  0.00     0.295 A 
HETATM   11  C13 UNK     1      19.841   0.259  29.225  1.00  0.00     0.050 C 
HETATM   12  C14 UNK     1      18.625   4.209  30.582  1.00  0.00     0.038 A 
ENDROOT
BRANCH   7  13
HETATM   13  O2  UNK     1      17.735   5.634  32.276  1.00  0.00    -0.351 OA
BRANCH  13  14
HETATM   14  C9  UNK     1      18.599   6.729  31.970  1.00  0.00     0.175 C 
BRANCH  14  15
HETATM   15  C6  UNK     1      19.812   6.669  32.886  1.00  0.00     0.026 C 
BRANCH  15  16
HETATM   16  C12 UNK     1      19.503   7.242  34.266  1.00  0.00    -0.002 C 
HETATM   17  C16 UNK     1      19.127   8.714  34.189  1.00  0.00     0.005 C 
ENDBRANCH  15  16
ENDBRANCH  14  15
ENDBRANCH  13  14
ENDBRANCH   7  13
BRANCH   5  18
HETATM   18  C5  UNK     1      19.747  -1.949  31.327  1.00  0.00     0.041 C 
HETATM   19  C15 UNK     1      20.960  -2.287  32.166  1.00  0.00     0.010 C 
ENDBRANCH   5  18
TORSDOF 5
ENDMDL
MODEL 10
REMARK VINA RESULT:      -6.7      3.811      5.071
REMARK  5 active torsions:
REMARK  status: ('A' for Active; 'I' for Inactive)
REMARK    1  A    between atoms: C7_10  and  O2_2 
REMARK    2  A    between atoms: C9_12  and  O2_2 
REMARK    3  A    between atoms: C3_6  and  C5_8 
REMARK    4  A    between atoms: C12_15  and  C6_9 
REMARK    5  A    between atoms: C6_9  and  C9_12 
ROOT
HETATM    1  O1  UNK     1      18.501   0.678  32.221  1.00  0.00    -0.274 OA
HETATM    2  O3  UNK     1      18.674  -1.519  32.761  1.00  0.00    -0.259 OA
HETATM    3  C1  UNK     1      18.342   2.363  33.970  1.00  0.00     0.005 A 
HETATM    4  C2  UNK     1      18.430   1.292  34.984  1.00  0.00    -0.037 A 
HETATM    5  C3  UNK     1      18.511   0.005  34.585  1.00  0.00     0.024 A 
HETATM    6  C4  UNK     1      18.382   2.018  32.622  1.00  0.00     0.092 A 
HETATM    7  C7  UNK     1      18.178   4.312  31.928  1.00  0.00     0.071 A 
HETATM    8  C8  UNK     1      18.208   3.726  34.277  1.00  0.00     0.017 A 
HETATM    9  C10 UNK     1      18.304   2.968  31.600  1.00  0.00     0.075 A 
HETATM   10  C11 UNK     1      18.566  -0.356  33.138  1.00  0.00     0.295 A 
HETATM   11  C13 UNK     1      18.442   1.721  36.430  1.00  0.00     0.050 C 
HETATM   12  C14 UNK     1      18.128   4.691  33.266  1.00  0.00     0.038 A 
ENDROOT
BRANCH   7  13
HETATM   13  O2  UNK     1      18.100   5.252  30.948  1.00  0.00    -0.351 OA
BRANCH  13  14
HETATM   14  C9  UNK     1      19.038   6.327  31.000  1.00  0.00     0.175 C 
BRANCH  14  15
HETATM   15  C6  UNK     1      20.337   5.880  30.347  1.00  0.00     0.026 C 
BRANCH  15  16
HETATM   16  C12 UNK     1      21.495   5.878  31.340  1.00  0.00    -0.002 C 
HETATM   17  C16 UNK     1      21.095   6.508  32.665  1.00  0.00     0.005 C 
ENDBRANCH  15  16
ENDBRANCH  14  15
ENDBRANCH  13  14
ENDBRANCH   7  13
BRANCH   5  18
HETATM   18  C5  UNK     1      18.541  -1.184  35.511  1.00  0.00     0.041 C 
HETATM   19  C15 UNK     1      17.165  -1.490  36.061  1.00  0.00     0.010 C 
ENDBRANCH   5  18
TORSDOF 5
ENDMDL
