MODEL 1
REMARK VINA RESULT:      -9.8      0.000      0.000
REMARK  3 active torsions:
REMARK  status: ('A' for Active; 'I' for Inactive)
REMARK       I    between atoms: C16_22  and  N1_5 
REMARK    1  A    between atoms: N1_5  and  N2_6 
REMARK    2  A    between atoms: C16_22  and  C4_10 
REMARK    3  A    between atoms: C20_26  and  C9_15 
ROOT
HETATM    1  N2  UNK     1      18.656   4.727  30.860  1.00  0.00    -0.183 NA
HETATM    2  C20 UNK     1      18.483   5.057  32.100  1.00  0.00     0.156 C 
ENDROOT
BRANCH   1   3
HETATM    3  N1  UNK     1      19.251   3.522  30.689  1.00  0.00    -0.243 N 
HETATM    4  C16 UNK     1      18.451   2.414  30.486  1.00  0.00     0.273 C 
HETATM    5  O3  UNK     1      17.223   2.433  30.448  1.00  0.00    -0.266 OA
HETATM    6  H14 UNK     1      20.263   3.481  30.754  1.00  0.00     0.192 HD
BRANCH   4   7
HETATM    7  C4  UNK     1      19.165   1.120  30.327  1.00  0.00     0.051 A 
HETATM    8  C13 UNK     1      19.748   0.810  29.148  1.00  0.00     0.068 A 
HETATM    9  S1  UNK     1      20.492  -0.720  29.236  1.00  0.00    -0.100 SA
HETATM   10  C5  UNK     1      20.015  -0.941  30.878  1.00  0.00     0.016 A 
HETATM   11  C14 UNK     1      20.285  -2.053  31.699  1.00  0.00     0.019 A 
HETATM   12  C2  UNK     1      19.288   0.156  31.350  1.00  0.00    -0.003 A 
HETATM   13  C19 UNK     1      19.813  -2.052  33.014  1.00  0.00     0.001 A 
HETATM   14  C18 UNK     1      19.089  -0.975  33.503  1.00  0.00     0.001 A 
HETATM   15  C12 UNK     1      18.823   0.127  32.686  1.00  0.00     0.014 A 
ENDBRANCH   4   7
ENDBRANCH   1   3
BRANCH   2  16
HETATM   16  C9  UNK     1      17.858   6.318  32.496  1.00  0.00     0.056 A 
HETATM   17  C15 UNK     1      16.528   6.417  32.396  1.00  0.00     0.159 A 
HETATM   18  O1  UNK     1      15.768   7.517  32.720  1.00  0.00    -0.321 OA
HETATM   19  C3  UNK     1      16.427   8.626  33.192  1.00  0.00     0.089 A 
HETATM   20  C1  UNK     1      17.813   8.672  33.350  1.00  0.00     0.049 A 
HETATM   21  C10 UNK     1      15.648   9.737  33.518  1.00  0.00     0.039 A 
HETATM   22  C7  UNK     1      18.428   9.829  33.835  1.00  0.00     0.025 A 
HETATM   23  C8  UNK     1      18.615   7.485  32.998  1.00  0.00     0.198 A 
HETATM   24  C6  UNK     1      17.647  10.939  34.161  1.00  0.00    -0.061 A 
HETATM   25  C11 UNK     1      16.261  10.893  34.003  1.00  0.00     0.009 A 
HETATM   26  C17 UNK     1      18.296  12.179  34.679  1.00  0.00     0.048 C 
HETATM   27  O2  UNK     1      19.832   7.470  33.117  1.00  0.00    -0.286 OA
ENDBRANCH   2  16
TORSDOF 3
ENDMDL
MODEL 2
REMARK VINA RESULT:      -9.7      2.823      9.717
REMARK  3 active torsions:
REMARK  status: ('A' for Active; 'I' for Inactive)
REMARK       I    between atoms: C16_22  and  N1_5 
REMARK    1  A    between atoms: N1_5  and  N2_6 
REMARK    2  A    between atoms: C16_22  and  C4_10 
REMARK    3  A    between atoms: C20_26  and  C9_15 
ROOT
HETATM    1  N2  UNK     1      17.924   4.337  32.198  1.00  0.00    -0.183 NA
HETATM    2  C20 UNK     1      17.616   3.754  31.085  1.00  0.00     0.156 C 
ENDROOT
BRANCH   1   3
HETATM    3  N1  UNK     1      17.191   5.445  32.462  1.00  0.00    -0.243 N 
HETATM    4  C16 UNK     1      17.620   6.296  33.463  1.00  0.00     0.273 C 
HETATM    5  O3  UNK     1      18.629   6.127  34.144  1.00  0.00    -0.266 OA
HETATM    6  H14 UNK     1      16.335   5.582  31.934  1.00  0.00     0.192 HD
BRANCH   4   7
HETATM    7  C4  UNK     1      16.759   7.481  33.717  1.00  0.00     0.051 A 
HETATM    8  C13 UNK     1      15.420   7.333  33.823  1.00  0.00     0.068 A 
HETATM    9  S1  UNK     1      14.676   8.839  34.110  1.00  0.00    -0.100 SA
HETATM   10  C5  UNK     1      16.185   9.674  34.088  1.00  0.00     0.016 A 
HETATM   11  C14 UNK     1      16.395  11.055  34.267  1.00  0.00     0.019 A 
HETATM   12  C2  UNK     1      17.249   8.796  33.859  1.00  0.00    -0.003 A 
HETATM   13  C19 UNK     1      17.700  11.551  34.215  1.00  0.00     0.001 A 
HETATM   14  C18 UNK     1      18.771  10.700  33.989  1.00  0.00     0.001 A 
HETATM   15  C12 UNK     1      18.559   9.330  33.812  1.00  0.00     0.014 A 
ENDBRANCH   4   7
ENDBRANCH   1   3
BRANCH   2  16
HETATM   16  C9  UNK     1      18.290   2.543  30.619  1.00  0.00     0.056 A 
HETATM   17  C15 UNK     1      18.562   2.440  29.314  1.00  0.00     0.159 A 
HETATM   18  O1  UNK     1      19.188   1.383  28.695  1.00  0.00    -0.321 OA
HETATM   19  C3  UNK     1      19.575   0.325  29.483  1.00  0.00     0.089 A 
HETATM   20  C1  UNK     1      19.358   0.290  30.861  1.00  0.00     0.049 A 
HETATM   21  C10 UNK     1      20.208  -0.743  28.847  1.00  0.00     0.039 A 
HETATM   22  C7  UNK     1      19.773  -0.812  31.611  1.00  0.00     0.025 A 
HETATM   23  C8  UNK     1      18.686   1.431  31.511  1.00  0.00     0.198 A 
HETATM   24  C6  UNK     1      20.407  -1.879  30.973  1.00  0.00    -0.061 A 
HETATM   25  C11 UNK     1      20.624  -1.845  29.595  1.00  0.00     0.009 A 
HETATM   26  C17 UNK     1      20.854  -3.062  31.766  1.00  0.00     0.048 C 
HETATM   27  O2  UNK     1      18.470   1.454  32.714  1.00  0.00    -0.286 OA
ENDBRANCH   2  16
TORSDOF 3
ENDMDL
MODEL 3
REMARK VINA RESULT:      -9.6      6.221     12.200
REMARK  3 active torsions:
REMARK  status: ('A' for Active; 'I' for Inactive)
REMARK       I    between atoms: C16_22  and  N1_5 
REMARK    1  A    between atoms: N1_5  and  N2_6 
REMARK    2  A    between atoms: C16_22  and  C4_10 
REMARK    3  A    between atoms: C20_26  and  C9_15 
ROOT
HETATM    1  N2  UNK     1      19.695  -2.466  35.400  1.00  0.00    -0.183 NA
HETATM    2  C20 UNK     1      20.140  -3.662  35.182  1.00  0.00     0.156 C 
ENDROOT
BRANCH   1   3
HETATM    3  N1  UNK     1      19.791  -1.639  34.332  1.00  0.00    -0.243 N 
HETATM    4  C16 UNK     1      18.670  -0.929  33.944  1.00  0.00     0.273 C 
HETATM    5  O3  UNK     1      17.576  -0.988  34.499  1.00  0.00    -0.266 OA
HETATM    6  H14 UNK     1      20.678  -1.605  33.838  1.00  0.00     0.192 HD
BRANCH   4   7
HETATM    7  C4  UNK     1      18.838  -0.058  32.752  1.00  0.00     0.051 A 
HETATM    8  C13 UNK     1      18.443   1.235  32.798  1.00  0.00     0.068 A 
HETATM    9  S1  UNK     1      18.745   2.003  31.307  1.00  0.00    -0.100 SA
HETATM   10  C5  UNK     1      19.410   0.569  30.617  1.00  0.00     0.016 A 
HETATM   11  C14 UNK     1      19.919   0.410  29.313  1.00  0.00     0.019 A 
HETATM   12  C2  UNK     1      19.397  -0.490  31.531  1.00  0.00    -0.003 A 
HETATM   13  C19 UNK     1      20.420  -0.836  28.932  1.00  0.00     0.001 A 
HETATM   14  C18 UNK     1      20.416  -1.901  29.820  1.00  0.00     0.001 A 
HETATM   15  C12 UNK     1      19.911  -1.740  31.113  1.00  0.00     0.014 A 
ENDBRANCH   4   7
ENDBRANCH   1   3
BRANCH   2  16
HETATM   16  C9  UNK     1      20.124  -4.704  36.208  1.00  0.00     0.056 A 
HETATM   17  C15 UNK     1      20.361  -4.341  37.473  1.00  0.00     0.159 A 
HETATM   18  O1  UNK     1      20.386  -5.176  38.566  1.00  0.00    -0.321 OA
HETATM   19  C3  UNK     1      20.149  -6.512  38.350  1.00  0.00     0.089 A 
HETATM   20  C1  UNK     1      19.888  -7.039  37.085  1.00  0.00     0.049 A 
HETATM   21  C10 UNK     1      20.178  -7.351  39.465  1.00  0.00     0.039 A 
HETATM   22  C7  UNK     1      19.654  -8.406  36.925  1.00  0.00     0.025 A 
HETATM   23  C8  UNK     1      19.864  -6.132  35.921  1.00  0.00     0.198 A 
HETATM   24  C6  UNK     1      19.683  -9.243  38.042  1.00  0.00    -0.061 A 
HETATM   25  C11 UNK     1      19.943  -8.717  39.308  1.00  0.00     0.009 A 
HETATM   26  C17 UNK     1      19.434 -10.706  37.882  1.00  0.00     0.048 C 
HETATM   27  O2  UNK     1      19.640  -6.538  34.790  1.00  0.00    -0.286 OA
ENDBRANCH   2  16
TORSDOF 3
ENDMDL
MODEL 4
REMARK VINA RESULT:      -9.2     13.681     17.047
REMARK  3 active torsions:
REMARK  status: ('A' for Active; 'I' for Inactive)
REMARK       I    between atoms: C16_22  and  N1_5 
REMARK    1  A    between atoms: N1_5  and  N2_6 
REMARK    2  A    between atoms: C16_22  and  C4_10 
REMARK    3  A    between atoms: C20_26  and  C9_15 
ROOT
HETATM    1  N2  UNK     1      25.003  -8.849  37.279  1.00  0.00    -0.183 NA
HETATM    2  C20 UNK     1      25.689  -8.414  38.286  1.00  0.00     0.156 C 
ENDROOT
BRANCH   1   3
HETATM    3  N1  UNK     1      23.662  -8.809  37.466  1.00  0.00    -0.243 N 
HETATM    4  C16 UNK     1      22.864  -9.638  36.701  1.00  0.00     0.273 C 
HETATM    5  O3  UNK     1      23.278 -10.422  35.851  1.00  0.00    -0.266 OA
HETATM    6  H14 UNK     1      23.299  -8.141  38.139  1.00  0.00     0.192 HD
BRANCH   4   7
HETATM    7  C4  UNK     1      21.401  -9.529  36.941  1.00  0.00     0.051 A 
HETATM    8  C13 UNK     1      20.807 -10.313  37.868  1.00  0.00     0.068 A 
HETATM    9  S1  UNK     1      19.136  -9.988  37.940  1.00  0.00    -0.100 SA
HETATM   10  C5  UNK     1      19.240  -8.783  36.711  1.00  0.00     0.016 A 
HETATM   11  C14 UNK     1      18.187  -8.009  36.188  1.00  0.00     0.019 A 
HETATM   12  C2  UNK     1      20.553  -8.637  36.251  1.00  0.00    -0.003 A 
HETATM   13  C19 UNK     1      18.467  -7.076  35.188  1.00  0.00     0.001 A 
HETATM   14  C18 UNK     1      19.761  -6.913  34.715  1.00  0.00     0.001 A 
HETATM   15  C12 UNK     1      20.805  -7.683  35.236  1.00  0.00     0.014 A 
ENDBRANCH   4   7
ENDBRANCH   1   3
BRANCH   2  16
HETATM   16  C9  UNK     1      27.151  -8.375  38.282  1.00  0.00     0.056 A 
HETATM   17  C15 UNK     1      27.808  -9.538  38.221  1.00  0.00     0.159 A 
HETATM   18  O1  UNK     1      29.174  -9.699  38.206  1.00  0.00    -0.321 OA
HETATM   19  C3  UNK     1      29.948  -8.566  38.261  1.00  0.00     0.089 A 
HETATM   20  C1  UNK     1      29.404  -7.282  38.329  1.00  0.00     0.049 A 
HETATM   21  C10 UNK     1      31.332  -8.738  38.246  1.00  0.00     0.039 A 
HETATM   22  C7  UNK     1      30.240  -6.164  38.383  1.00  0.00     0.025 A 
HETATM   23  C8  UNK     1      27.937  -7.124  38.344  1.00  0.00     0.198 A 
HETATM   24  C6  UNK     1      31.625  -6.340  38.367  1.00  0.00    -0.061 A 
HETATM   25  C11 UNK     1      32.169  -7.624  38.299  1.00  0.00     0.009 A 
HETATM   26  C17 UNK     1      32.526  -5.152  38.425  1.00  0.00     0.048 C 
HETATM   27  O2  UNK     1      27.406  -6.024  38.402  1.00  0.00    -0.286 OA
ENDBRANCH   2  16
TORSDOF 3
ENDMDL
MODEL 5
REMARK VINA RESULT:      -9.2      6.161      8.938
REMARK  3 active torsions:
REMARK  status: ('A' for Active; 'I' for Inactive)
REMARK       I    between atoms: C16_22  and  N1_5 
REMARK    1  A    between atoms: N1_5  and  N2_6 
REMARK    2  A    between atoms: C16_22  and  C4_10 
REMARK    3  A    between atoms: C20_26  and  C9_15 
ROOT
HETATM    1  N2  UNK     1      19.773  -2.323  36.618  1.00  0.00    -0.183 NA
HETATM    2  C20 UNK     1      18.632  -1.777  36.346  1.00  0.00     0.156 C 
ENDROOT
BRANCH   1   3
HETATM    3  N1  UNK     1      19.676  -3.526  37.232  1.00  0.00    -0.243 N 
HETATM    4  C16 UNK     1      19.968  -4.663  36.504  1.00  0.00     0.273 C 
HETATM    5  O3  UNK     1      20.315  -4.672  35.325  1.00  0.00    -0.266 OA
HETATM    6  H14 UNK     1      19.356  -3.541  38.195  1.00  0.00     0.192 HD
BRANCH   4   7
HETATM    7  C4  UNK     1      19.821  -5.952  37.230  1.00  0.00     0.051 A 
HETATM    8  C13 UNK     1      18.697  -6.688  37.080  1.00  0.00     0.068 A 
HETATM    9  S1  UNK     1      18.785  -8.107  38.019  1.00  0.00    -0.100 SA
HETATM   10  C5  UNK     1      20.352  -7.704  38.617  1.00  0.00     0.016 A 
HETATM   11  C14 UNK     1      21.138  -8.453  39.514  1.00  0.00     0.019 A 
HETATM   12  C2  UNK     1      20.798  -6.485  38.096  1.00  0.00    -0.003 A 
HETATM   13  C19 UNK     1      22.391  -7.962  39.886  1.00  0.00     0.001 A 
HETATM   14  C18 UNK     1      22.855  -6.755  39.383  1.00  0.00     0.001 A 
HETATM   15  C12 UNK     1      22.072  -6.014  38.493  1.00  0.00     0.014 A 
ENDBRANCH   4   7
ENDBRANCH   1   3
BRANCH   2  16
HETATM   16  C9  UNK     1      18.521  -0.477  35.683  1.00  0.00     0.056 A 
HETATM   17  C15 UNK     1      18.377   0.607  36.453  1.00  0.00     0.159 A 
HETATM   18  O1  UNK     1      18.258   1.905  36.012  1.00  0.00    -0.321 OA
HETATM   19  C3  UNK     1      18.288   2.120  34.656  1.00  0.00     0.089 A 
HETATM   20  C1  UNK     1      18.433   1.087  33.729  1.00  0.00     0.049 A 
HETATM   21  C10 UNK     1      18.167   3.440  34.218  1.00  0.00     0.039 A 
HETATM   22  C7  UNK     1      18.457   1.366  32.361  1.00  0.00     0.025 A 
HETATM   23  C8  UNK     1      18.559  -0.300  34.215  1.00  0.00     0.198 A 
HETATM   24  C6  UNK     1      18.336   2.686  31.926  1.00  0.00    -0.061 A 
HETATM   25  C11 UNK     1      18.191   3.721  32.852  1.00  0.00     0.009 A 
HETATM   26  C17 UNK     1      18.360   2.994  30.466  1.00  0.00     0.048 C 
HETATM   27  O2  UNK     1      18.688  -1.244  33.449  1.00  0.00    -0.286 OA
ENDBRANCH   2  16
TORSDOF 3
ENDMDL
MODEL 6
REMARK VINA RESULT:      -9.2      5.708      8.254
REMARK  3 active torsions:
REMARK  status: ('A' for Active; 'I' for Inactive)
REMARK       I    between atoms: C16_22  and  N1_5 
REMARK    1  A    between atoms: N1_5  and  N2_6 
REMARK    2  A    between atoms: C16_22  and  C4_10 
REMARK    3  A    between atoms: C20_26  and  C9_15 
ROOT
HETATM    1  N2  UNK     1      19.707  -2.135  35.601  1.00  0.00    -0.183 NA
HETATM    2  C20 UNK     1      18.583  -1.566  35.302  1.00  0.00     0.156 C 
ENDROOT
BRANCH   1   3
HETATM    3  N1  UNK     1      19.580  -3.216  36.407  1.00  0.00    -0.243 N 
HETATM    4  C16 UNK     1      19.909  -4.459  35.900  1.00  0.00     0.273 C 
HETATM    5  O3  UNK     1      20.314  -4.666  34.758  1.00  0.00    -0.266 OA
HETATM    6  H14 UNK     1      19.212  -3.068  37.342  1.00  0.00     0.192 HD
BRANCH   4   7
HETATM    7  C4  UNK     1      19.727  -5.605  36.828  1.00  0.00     0.051 A 
HETATM    8  C13 UNK     1      18.579  -6.318  36.805  1.00  0.00     0.068 A 
HETATM    9  S1  UNK     1      18.629  -7.566  37.963  1.00  0.00    -0.100 SA
HETATM   10  C5  UNK     1      20.213  -7.123  38.482  1.00  0.00     0.016 A 
HETATM   11  C14 UNK     1      20.982  -7.741  39.487  1.00  0.00     0.019 A 
HETATM   12  C2  UNK     1      20.694  -6.021  37.767  1.00  0.00    -0.003 A 
HETATM   13  C19 UNK     1      22.254  -7.236  39.769  1.00  0.00     0.001 A 
HETATM   14  C18 UNK     1      22.751  -6.144  39.074  1.00  0.00     0.001 A 
HETATM   15  C12 UNK     1      21.985  -5.533  38.077  1.00  0.00     0.014 A 
ENDBRANCH   4   7
ENDBRANCH   1   3
BRANCH   2  16
HETATM   16  C9  UNK     1      18.505  -0.384  34.444  1.00  0.00     0.056 A 
HETATM   17  C15 UNK     1      18.533  -0.569  33.120  1.00  0.00     0.159 A 
HETATM   18  O1  UNK     1      18.470   0.415  32.161  1.00  0.00    -0.321 OA
HETATM   19  C3  UNK     1      18.369   1.716  32.592  1.00  0.00     0.089 A 
HETATM   20  C1  UNK     1      18.329   2.064  33.943  1.00  0.00     0.049 A 
HETATM   21  C10 UNK     1      18.307   2.707  31.613  1.00  0.00     0.039 A 
HETATM   22  C7  UNK     1      18.226   3.404  34.323  1.00  0.00     0.025 A 
HETATM   23  C8  UNK     1      18.398   0.997  34.961  1.00  0.00     0.198 A 
HETATM   24  C6  UNK     1      18.163   4.394  33.341  1.00  0.00    -0.061 A 
HETATM   25  C11 UNK     1      18.203   4.047  31.990  1.00  0.00     0.009 A 
HETATM   26  C17 UNK     1      18.053   5.828  33.737  1.00  0.00     0.048 C 
HETATM   27  O2  UNK     1      18.366   1.244  36.158  1.00  0.00    -0.286 OA
ENDBRANCH   2  16
TORSDOF 3
ENDMDL
MODEL 7
REMARK VINA RESULT:      -9.2      2.932      9.511
REMARK  3 active torsions:
REMARK  status: ('A' for Active; 'I' for Inactive)
REMARK       I    between atoms: C16_22  and  N1_5 
REMARK    1  A    between atoms: N1_5  and  N2_6 
REMARK    2  A    between atoms: C16_22  and  C4_10 
REMARK    3  A    between atoms: C20_26  and  C9_15 
ROOT
HETATM    1  N2  UNK     1      18.647   4.456  31.949  1.00  0.00    -0.183 NA
HETATM    2  C20 UNK     1      17.960   3.559  31.318  1.00  0.00     0.156 C 
ENDROOT
BRANCH   1   3
HETATM    3  N1  UNK     1      17.915   5.514  32.374  1.00  0.00    -0.243 N 
HETATM    4  C16 UNK     1      18.550   6.730  32.543  1.00  0.00     0.273 C 
HETATM    5  O3  UNK     1      19.744   6.933  32.336  1.00  0.00    -0.266 OA
HETATM    6  H14 UNK     1      16.935   5.356  32.585  1.00  0.00     0.192 HD
BRANCH   4   7
HETATM    7  C4  UNK     1      17.695   7.843  33.032  1.00  0.00     0.051 A 
HETATM    8  C13 UNK     1      18.254   8.895  33.670  1.00  0.00     0.068 A 
HETATM    9  S1  UNK     1      17.057  10.021  34.123  1.00  0.00    -0.100 SA
HETATM   10  C5  UNK     1      15.793   9.064  33.444  1.00  0.00     0.016 A 
HETATM   11  C14 UNK     1      14.417   9.362  33.427  1.00  0.00     0.019 A 
HETATM   12  C2  UNK     1      16.294   7.888  32.876  1.00  0.00    -0.003 A 
HETATM   13  C19 UNK     1      13.538   8.458  32.826  1.00  0.00     0.001 A 
HETATM   14  C18 UNK     1      14.011   7.285  32.257  1.00  0.00     0.001 A 
HETATM   15  C12 UNK     1      15.377   6.992  32.275  1.00  0.00     0.014 A 
ENDBRANCH   4   7
ENDBRANCH   1   3
BRANCH   2  16
HETATM   16  C9  UNK     1      18.565   2.341  30.780  1.00  0.00     0.056 A 
HETATM   17  C15 UNK     1      18.785   2.282  29.462  1.00  0.00     0.159 A 
HETATM   18  O1  UNK     1      19.343   1.225  28.780  1.00  0.00    -0.321 OA
HETATM   19  C3  UNK     1      19.711   0.121  29.509  1.00  0.00     0.089 A 
HETATM   20  C1  UNK     1      19.542   0.038  30.892  1.00  0.00     0.049 A 
HETATM   21  C10 UNK     1      20.275  -0.946  28.809  1.00  0.00     0.039 A 
HETATM   22  C7  UNK     1      19.935  -1.111  31.582  1.00  0.00     0.025 A 
HETATM   23  C8  UNK     1      18.942   1.178  31.611  1.00  0.00     0.198 A 
HETATM   24  C6  UNK     1      20.499  -2.176  30.879  1.00  0.00    -0.061 A 
HETATM   25  C11 UNK     1      20.669  -2.094  29.496  1.00  0.00     0.009 A 
HETATM   26  C17 UNK     1      20.922  -3.408  31.607  1.00  0.00     0.048 C 
HETATM   27  O2  UNK     1      18.771   1.160  32.822  1.00  0.00    -0.286 OA
ENDBRANCH   2  16
TORSDOF 3
ENDMDL
MODEL 8
REMARK VINA RESULT:      -8.9      5.919     12.152
REMARK  3 active torsions:
REMARK  status: ('A' for Active; 'I' for Inactive)
REMARK       I    between atoms: C16_22  and  N1_5 
REMARK    1  A    between atoms: N1_5  and  N2_6 
REMARK    2  A    between atoms: C16_22  and  C4_10 
REMARK    3  A    between atoms: C20_26  and  C9_15 
ROOT
HETATM    1  N2  UNK     1      20.631  -2.930  34.483  1.00  0.00    -0.183 NA
HETATM    2  C20 UNK     1      20.307  -4.183  34.468  1.00  0.00     0.156 C 
ENDROOT
BRANCH   1   3
HETATM    3  N1  UNK     1      20.657  -2.352  33.259  1.00  0.00    -0.243 N 
HETATM    4  C16 UNK     1      19.612  -1.522  32.900  1.00  0.00     0.273 C 
HETATM    5  O3  UNK     1      18.646  -1.261  33.613  1.00  0.00    -0.266 OA
HETATM    6  H14 UNK     1      21.428  -2.585  32.642  1.00  0.00     0.192 HD
BRANCH   4   7
HETATM    7  C4  UNK     1      19.690  -0.938  31.535  1.00  0.00     0.051 A 
HETATM    8  C13 UNK     1      20.222  -1.657  30.521  1.00  0.00     0.068 A 
HETATM    9  S1  UNK     1      20.192  -0.758  29.074  1.00  0.00    -0.100 SA
HETATM   10  C5  UNK     1      19.453   0.598  29.843  1.00  0.00     0.016 A 
HETATM   11  C14 UNK     1      19.090   1.820  29.245  1.00  0.00     0.019 A 
HETATM   12  C2  UNK     1      19.235   0.355  31.203  1.00  0.00    -0.003 A 
HETATM   13  C19 UNK     1      18.497   2.808  30.036  1.00  0.00     0.001 A 
HETATM   14  C18 UNK     1      18.272   2.591  31.387  1.00  0.00     0.001 A 
HETATM   15  C12 UNK     1      18.634   1.377  31.977  1.00  0.00     0.014 A 
ENDBRANCH   4   7
ENDBRANCH   1   3
BRANCH   2  16
HETATM   16  C9  UNK     1      20.223  -4.987  35.687  1.00  0.00     0.056 A 
HETATM   17  C15 UNK     1      20.411  -4.370  36.858  1.00  0.00     0.159 A 
HETATM   18  O1  UNK     1      20.369  -4.957  38.101  1.00  0.00    -0.321 OA
HETATM   19  C3  UNK     1      20.112  -6.306  38.158  1.00  0.00     0.089 A 
HETATM   20  C1  UNK     1      19.896  -7.083  37.019  1.00  0.00     0.049 A 
HETATM   21  C10 UNK     1      20.072  -6.893  39.423  1.00  0.00     0.039 A 
HETATM   22  C7  UNK     1      19.639  -8.450  37.137  1.00  0.00     0.025 A 
HETATM   23  C8  UNK     1      19.944  -6.439  35.692  1.00  0.00     0.198 A 
HETATM   24  C6  UNK     1      19.599  -9.035  38.404  1.00  0.00    -0.061 A 
HETATM   25  C11 UNK     1      19.815  -8.259  39.544  1.00  0.00     0.009 A 
HETATM   26  C17 UNK     1      19.325 -10.496  38.541  1.00  0.00     0.048 C 
HETATM   27  O2  UNK     1      19.761  -7.071  34.661  1.00  0.00    -0.286 OA
ENDBRANCH   2  16
TORSDOF 3
ENDMDL
MODEL 9
REMARK VINA RESULT:      -8.9      1.501      2.140
REMARK  3 active torsions:
REMARK  status: ('A' for Active; 'I' for Inactive)
REMARK       I    between atoms: C16_22  and  N1_5 
REMARK    1  A    between atoms: N1_5  and  N2_6 
REMARK    2  A    between atoms: C16_22  and  C4_10 
REMARK    3  A    between atoms: C20_26  and  C9_15 
ROOT
HETATM    1  N2  UNK     1      17.817   4.634  32.762  1.00  0.00    -0.183 NA
HETATM    2  C20 UNK     1      17.879   5.322  33.857  1.00  0.00     0.156 C 
ENDROOT
BRANCH   1   3
HETATM    3  N1  UNK     1      18.289   3.370  32.878  1.00  0.00    -0.243 N 
HETATM    4  C16 UNK     1      18.026   2.472  31.860  1.00  0.00     0.273 C 
HETATM    5  O3  UNK     1      17.389   2.732  30.842  1.00  0.00    -0.266 OA
HETATM    6  H14 UNK     1      18.786   3.127  33.729  1.00  0.00     0.192 HD
BRANCH   4   7
HETATM    7  C4  UNK     1      18.553   1.097  32.059  1.00  0.00     0.051 A 
HETATM    8  C13 UNK     1      18.402   0.481  33.253  1.00  0.00     0.068 A 
HETATM    9  S1  UNK     1      19.094  -1.075  33.212  1.00  0.00    -0.100 SA
HETATM   10  C5  UNK     1      19.589  -0.894  31.570  1.00  0.00     0.016 A 
HETATM   11  C14 UNK     1      20.275  -1.837  30.780  1.00  0.00     0.019 A 
HETATM   12  C2  UNK     1      19.224   0.358  31.063  1.00  0.00    -0.003 A 
HETATM   13  C19 UNK     1      20.593  -1.507  29.461  1.00  0.00     0.001 A 
HETATM   14  C18 UNK     1      20.242  -0.273  28.936  1.00  0.00     0.001 A 
HETATM   15  C12 UNK     1      19.561   0.661  29.723  1.00  0.00     0.014 A 
ENDBRANCH   4   7
ENDBRANCH   1   3
BRANCH   2  16
HETATM   16  C9  UNK     1      17.419   6.708  33.941  1.00  0.00     0.056 A 
HETATM   17  C15 UNK     1      16.108   6.925  34.088  1.00  0.00     0.159 A 
HETATM   18  O1  UNK     1      15.494   8.152  34.186  1.00  0.00    -0.321 OA
HETATM   19  C3  UNK     1      16.293   9.268  34.126  1.00  0.00     0.089 A 
HETATM   20  C1  UNK     1      17.679   9.199  33.973  1.00  0.00     0.049 A 
HETATM   21  C10 UNK     1      15.662  10.508  34.225  1.00  0.00     0.039 A 
HETATM   22  C7  UNK     1      18.441  10.368  33.919  1.00  0.00     0.025 A 
HETATM   23  C8  UNK     1      18.323   7.876  33.870  1.00  0.00     0.198 A 
HETATM   24  C6  UNK     1      17.806  11.608  34.019  1.00  0.00    -0.061 A 
HETATM   25  C11 UNK     1      16.421  11.678  34.172  1.00  0.00     0.009 A 
HETATM   26  C17 UNK     1      18.612  12.862  33.961  1.00  0.00     0.048 C 
HETATM   27  O2  UNK     1      19.533   7.756  33.736  1.00  0.00    -0.286 OA
ENDBRANCH   2  16
TORSDOF 3
ENDMDL
MODEL 10
REMARK VINA RESULT:      -8.8     15.130     17.055
REMARK  3 active torsions:
REMARK  status: ('A' for Active; 'I' for Inactive)
REMARK       I    between atoms: C16_22  and  N1_5 
REMARK    1  A    between atoms: N1_5  and  N2_6 
REMARK    2  A    between atoms: C16_22  and  C4_10 
REMARK    3  A    between atoms: C20_26  and  C9_15 
ROOT
HETATM    1  N2  UNK     1      25.569  -7.105  38.873  1.00  0.00    -0.183 NA
HETATM    2  C20 UNK     1      26.626  -7.631  38.342  1.00  0.00     0.156 C 
ENDROOT
BRANCH   1   3
HETATM    3  N1  UNK     1      24.460  -7.876  38.773  1.00  0.00    -0.243 N 
HETATM    4  C16 UNK     1      23.233  -7.252  38.646  1.00  0.00     0.273 C 
HETATM    5  O3  UNK     1      23.064  -6.035  38.615  1.00  0.00    -0.266 OA
HETATM    6  H14 UNK     1      24.577  -8.882  38.834  1.00  0.00     0.192 HD
BRANCH   4   7
HETATM    7  C4  UNK     1      22.055  -8.154  38.564  1.00  0.00     0.051 A 
HETATM    8  C13 UNK     1      21.093  -8.099  39.512  1.00  0.00     0.068 A 
HETATM    9  S1  UNK     1      19.865  -9.233  39.181  1.00  0.00    -0.100 SA
HETATM   10  C5  UNK     1      20.656  -9.785  37.752  1.00  0.00     0.016 A 
HETATM   11  C14 UNK     1      20.213 -10.790  36.869  1.00  0.00     0.019 A 
HETATM   12  C2  UNK     1      21.856  -9.100  37.536  1.00  0.00    -0.003 A 
HETATM   13  C19 UNK     1      20.995 -11.102  35.755  1.00  0.00     0.001 A 
HETATM   14  C18 UNK     1      22.189 -10.436  35.521  1.00  0.00     0.001 A 
HETATM   15  C12 UNK     1      22.626  -9.440  36.399  1.00  0.00     0.014 A 
ENDBRANCH   4   7
ENDBRANCH   1   3
BRANCH   2  16
HETATM   16  C9  UNK     1      27.924  -6.959  38.345  1.00  0.00     0.056 A 
HETATM   17  C15 UNK     1      27.948  -5.644  38.588  1.00  0.00     0.159 A 
HETATM   18  O1  UNK     1      29.068  -4.846  38.631  1.00  0.00    -0.321 OA
HETATM   19  C3  UNK     1      30.283  -5.445  38.404  1.00  0.00     0.089 A 
HETATM   20  C1  UNK     1      30.416  -6.808  38.137  1.00  0.00     0.049 A 
HETATM   21  C10 UNK     1      31.413  -4.628  38.450  1.00  0.00     0.039 A 
HETATM   22  C7  UNK     1      31.679  -7.362  37.913  1.00  0.00     0.025 A 
HETATM   23  C8  UNK     1      29.207  -7.652  38.093  1.00  0.00     0.198 A 
HETATM   24  C6  UNK     1      32.807  -6.543  37.960  1.00  0.00    -0.061 A 
HETATM   25  C11 UNK     1      32.675  -5.179  38.228  1.00  0.00     0.009 A 
HETATM   26  C17 UNK     1      34.160  -7.126  37.722  1.00  0.00     0.048 C 
HETATM   27  O2  UNK     1      29.264  -8.851  37.863  1.00  0.00    -0.286 OA
ENDBRANCH   2  16
TORSDOF 3
ENDMDL
