MODEL 1
REMARK VINA RESULT:      -8.6      0.000      0.000
REMARK  7 active torsions:
REMARK  status: ('A' for Active; 'I' for Inactive)
REMARK    1  A    between atoms: C11_19  and  O2_2 
REMARK    2  A    between atoms: C14_22  and  O3_3 
REMARK    3  A    between atoms: C2_10  and  N1_7 
REMARK    4  A    between atoms: C3_11  and  N1_7 
REMARK    5  A    between atoms: C6_14  and  N2_8 
REMARK    6  A    between atoms: C1_9  and  C2_10 
REMARK    7  A    between atoms: C1_9  and  C4_12 
ROOT
HETATM    1  O1  UNK     1      18.830   1.470  31.479  1.00  0.00    -0.273 OA
HETATM    2  O4  UNK     1      17.892   2.568  33.245  1.00  0.00    -0.257 OA
HETATM    3  C3  UNK     1      19.011  -0.868  33.129  1.00  0.00     0.081 A 
HETATM    4  C5  UNK     1      19.496  -0.878  31.725  1.00  0.00     0.027 A 
HETATM    5  C6  UNK     1      18.496   0.296  33.559  1.00  0.00     0.205 A 
HETATM    6  C7  UNK     1      19.386   0.286  30.955  1.00  0.00     0.092 A 
HETATM    7  C10 UNK     1      20.073  -1.996  31.098  1.00  0.00     0.017 A 
HETATM    8  C12 UNK     1      18.370   1.538  32.783  1.00  0.00     0.324 A 
HETATM    9  C15 UNK     1      19.818   0.358  29.627  1.00  0.00     0.038 A 
HETATM   10  C16 UNK     1      20.511  -1.939  29.768  1.00  0.00     0.001 A 
HETATM   11  C17 UNK     1      20.384  -0.764  29.033  1.00  0.00     0.003 A 
ENDROOT
BRANCH   3  12
HETATM   12  N1  UNK     1      19.124  -2.024  33.859  1.00  0.00    -0.387 N 
HETATM   13  H5  UNK     1      18.452  -2.765  33.708  1.00  0.00     0.159 HD
BRANCH  12  14
HETATM   14  C2  UNK     1      20.256  -2.319  34.692  1.00  0.00     0.124 C 
BRANCH  14  15
HETATM   15  C1  UNK     1      19.813  -2.651  36.117  1.00  0.00     0.058 C 
BRANCH  15  16
HETATM   16  C4  UNK     1      20.163  -4.059  36.533  1.00  0.00    -0.054 A 
HETATM   17  C8  UNK     1      19.582  -5.128  35.869  1.00  0.00     0.046 A 
HETATM   18  C11 UNK     1      19.906  -6.428  36.253  1.00  0.00     0.102 A 
HETATM   19  C14 UNK     1      20.807  -6.644  37.296  1.00  0.00     0.101 A 
HETATM   20  C13 UNK     1      21.384  -5.559  37.954  1.00  0.00     0.040 A 
HETATM   21  C9  UNK     1      21.060  -4.257  37.571  1.00  0.00     0.010 A 
BRANCH  18  22
HETATM   22  O2  UNK     1      19.337  -7.481  35.602  1.00  0.00    -0.353 OA
HETATM   23  C18 UNK     1      17.916  -7.467  35.467  1.00  0.00     0.210 C 
ENDBRANCH  18  22
BRANCH  19  24
HETATM   24  O3  UNK     1      21.132  -7.910  37.680  1.00  0.00    -0.353 OA
HETATM   25  C19 UNK     1      22.365  -8.439  37.196  1.00  0.00     0.210 C 
ENDBRANCH  19  24
ENDBRANCH  15  16
ENDBRANCH  14  15
ENDBRANCH  12  14
ENDBRANCH   3  12
BRANCH   5  26
HETATM   26  N2  UNK     1      18.019   0.345  34.905  1.00  0.00    -0.107 N 
HETATM   27  O5  UNK     1      16.842   0.020  35.095  1.00  0.00    -0.531 OA
HETATM   28  O6  UNK     1      18.822   0.711  35.770  1.00  0.00    -0.531 OA
ENDBRANCH   5  26
TORSDOF 7
ENDMDL
MODEL 2
REMARK VINA RESULT:      -8.6      4.212      9.682
REMARK  7 active torsions:
REMARK  status: ('A' for Active; 'I' for Inactive)
REMARK    1  A    between atoms: C11_19  and  O2_2 
REMARK    2  A    between atoms: C14_22  and  O3_3 
REMARK    3  A    between atoms: C2_10  and  N1_7 
REMARK    4  A    between atoms: C3_11  and  N1_7 
REMARK    5  A    between atoms: C6_14  and  N2_8 
REMARK    6  A    between atoms: C1_9  and  C2_10 
REMARK    7  A    between atoms: C1_9  and  C4_12 
ROOT
HETATM    1  O1  UNK     1      19.639  -1.405  32.827  1.00  0.00    -0.273 OA
HETATM    2  O4  UNK     1      18.788  -1.360  34.943  1.00  0.00    -0.257 OA
HETATM    3  C3  UNK     1      18.350   1.109  32.338  1.00  0.00     0.081 A 
HETATM    4  C5  UNK     1      19.147   0.435  31.281  1.00  0.00     0.027 A 
HETATM    5  C6  UNK     1      18.277   0.463  33.514  1.00  0.00     0.205 A 
HETATM    6  C7  UNK     1      19.760  -0.791  31.565  1.00  0.00     0.092 A 
HETATM    7  C10 UNK     1      19.333   0.947  29.986  1.00  0.00     0.017 A 
HETATM    8  C12 UNK     1      18.902  -0.826  33.846  1.00  0.00     0.324 A 
HETATM    9  C15 UNK     1      20.527  -1.488  30.625  1.00  0.00     0.038 A 
HETATM   10  C16 UNK     1      20.097   0.260  29.033  1.00  0.00     0.001 A 
HETATM   11  C17 UNK     1      20.694  -0.956  29.353  1.00  0.00     0.003 A 
ENDROOT
BRANCH   3  12
HETATM   12  N1  UNK     1      17.766   2.312  32.036  1.00  0.00    -0.387 N 
HETATM   13  H5  UNK     1      16.757   2.367  31.985  1.00  0.00     0.159 HD
BRANCH  12  14
HETATM   14  C2  UNK     1      18.497   3.547  31.973  1.00  0.00     0.124 C 
BRANCH  14  15
HETATM   15  C1  UNK     1      18.456   4.275  33.316  1.00  0.00     0.058 C 
BRANCH  15  16
HETATM   16  C4  UNK     1      17.949   5.693  33.205  1.00  0.00    -0.054 A 
HETATM   17  C8  UNK     1      16.853   5.962  32.401  1.00  0.00     0.046 A 
HETATM   18  C11 UNK     1      16.384   7.271  32.299  1.00  0.00     0.102 A 
HETATM   19  C14 UNK     1      17.017   8.295  33.003  1.00  0.00     0.101 A 
HETATM   20  C13 UNK     1      18.119   8.009  33.809  1.00  0.00     0.040 A 
HETATM   21  C9  UNK     1      18.589   6.700  33.911  1.00  0.00     0.010 A 
BRANCH  18  22
HETATM   22  O2  UNK     1      15.307   7.538  31.509  1.00  0.00    -0.353 OA
HETATM   23  C18 UNK     1      14.020   7.246  32.049  1.00  0.00     0.210 C 
ENDBRANCH  18  22
BRANCH  19  24
HETATM   24  O3  UNK     1      16.569   9.578  32.912  1.00  0.00    -0.353 OA
HETATM   25  C19 UNK     1      15.823  10.084  34.017  1.00  0.00     0.210 C 
ENDBRANCH  19  24
ENDBRANCH  15  16
ENDBRANCH  14  15
ENDBRANCH  12  14
ENDBRANCH   3  12
BRANCH   5  26
HETATM   26  N2  UNK     1      17.519   1.080  34.556  1.00  0.00    -0.107 N 
HETATM   27  O5  UNK     1      18.142   1.769  35.370  1.00  0.00    -0.531 OA
HETATM   28  O6  UNK     1      16.301   0.873  34.560  1.00  0.00    -0.531 OA
ENDBRANCH   5  26
TORSDOF 7
ENDMDL
MODEL 3
REMARK VINA RESULT:      -8.5      2.477      4.179
REMARK  7 active torsions:
REMARK  status: ('A' for Active; 'I' for Inactive)
REMARK    1  A    between atoms: C11_19  and  O2_2 
REMARK    2  A    between atoms: C14_22  and  O3_3 
REMARK    3  A    between atoms: C2_10  and  N1_7 
REMARK    4  A    between atoms: C3_11  and  N1_7 
REMARK    5  A    between atoms: C6_14  and  N2_8 
REMARK    6  A    between atoms: C1_9  and  C2_10 
REMARK    7  A    between atoms: C1_9  and  C4_12 
ROOT
HETATM    1  O1  UNK     1      17.830  -0.554  33.340  1.00  0.00    -0.273 OA
HETATM    2  O4  UNK     1      19.150  -1.519  31.750  1.00  0.00    -0.257 OA
HETATM    3  C3  UNK     1      19.512  -1.731  35.341  1.00  0.00     0.081 A 
HETATM    4  C5  UNK     1      18.339  -0.899  35.715  1.00  0.00     0.027 A 
HETATM    5  C6  UNK     1      19.717  -1.890  34.023  1.00  0.00     0.205 A 
HETATM    6  C7  UNK     1      17.546  -0.343  34.704  1.00  0.00     0.092 A 
HETATM    7  C10 UNK     1      17.956  -0.625  37.039  1.00  0.00     0.017 A 
HETATM    8  C12 UNK     1      18.904  -1.327  32.935  1.00  0.00     0.324 A 
HETATM    9  C15 UNK     1      16.427   0.452  34.972  1.00  0.00     0.038 A 
HETATM   10  C16 UNK     1      16.837   0.169  37.324  1.00  0.00     0.001 A 
HETATM   11  C17 UNK     1      16.073   0.707  36.292  1.00  0.00     0.003 A 
ENDROOT
BRANCH   3  12
HETATM   12  N1  UNK     1      20.276  -2.258  36.351  1.00  0.00    -0.387 N 
HETATM   13  H5  UNK     1      21.170  -1.833  36.561  1.00  0.00     0.159 HD
BRANCH  12  14
HETATM   14  C2  UNK     1      19.796  -3.267  37.254  1.00  0.00     0.124 C 
BRANCH  14  15
HETATM   15  C1  UNK     1      20.869  -4.325  37.511  1.00  0.00     0.058 C 
BRANCH  15  16
HETATM   16  C4  UNK     1      20.302  -5.715  37.676  1.00  0.00    -0.054 A 
HETATM   17  C8  UNK     1      19.565  -6.274  36.645  1.00  0.00     0.046 A 
HETATM   18  C11 UNK     1      19.042  -7.558  36.797  1.00  0.00     0.102 A 
HETATM   19  C14 UNK     1      19.263  -8.266  37.979  1.00  0.00     0.101 A 
HETATM   20  C13 UNK     1      20.007  -7.689  39.008  1.00  0.00     0.040 A 
HETATM   21  C9  UNK     1      20.530  -6.404  38.856  1.00  0.00     0.010 A 
BRANCH  18  22
HETATM   22  O2  UNK     1      18.317  -8.111  35.786  1.00  0.00    -0.353 OA
HETATM   23  C18 UNK     1      17.134  -7.421  35.385  1.00  0.00     0.210 C 
ENDBRANCH  18  22
BRANCH  19  24
HETATM   24  O3  UNK     1      18.758  -9.520  38.140  1.00  0.00    -0.353 OA
HETATM   25  C19 UNK     1      19.471 -10.400  39.007  1.00  0.00     0.210 C 
ENDBRANCH  19  24
ENDBRANCH  15  16
ENDBRANCH  14  15
ENDBRANCH  12  14
ENDBRANCH   3  12
BRANCH   5  26
HETATM   26  N2  UNK     1      20.835  -2.685  33.624  1.00  0.00    -0.107 N 
HETATM   27  O5  UNK     1      21.906  -2.096  33.441  1.00  0.00    -0.531 OA
HETATM   28  O6  UNK     1      20.642  -3.898  33.493  1.00  0.00    -0.531 OA
ENDBRANCH   5  26
TORSDOF 7
ENDMDL
MODEL 4
REMARK VINA RESULT:      -8.3      1.006      2.012
REMARK  7 active torsions:
REMARK  status: ('A' for Active; 'I' for Inactive)
REMARK    1  A    between atoms: C11_19  and  O2_2 
REMARK    2  A    between atoms: C14_22  and  O3_3 
REMARK    3  A    between atoms: C2_10  and  N1_7 
REMARK    4  A    between atoms: C3_11  and  N1_7 
REMARK    5  A    between atoms: C6_14  and  N2_8 
REMARK    6  A    between atoms: C1_9  and  C2_10 
REMARK    7  A    between atoms: C1_9  and  C4_12 
ROOT
HETATM    1  O1  UNK     1      18.655   1.260  32.040  1.00  0.00    -0.273 OA
HETATM    2  O4  UNK     1      17.693   2.388  33.774  1.00  0.00    -0.257 OA
HETATM    3  C3  UNK     1      18.961  -0.998  33.781  1.00  0.00     0.081 A 
HETATM    4  C5  UNK     1      19.428  -1.045  32.371  1.00  0.00     0.027 A 
HETATM    5  C6  UNK     1      18.401   0.160  34.171  1.00  0.00     0.205 A 
HETATM    6  C7  UNK     1      19.256   0.081  31.557  1.00  0.00     0.092 A 
HETATM    7  C10 UNK     1      20.045  -2.161  31.782  1.00  0.00     0.017 A 
HETATM    8  C12 UNK     1      18.210   1.362  33.347  1.00  0.00     0.324 A 
HETATM    9  C15 UNK     1      19.667   0.116  30.221  1.00  0.00     0.038 A 
HETATM   10  C16 UNK     1      20.463  -2.140  30.445  1.00  0.00     0.001 A 
HETATM   11  C17 UNK     1      20.274  -1.003  29.665  1.00  0.00     0.003 A 
ENDROOT
BRANCH   3  12
HETATM   12  N1  UNK     1      19.134  -2.116  34.556  1.00  0.00    -0.387 N 
HETATM   13  H5  UNK     1      18.512  -2.903  34.425  1.00  0.00     0.159 HD
BRANCH  12  14
HETATM   14  C2  UNK     1      20.270  -2.309  35.414  1.00  0.00     0.124 C 
BRANCH  14  15
HETATM   15  C1  UNK     1      19.865  -3.022  36.704  1.00  0.00     0.058 C 
BRANCH  15  16
HETATM   16  C4  UNK     1      20.251  -4.482  36.719  1.00  0.00    -0.054 A 
HETATM   17  C8  UNK     1      20.969  -4.984  37.792  1.00  0.00     0.046 A 
HETATM   18  C11 UNK     1      21.325  -6.331  37.806  1.00  0.00     0.102 A 
HETATM   19  C14 UNK     1      20.957  -7.161  36.746  1.00  0.00     0.101 A 
HETATM   20  C13 UNK     1      20.234  -6.642  35.673  1.00  0.00     0.040 A 
HETATM   21  C9  UNK     1      19.878  -5.293  35.658  1.00  0.00     0.010 A 
BRANCH  18  22
HETATM   22  O2  UNK     1      22.031  -6.828  38.859  1.00  0.00    -0.353 OA
HETATM   23  C18 UNK     1      23.309  -6.247  39.113  1.00  0.00     0.210 C 
ENDBRANCH  18  22
BRANCH  19  24
HETATM   24  O3  UNK     1      21.298  -8.480  36.748  1.00  0.00    -0.353 OA
HETATM   25  C19 UNK     1      21.531  -9.091  35.481  1.00  0.00     0.210 C 
ENDBRANCH  19  24
ENDBRANCH  15  16
ENDBRANCH  14  15
ENDBRANCH  12  14
ENDBRANCH   3  12
BRANCH   5  26
HETATM   26  N2  UNK     1      17.940   0.244  35.521  1.00  0.00    -0.107 N 
HETATM   27  O5  UNK     1      18.724   0.714  36.352  1.00  0.00    -0.531 OA
HETATM   28  O6  UNK     1      16.796  -0.162  35.749  1.00  0.00    -0.531 OA
ENDBRANCH   5  26
TORSDOF 7
ENDMDL
MODEL 5
REMARK VINA RESULT:      -8.1      2.513      4.462
REMARK  7 active torsions:
REMARK  status: ('A' for Active; 'I' for Inactive)
REMARK    1  A    between atoms: C11_19  and  O2_2 
REMARK    2  A    between atoms: C14_22  and  O3_3 
REMARK    3  A    between atoms: C2_10  and  N1_7 
REMARK    4  A    between atoms: C3_11  and  N1_7 
REMARK    5  A    between atoms: C6_14  and  N2_8 
REMARK    6  A    between atoms: C1_9  and  C2_10 
REMARK    7  A    between atoms: C1_9  and  C4_12 
ROOT
HETATM    1  O1  UNK     1      17.992  -0.648  33.226  1.00  0.00    -0.273 OA
HETATM    2  O4  UNK     1      19.358  -1.427  31.573  1.00  0.00    -0.257 OA
HETATM    3  C3  UNK     1      19.756  -1.846  35.143  1.00  0.00     0.081 A 
HETATM    4  C5  UNK     1      18.537  -1.113  35.572  1.00  0.00     0.027 A 
HETATM    5  C6  UNK     1      19.962  -1.908  33.816  1.00  0.00     0.205 A 
HETATM    6  C7  UNK     1      17.706  -0.542  34.601  1.00  0.00     0.092 A 
HETATM    7  C10 UNK     1      18.147  -0.948  36.912  1.00  0.00     0.017 A 
HETATM    8  C12 UNK     1      19.109  -1.327  32.769  1.00  0.00     0.324 A 
HETATM    9  C15 UNK     1      16.542   0.164  34.924  1.00  0.00     0.038 A 
HETATM   10  C16 UNK     1      16.984  -0.244  37.250  1.00  0.00     0.001 A 
HETATM   11  C17 UNK     1      16.182   0.311  36.257  1.00  0.00     0.003 A 
ENDROOT
BRANCH   3  12
HETATM   12  N1  UNK     1      20.557  -2.390  36.114  1.00  0.00    -0.387 N 
HETATM   13  H5  UNK     1      21.356  -1.861  36.441  1.00  0.00     0.159 HD
BRANCH  12  14
HETATM   14  C2  UNK     1      20.221  -3.589  36.829  1.00  0.00     0.124 C 
BRANCH  14  15
HETATM   15  C1  UNK     1      19.843  -4.713  35.865  1.00  0.00     0.058 C 
BRANCH  15  16
HETATM   16  C4  UNK     1      19.589  -6.029  36.560  1.00  0.00    -0.054 A 
HETATM   17  C8  UNK     1      20.175  -6.271  37.792  1.00  0.00     0.046 A 
HETATM   18  C11 UNK     1      19.941  -7.486  38.433  1.00  0.00     0.102 A 
HETATM   19  C14 UNK     1      19.122  -8.445  37.835  1.00  0.00     0.101 A 
HETATM   20  C13 UNK     1      18.540  -8.187  36.595  1.00  0.00     0.040 A 
HETATM   21  C9  UNK     1      18.775  -6.971  35.952  1.00  0.00     0.010 A 
BRANCH  18  22
HETATM   22  O2  UNK     1      20.515  -7.727  39.645  1.00  0.00    -0.353 OA
HETATM   23  C18 UNK     1      21.940  -7.699  39.702  1.00  0.00     0.210 C 
ENDBRANCH  18  22
BRANCH  19  24
HETATM   24  O3  UNK     1      18.886  -9.635  38.451  1.00  0.00    -0.353 OA
HETATM   25  C19 UNK     1      19.607 -10.768  37.972  1.00  0.00     0.210 C 
ENDBRANCH  19  24
ENDBRANCH  15  16
ENDBRANCH  14  15
ENDBRANCH  12  14
ENDBRANCH   3  12
BRANCH   5  26
HETATM   26  N2  UNK     1      21.123  -2.606  33.364  1.00  0.00    -0.107 N 
HETATM   27  O5  UNK     1      22.212  -2.044  33.524  1.00  0.00    -0.531 OA
HETATM   28  O6  UNK     1      20.946  -3.714  32.848  1.00  0.00    -0.531 OA
ENDBRANCH   5  26
TORSDOF 7
ENDMDL
MODEL 6
REMARK VINA RESULT:      -8.0      4.348     10.149
REMARK  7 active torsions:
REMARK  status: ('A' for Active; 'I' for Inactive)
REMARK    1  A    between atoms: C11_19  and  O2_2 
REMARK    2  A    between atoms: C14_22  and  O3_3 
REMARK    3  A    between atoms: C2_10  and  N1_7 
REMARK    4  A    between atoms: C3_11  and  N1_7 
REMARK    5  A    between atoms: C6_14  and  N2_8 
REMARK    6  A    between atoms: C1_9  and  C2_10 
REMARK    7  A    between atoms: C1_9  and  C4_12 
ROOT
HETATM    1  O1  UNK     1      19.322  -1.795  34.509  1.00  0.00    -0.273 OA
HETATM    2  O4  UNK     1      20.343  -2.083  32.490  1.00  0.00    -0.257 OA
HETATM    3  C3  UNK     1      18.277   0.692  33.539  1.00  0.00     0.081 A 
HETATM    4  C5  UNK     1      17.984   0.220  34.916  1.00  0.00     0.027 A 
HETATM    5  C6  UNK     1      19.057  -0.115  32.799  1.00  0.00     0.205 A 
HETATM    6  C7  UNK     1      18.513  -1.002  35.347  1.00  0.00     0.092 A 
HETATM    7  C10 UNK     1      17.196   0.927  35.841  1.00  0.00     0.017 A 
HETATM    8  C12 UNK     1      19.635  -1.399  33.220  1.00  0.00     0.324 A 
HETATM    9  C15 UNK     1      18.283  -1.516  36.627  1.00  0.00     0.038 A 
HETATM   10  C16 UNK     1      16.958   0.425  37.128  1.00  0.00     0.001 A 
HETATM   11  C17 UNK     1      17.500  -0.795  37.520  1.00  0.00     0.003 A 
ENDROOT
BRANCH   3  12
HETATM   12  N1  UNK     1      17.740   1.889  33.139  1.00  0.00    -0.387 N 
HETATM   13  H5  UNK     1      16.843   1.891  32.672  1.00  0.00     0.159 HD
BRANCH  12  14
HETATM   14  C2  UNK     1      18.291   3.162  33.514  1.00  0.00     0.124 C 
BRANCH  14  15
HETATM   15  C1  UNK     1      18.209   4.155  32.356  1.00  0.00     0.058 C 
BRANCH  15  16
HETATM   16  C4  UNK     1      18.378   5.590  32.794  1.00  0.00    -0.054 A 
HETATM   17  C8  UNK     1      17.479   6.547  32.350  1.00  0.00     0.046 A 
HETATM   18  C11 UNK     1      17.635   7.871  32.755  1.00  0.00     0.102 A 
HETATM   19  C14 UNK     1      18.689   8.224  33.599  1.00  0.00     0.101 A 
HETATM   20  C13 UNK     1      19.586   7.250  34.037  1.00  0.00     0.040 A 
HETATM   21  C9  UNK     1      19.430   5.924  33.632  1.00  0.00     0.010 A 
BRANCH  18  22
HETATM   22  O2  UNK     1      16.752   8.814  32.321  1.00  0.00    -0.353 OA
HETATM   23  C18 UNK     1      15.421   8.379  32.050  1.00  0.00     0.210 C 
ENDBRANCH  18  22
BRANCH  19  24
HETATM   24  O3  UNK     1      18.852   9.514  34.001  1.00  0.00    -0.353 OA
HETATM   25  C19 UNK     1      20.135   9.879  34.506  1.00  0.00     0.210 C 
ENDBRANCH  19  24
ENDBRANCH  15  16
ENDBRANCH  14  15
ENDBRANCH  12  14
ENDBRANCH   3  12
BRANCH   5  26
HETATM   26  N2  UNK     1      19.362   0.306  31.469  1.00  0.00    -0.107 N 
HETATM   27  O5  UNK     1      20.557   0.364  31.160  1.00  0.00    -0.531 OA
HETATM   28  O6  UNK     1      18.407   0.580  30.735  1.00  0.00    -0.531 OA
ENDBRANCH   5  26
TORSDOF 7
ENDMDL
MODEL 7
REMARK VINA RESULT:      -7.9      5.073     10.711
REMARK  7 active torsions:
REMARK  status: ('A' for Active; 'I' for Inactive)
REMARK    1  A    between atoms: C11_19  and  O2_2 
REMARK    2  A    between atoms: C14_22  and  O3_3 
REMARK    3  A    between atoms: C2_10  and  N1_7 
REMARK    4  A    between atoms: C3_11  and  N1_7 
REMARK    5  A    between atoms: C6_14  and  N2_8 
REMARK    6  A    between atoms: C1_9  and  C2_10 
REMARK    7  A    between atoms: C1_9  and  C4_12 
ROOT
HETATM    1  O1  UNK     1      19.234  -0.071  31.253  1.00  0.00    -0.273 OA
HETATM    2  O4  UNK     1      19.621   0.709  29.145  1.00  0.00    -0.257 OA
HETATM    3  C3  UNK     1      18.289   2.542  31.962  1.00  0.00     0.081 A 
HETATM    4  C5  UNK     1      18.325   1.440  32.958  1.00  0.00     0.027 A 
HETATM    5  C6  UNK     1      18.728   2.229  30.731  1.00  0.00     0.205 A 
HETATM    6  C7  UNK     1      18.792   0.180  32.568  1.00  0.00     0.092 A 
HETATM    7  C10 UNK     1      17.916   1.574  34.296  1.00  0.00     0.017 A 
HETATM    8  C12 UNK     1      19.231   0.921  30.287  1.00  0.00     0.324 A 
HETATM    9  C15 UNK     1      18.856  -0.907  33.444  1.00  0.00     0.038 A 
HETATM   10  C16 UNK     1      17.975   0.494  35.187  1.00  0.00     0.001 A 
HETATM   11  C17 UNK     1      18.444  -0.746  34.761  1.00  0.00     0.003 A 
ENDROOT
BRANCH   3  12
HETATM   12  N1  UNK     1      17.820   3.765  32.369  1.00  0.00    -0.387 N 
HETATM   13  H5  UNK     1      16.948   4.106  31.986  1.00  0.00     0.159 HD
BRANCH  12  14
HETATM   14  C2  UNK     1      18.402   4.509  33.451  1.00  0.00     0.124 C 
BRANCH  14  15
HETATM   15  C1  UNK     1      19.360   5.577  32.927  1.00  0.00     0.058 C 
BRANCH  15  16
HETATM   16  C4  UNK     1      18.920   6.983  33.260  1.00  0.00    -0.054 A 
HETATM   17  C8  UNK     1      17.703   7.443  32.785  1.00  0.00     0.046 A 
HETATM   18  C11 UNK     1      17.296   8.741  33.094  1.00  0.00     0.102 A 
HETATM   19  C14 UNK     1      18.112   9.561  33.873  1.00  0.00     0.101 A 
HETATM   20  C13 UNK     1      19.335   9.084  34.342  1.00  0.00     0.040 A 
HETATM   21  C9  UNK     1      19.742   7.786  34.034  1.00  0.00     0.010 A 
BRANCH  18  22
HETATM   22  O2  UNK     1      16.099   9.197  32.629  1.00  0.00    -0.353 OA
HETATM   23  C18 UNK     1      15.365   8.327  31.769  1.00  0.00     0.210 C 
ENDBRANCH  18  22
BRANCH  19  24
HETATM   24  O3  UNK     1      17.726  10.831  34.180  1.00  0.00    -0.353 OA
HETATM   25  C19 UNK     1      18.649  11.878  33.888  1.00  0.00     0.210 C 
ENDBRANCH  19  24
ENDBRANCH  15  16
ENDBRANCH  14  15
ENDBRANCH  12  14
ENDBRANCH   3  12
BRANCH   5  26
HETATM   26  N2  UNK     1      18.711   3.263  29.745  1.00  0.00    -0.107 N 
HETATM   27  O5  UNK     1      18.041   3.056  28.728  1.00  0.00    -0.531 OA
HETATM   28  O6  UNK     1      19.368   4.280  29.988  1.00  0.00    -0.531 OA
ENDBRANCH   5  26
TORSDOF 7
ENDMDL
MODEL 8
REMARK VINA RESULT:      -7.7     26.387     28.277
REMARK  7 active torsions:
REMARK  status: ('A' for Active; 'I' for Inactive)
REMARK    1  A    between atoms: C11_19  and  O2_2 
REMARK    2  A    between atoms: C14_22  and  O3_3 
REMARK    3  A    between atoms: C2_10  and  N1_7 
REMARK    4  A    between atoms: C3_11  and  N1_7 
REMARK    5  A    between atoms: C6_14  and  N2_8 
REMARK    6  A    between atoms: C1_9  and  C2_10 
REMARK    7  A    between atoms: C1_9  and  C4_12 
ROOT
HETATM    1  O1  UNK     1      16.252   6.166   9.907  1.00  0.00    -0.273 OA
HETATM    2  O4  UNK     1      15.274   4.109   9.779  1.00  0.00    -0.257 OA
HETATM    3  C3  UNK     1      13.642   7.335   9.703  1.00  0.00     0.081 A 
HETATM    4  C5  UNK     1      14.858   8.182   9.817  1.00  0.00     0.027 A 
HETATM    5  C6  UNK     1      13.855   6.008   9.698  1.00  0.00     0.205 A 
HETATM    6  C7  UNK     1      16.112   7.568   9.916  1.00  0.00     0.092 A 
HETATM    7  C10 UNK     1      14.841   9.587   9.831  1.00  0.00     0.017 A 
HETATM    8  C12 UNK     1      15.155   5.329   9.794  1.00  0.00     0.324 A 
HETATM    9  C15 UNK     1      17.302   8.294  10.027  1.00  0.00     0.038 A 
HETATM   10  C16 UNK     1      16.025  10.328   9.940  1.00  0.00     0.001 A 
HETATM   11  C17 UNK     1      17.254   9.682  10.039  1.00  0.00     0.003 A 
ENDROOT
BRANCH   3  12
HETATM   12  N1  UNK     1      12.426   7.961   9.614  1.00  0.00    -0.387 N 
HETATM   13  H5  UNK     1      11.918   8.168  10.465  1.00  0.00     0.159 HD
BRANCH  12  14
HETATM   14  C2  UNK     1      11.913   8.512   8.390  1.00  0.00     0.124 C 
BRANCH  14  15
HETATM   15  C1  UNK     1      11.084   7.478   7.631  1.00  0.00     0.058 C 
BRANCH  15  16
HETATM   16  C4  UNK     1       9.756   7.185   8.287  1.00  0.00    -0.054 A 
HETATM   17  C8  UNK     1       9.118   5.984   8.023  1.00  0.00     0.046 A 
HETATM   18  C11 UNK     1       7.892   5.714   8.630  1.00  0.00     0.102 A 
HETATM   19  C14 UNK     1       7.320   6.649   9.493  1.00  0.00     0.101 A 
HETATM   20  C13 UNK     1       7.974   7.853   9.749  1.00  0.00     0.040 A 
HETATM   21  C9  UNK     1       9.200   8.124   9.141  1.00  0.00     0.010 A 
BRANCH  18  22
HETATM   22  O2  UNK     1       7.262   4.534   8.373  1.00  0.00    -0.353 OA
HETATM   23  C18 UNK     1       7.078   3.645   9.473  1.00  0.00     0.210 C 
ENDBRANCH  18  22
BRANCH  19  24
HETATM   24  O3  UNK     1       6.123   6.397  10.092  1.00  0.00    -0.353 OA
HETATM   25  C19 UNK     1       6.071   6.513  11.513  1.00  0.00     0.210 C 
ENDBRANCH  19  24
ENDBRANCH  15  16
ENDBRANCH  14  15
ENDBRANCH  12  14
ENDBRANCH   3  12
BRANCH   5  26
HETATM   26  N2  UNK     1      12.710   5.160   9.589  1.00  0.00    -0.107 N 
HETATM   27  O5  UNK     1      12.578   4.530   8.534  1.00  0.00    -0.531 OA
HETATM   28  O6  UNK     1      11.944   5.126  10.557  1.00  0.00    -0.531 OA
ENDBRANCH   5  26
TORSDOF 7
ENDMDL
MODEL 9
REMARK VINA RESULT:      -7.6     10.078     12.227
REMARK  7 active torsions:
REMARK  status: ('A' for Active; 'I' for Inactive)
REMARK    1  A    between atoms: C11_19  and  O2_2 
REMARK    2  A    between atoms: C14_22  and  O3_3 
REMARK    3  A    between atoms: C2_10  and  N1_7 
REMARK    4  A    between atoms: C3_11  and  N1_7 
REMARK    5  A    between atoms: C6_14  and  N2_8 
REMARK    6  A    between atoms: C1_9  and  C2_10 
REMARK    7  A    between atoms: C1_9  and  C4_12 
ROOT
HETATM    1  O1  UNK     1      30.389  -3.836  37.920  1.00  0.00    -0.273 OA
HETATM    2  O4  UNK     1      28.704  -4.020  39.447  1.00  0.00    -0.257 OA
HETATM    3  C3  UNK     1      29.629  -6.401  36.887  1.00  0.00     0.081 A 
HETATM    4  C5  UNK     1      30.769  -5.645  36.307  1.00  0.00     0.027 A 
HETATM    5  C6  UNK     1      28.998  -5.806  37.914  1.00  0.00     0.205 A 
HETATM    6  C7  UNK     1      31.104  -4.395  36.842  1.00  0.00     0.092 A 
HETATM    7  C10 UNK     1      31.556  -6.104  35.237  1.00  0.00     0.017 A 
HETATM    8  C12 UNK     1      29.324  -4.500  38.504  1.00  0.00     0.324 A 
HETATM    9  C15 UNK     1      32.161  -3.622  36.352  1.00  0.00     0.038 A 
HETATM   10  C16 UNK     1      32.619  -5.341  34.736  1.00  0.00     0.001 A 
HETATM   11  C17 UNK     1      32.921  -4.101  35.293  1.00  0.00     0.003 A 
ENDROOT
BRANCH   3  12
HETATM   12  N1  UNK     1      29.318  -7.619  36.340  1.00  0.00    -0.387 N 
HETATM   13  H5  UNK     1      29.768  -8.448  36.704  1.00  0.00     0.159 HD
BRANCH  12  14
HETATM   14  C2  UNK     1      28.245  -7.808  35.403  1.00  0.00     0.124 C 
BRANCH  14  15
HETATM   15  C1  UNK     1      28.041  -6.559  34.547  1.00  0.00     0.058 C 
BRANCH  15  16
HETATM   16  C4  UNK     1      28.459  -6.752  33.109  1.00  0.00    -0.054 A 
HETATM   17  C8  UNK     1      28.523  -8.033  32.587  1.00  0.00     0.046 A 
HETATM   18  C11 UNK     1      28.909  -8.211  31.259  1.00  0.00     0.102 A 
HETATM   19  C14 UNK     1      29.225  -7.104  30.470  1.00  0.00     0.101 A 
HETATM   20  C13 UNK     1      29.156  -5.821  31.010  1.00  0.00     0.040 A 
HETATM   21  C9  UNK     1      28.770  -5.642  32.339  1.00  0.00     0.010 A 
BRANCH  18  22
HETATM   22  O2  UNK     1      28.973  -9.469  30.742  1.00  0.00    -0.353 OA
HETATM   23  C18 UNK     1      30.121 -10.248  31.074  1.00  0.00     0.210 C 
ENDBRANCH  18  22
BRANCH  19  24
HETATM   24  O3  UNK     1      29.603  -7.265  29.172  1.00  0.00    -0.353 OA
HETATM   25  C19 UNK     1      30.995  -7.148  28.882  1.00  0.00     0.210 C 
ENDBRANCH  19  24
ENDBRANCH  15  16
ENDBRANCH  14  15
ENDBRANCH  12  14
ENDBRANCH   3  12
BRANCH   5  26
HETATM   26  N2  UNK     1      27.896  -6.502  38.499  1.00  0.00    -0.107 N 
HETATM   27  O5  UNK     1      26.771  -6.244  38.059  1.00  0.00    -0.531 OA
HETATM   28  O6  UNK     1      28.157  -7.307  39.400  1.00  0.00    -0.531 OA
ENDBRANCH   5  26
TORSDOF 7
ENDMDL
MODEL 10
REMARK VINA RESULT:      -7.6     10.470     12.192
REMARK  7 active torsions:
REMARK  status: ('A' for Active; 'I' for Inactive)
REMARK    1  A    between atoms: C11_19  and  O2_2 
REMARK    2  A    between atoms: C14_22  and  O3_3 
REMARK    3  A    between atoms: C2_10  and  N1_7 
REMARK    4  A    between atoms: C3_11  and  N1_7 
REMARK    5  A    between atoms: C6_14  and  N2_8 
REMARK    6  A    between atoms: C1_9  and  C2_10 
REMARK    7  A    between atoms: C1_9  and  C4_12 
ROOT
HETATM    1  O1  UNK     1      30.836  -3.977  38.022  1.00  0.00    -0.273 OA
HETATM    2  O4  UNK     1      29.543  -3.799  39.892  1.00  0.00    -0.257 OA
HETATM    3  C3  UNK     1      29.095  -6.065  37.111  1.00  0.00     0.081 A 
HETATM    4  C5  UNK     1      30.268  -5.636  36.306  1.00  0.00     0.027 A 
HETATM    5  C6  UNK     1      28.918  -5.417  38.275  1.00  0.00     0.205 A 
HETATM    6  C7  UNK     1      31.090  -4.611  36.789  1.00  0.00     0.092 A 
HETATM    7  C10 UNK     1      30.622  -6.198  35.068  1.00  0.00     0.017 A 
HETATM    8  C12 UNK     1      29.763  -4.343  38.816  1.00  0.00     0.324 A 
HETATM    9  C15 UNK     1      32.211  -4.150  36.092  1.00  0.00     0.038 A 
HETATM   10  C16 UNK     1      31.743  -5.747  34.358  1.00  0.00     0.001 A 
HETATM   11  C17 UNK     1      32.537  -4.724  34.870  1.00  0.00     0.003 A 
ENDROOT
BRANCH   3  12
HETATM   12  N1  UNK     1      28.302  -7.066  36.612  1.00  0.00    -0.387 N 
HETATM   13  H5  UNK     1      27.605  -6.837  35.915  1.00  0.00     0.159 HD
BRANCH  12  14
HETATM   14  C2  UNK     1      28.529  -8.458  36.884  1.00  0.00     0.124 C 
BRANCH  14  15
HETATM   15  C1  UNK     1      28.008  -9.330  35.743  1.00  0.00     0.058 C 
BRANCH  15  16
HETATM   16  C4  UNK     1      28.891  -9.293  34.518  1.00  0.00    -0.054 A 
HETATM   17  C8  UNK     1      28.441  -8.654  33.375  1.00  0.00     0.046 A 
HETATM   18  C11 UNK     1      29.257  -8.619  32.245  1.00  0.00     0.102 A 
HETATM   19  C14 UNK     1      30.513  -9.225  32.273  1.00  0.00     0.101 A 
HETATM   20  C13 UNK     1      30.953  -9.865  33.431  1.00  0.00     0.040 A 
HETATM   21  C9  UNK     1      30.136  -9.900  34.562  1.00  0.00     0.010 A 
BRANCH  18  22
HETATM   22  O2  UNK     1      28.817  -7.991  31.119  1.00  0.00    -0.353 OA
HETATM   23  C18 UNK     1      27.772  -8.630  30.387  1.00  0.00     0.210 C 
ENDBRANCH  18  22
BRANCH  19  24
HETATM   24  O3  UNK     1      31.319  -9.198  31.176  1.00  0.00    -0.353 OA
HETATM   25  C19 UNK     1      31.367 -10.378  30.377  1.00  0.00     0.210 C 
ENDBRANCH  19  24
ENDBRANCH  15  16
ENDBRANCH  14  15
ENDBRANCH  12  14
ENDBRANCH   3  12
BRANCH   5  26
HETATM   26  N2  UNK     1      27.801  -5.803  39.078  1.00  0.00    -0.107 N 
HETATM   27  O5  UNK     1      26.737  -5.207  38.880  1.00  0.00    -0.531 OA
HETATM   28  O6  UNK     1      27.990  -6.699  39.906  1.00  0.00    -0.531 OA
ENDBRANCH   5  26
TORSDOF 7
ENDMDL
