MODEL 1
REMARK VINA RESULT:      -7.4      0.000      0.000
REMARK  5 active torsions:
REMARK  status: ('A' for Active; 'I' for Inactive)
REMARK    1  A    between atoms: C3_8  and  O1_1 
REMARK    2  A    between atoms: C8_13  and  O1_1 
REMARK    3  A    between atoms: C5_10  and  O3_3 
REMARK    4  A    between atoms: C4_9  and  O4_4 
REMARK    5  A    between atoms: C8_13  and  C9_14 
ROOT
HETATM    1  O2  UNK     1      19.763  -0.834  31.729  1.00  0.00    -0.272 OA
HETATM    2  O5  UNK     1      20.723  -2.812  31.089  1.00  0.00    -0.260 OA
HETATM    3  C1  UNK     1      19.491   0.938  30.082  1.00  0.00     0.004 A 
HETATM    4  C2  UNK     1      19.336   0.465  31.383  1.00  0.00     0.125 A 
HETATM    5  C3  UNK     1      18.326   2.531  32.071  1.00  0.00     0.138 A 
HETATM    6  C4  UNK     1      18.759   1.244  32.383  1.00  0.00     0.137 A 
HETATM    7  C5  UNK     1      18.473   3.022  30.772  1.00  0.00     0.105 A 
HETATM    8  C6  UNK     1      19.054   2.229  29.778  1.00  0.00     0.054 A 
HETATM    9  C7  UNK     1      20.101   0.071  29.089  1.00  0.00     0.020 A 
HETATM   10  C10 UNK     1      20.504  -1.157  29.426  1.00  0.00     0.083 A 
HETATM   11  C12 UNK     1      20.351  -1.681  30.795  1.00  0.00     0.288 A 
ENDROOT
BRANCH   5  12
HETATM   12  O1  UNK     1      17.759   3.312  33.034  1.00  0.00    -0.342 OA
BRANCH  12  13
HETATM   13  C8  UNK     1      18.638   4.131  33.802  1.00  0.00     0.203 C 
BRANCH  13  14
HETATM   14  C9  UNK     1      18.235   5.565  33.662  1.00  0.00     0.002 C 
HETATM   15  C11 UNK     1      19.006   6.617  33.330  1.00  0.00    -0.089 C 
HETATM   16  C14 UNK     1      20.475   6.558  33.019  1.00  0.00     0.042 C 
HETATM   17  C13 UNK     1      18.412   7.999  33.245  1.00  0.00     0.042 C 
ENDBRANCH  13  14
ENDBRANCH  12  13
ENDBRANCH   5  12
BRANCH   7  18
HETATM   18  O3  UNK     1      18.052   4.280  30.458  1.00  0.00    -0.353 OA
HETATM   19  C15 UNK     1      19.018   5.165  29.896  1.00  0.00     0.210 C 
ENDBRANCH   7  18
BRANCH   6  20
HETATM   20  O4  UNK     1      18.619   0.758  33.647  1.00  0.00    -0.356 OA
HETATM   21  H7  UNK     1      18.047   1.365  34.147  1.00  0.00     0.218 HD
ENDBRANCH   6  20
TORSDOF 5
ENDMDL
MODEL 2
REMARK VINA RESULT:      -7.2      1.670      2.173
REMARK  5 active torsions:
REMARK  status: ('A' for Active; 'I' for Inactive)
REMARK    1  A    between atoms: C3_8  and  O1_1 
REMARK    2  A    between atoms: C8_13  and  O1_1 
REMARK    3  A    between atoms: C5_10  and  O3_3 
REMARK    4  A    between atoms: C4_9  and  O4_4 
REMARK    5  A    between atoms: C8_13  and  C9_14 
ROOT
HETATM    1  O2  UNK     1      19.515  -1.295  33.634  1.00  0.00    -0.272 OA
HETATM    2  O5  UNK     1      20.413  -3.282  34.333  1.00  0.00    -0.260 OA
HETATM    3  C1  UNK     1      19.901  -0.561  31.346  1.00  0.00     0.004 A 
HETATM    4  C2  UNK     1      19.337  -0.351  32.602  1.00  0.00     0.125 A 
HETATM    5  C3  UNK     1      18.386   1.733  31.885  1.00  0.00     0.138 A 
HETATM    6  C4  UNK     1      18.581   0.784  32.886  1.00  0.00     0.137 A 
HETATM    7  C5  UNK     1      18.945   1.540  30.620  1.00  0.00     0.105 A 
HETATM    8  C6  UNK     1      19.701   0.396  30.348  1.00  0.00     0.054 A 
HETATM    9  C7  UNK     1      20.678  -1.768  31.119  1.00  0.00     0.020 A 
HETATM   10  C10 UNK     1      20.843  -2.655  32.103  1.00  0.00     0.083 A 
HETATM   11  C12 UNK     1      20.256  -2.457  33.441  1.00  0.00     0.288 A 
ENDROOT
BRANCH   5  12
HETATM   12  O1  UNK     1      17.651   2.853  32.140  1.00  0.00    -0.342 OA
BRANCH  12  13
HETATM   13  C8  UNK     1      18.343   3.966  32.701  1.00  0.00     0.203 C 
BRANCH  13  14
HETATM   14  C9  UNK     1      17.674   5.235  32.274  1.00  0.00     0.002 C 
HETATM   15  C11 UNK     1      18.105   6.139  31.374  1.00  0.00    -0.089 C 
HETATM   16  C14 UNK     1      19.382   6.048  30.588  1.00  0.00     0.042 C 
HETATM   17  C13 UNK     1      17.286   7.370  31.081  1.00  0.00     0.042 C 
ENDBRANCH  13  14
ENDBRANCH  12  13
ENDBRANCH   5  12
BRANCH   7  18
HETATM   18  O3  UNK     1      18.759   2.464  29.635  1.00  0.00    -0.353 OA
HETATM   19  C15 UNK     1      17.901   2.097  28.557  1.00  0.00     0.210 C 
ENDBRANCH   7  18
BRANCH   6  20
HETATM   20  O4  UNK     1      18.041   0.965  34.121  1.00  0.00    -0.356 OA
HETATM   21  H7  UNK     1      17.151   1.344  34.014  1.00  0.00     0.218 HD
ENDBRANCH   6  20
TORSDOF 5
ENDMDL
MODEL 3
REMARK VINA RESULT:      -7.2      2.384      3.548
REMARK  5 active torsions:
REMARK  status: ('A' for Active; 'I' for Inactive)
REMARK    1  A    between atoms: C3_8  and  O1_1 
REMARK    2  A    between atoms: C8_13  and  O1_1 
REMARK    3  A    between atoms: C5_10  and  O3_3 
REMARK    4  A    between atoms: C4_9  and  O4_4 
REMARK    5  A    between atoms: C8_13  and  C9_14 
ROOT
HETATM    1  O2  UNK     1      19.875  -1.542  31.344  1.00  0.00    -0.272 OA
HETATM    2  O5  UNK     1      20.994  -3.091  30.081  1.00  0.00    -0.260 OA
HETATM    3  C1  UNK     1      19.464   0.669  30.413  1.00  0.00     0.004 A 
HETATM    4  C2  UNK     1      19.345  -0.241  31.460  1.00  0.00     0.125 A 
HETATM    5  C3  UNK     1      18.168   1.369  32.796  1.00  0.00     0.138 A 
HETATM    6  C4  UNK     1      18.703   0.091  32.651  1.00  0.00     0.137 A 
HETATM    7  C5  UNK     1      18.278   2.296  31.756  1.00  0.00     0.105 A 
HETATM    8  C6  UNK     1      18.925   1.948  30.566  1.00  0.00     0.054 A 
HETATM    9  C7  UNK     1      20.146   0.255  29.199  1.00  0.00     0.020 A 
HETATM   10  C10 UNK     1      20.646  -0.979  29.097  1.00  0.00     0.083 A 
HETATM   11  C12 UNK     1      20.532  -1.961  30.191  1.00  0.00     0.288 A 
ENDROOT
BRANCH   5  12
HETATM   12  O1  UNK     1      17.536   1.718  33.953  1.00  0.00    -0.342 OA
BRANCH  12  13
HETATM   13  C8  UNK     1      18.337   2.311  34.973  1.00  0.00     0.203 C 
BRANCH  13  14
HETATM   14  C9  UNK     1      18.518   1.336  36.094  1.00  0.00     0.002 C 
HETATM   15  C11 UNK     1      17.570   0.764  36.860  1.00  0.00    -0.089 C 
HETATM   16  C14 UNK     1      16.091   0.993  36.733  1.00  0.00     0.042 C 
HETATM   17  C13 UNK     1      17.955  -0.197  37.955  1.00  0.00     0.042 C 
ENDBRANCH  13  14
ENDBRANCH  12  13
ENDBRANCH   5  12
BRANCH   7  18
HETATM   18  O3  UNK     1      17.757   3.548  31.889  1.00  0.00    -0.353 OA
HETATM   19  C15 UNK     1      18.633   4.644  31.638  1.00  0.00     0.210 C 
ENDBRANCH   7  18
BRANCH   6  20
HETATM   20  O4  UNK     1      18.600  -0.816  33.660  1.00  0.00    -0.356 OA
HETATM   21  H7  UNK     1      19.497  -1.058  33.948  1.00  0.00     0.218 HD
ENDBRANCH   6  20
TORSDOF 5
ENDMDL
MODEL 4
REMARK VINA RESULT:      -7.1      1.554      2.786
REMARK  5 active torsions:
REMARK  status: ('A' for Active; 'I' for Inactive)
REMARK    1  A    between atoms: C3_8  and  O1_1 
REMARK    2  A    between atoms: C8_13  and  O1_1 
REMARK    3  A    between atoms: C5_10  and  O3_3 
REMARK    4  A    between atoms: C4_9  and  O4_4 
REMARK    5  A    between atoms: C8_13  and  C9_14 
ROOT
HETATM    1  O2  UNK     1      19.931   0.715  29.514  1.00  0.00    -0.272 OA
HETATM    2  O5  UNK     1      21.011  -0.857  28.247  1.00  0.00    -0.260 OA
HETATM    3  C1  UNK     1      19.255   0.147  31.783  1.00  0.00     0.004 A 
HETATM    4  C2  UNK     1      19.322   1.065  30.737  1.00  0.00     0.125 A 
HETATM    5  C3  UNK     1      18.194   2.726  32.052  1.00  0.00     0.138 A 
HETATM    6  C4  UNK     1      18.800   2.351  30.856  1.00  0.00     0.137 A 
HETATM    7  C5  UNK     1      18.117   1.818  33.111  1.00  0.00     0.105 A 
HETATM    8  C6  UNK     1      18.646   0.531  32.979  1.00  0.00     0.054 A 
HETATM    9  C7  UNK     1      19.822  -1.177  31.590  1.00  0.00     0.020 A 
HETATM   10  C10 UNK     1      20.395  -1.500  30.428  1.00  0.00     0.083 A 
HETATM   11  C12 UNK     1      20.479  -0.547  29.307  1.00  0.00     0.288 A 
ENDROOT
BRANCH   5  12
HETATM   12  O1  UNK     1      17.674   3.978  32.191  1.00  0.00    -0.342 OA
BRANCH  12  13
HETATM   13  C8  UNK     1      18.538   4.982  32.721  1.00  0.00     0.203 C 
BRANCH  13  14
HETATM   14  C9  UNK     1      17.761   5.880  33.630  1.00  0.00     0.002 C 
HETATM   15  C11 UNK     1      18.158   7.036  34.195  1.00  0.00    -0.089 C 
HETATM   16  C14 UNK     1      19.503   7.679  34.014  1.00  0.00     0.042 C 
HETATM   17  C13 UNK     1      17.224   7.802  35.096  1.00  0.00     0.042 C 
ENDBRANCH  13  14
ENDBRANCH  12  13
ENDBRANCH   5  12
BRANCH   7  18
HETATM   18  O3  UNK     1      17.525   2.177  34.286  1.00  0.00    -0.353 OA
HETATM   19  C15 UNK     1      18.288   1.994  35.477  1.00  0.00     0.210 C 
ENDBRANCH   7  18
BRANCH   6  20
HETATM   20  O4  UNK     1      18.878   3.229  29.819  1.00  0.00    -0.356 OA
HETATM   21  H7  UNK     1      18.474   2.816  29.036  1.00  0.00     0.218 HD
ENDBRANCH   6  20
TORSDOF 5
ENDMDL
MODEL 5
REMARK VINA RESULT:      -7.1     22.301     24.430
REMARK  5 active torsions:
REMARK  status: ('A' for Active; 'I' for Inactive)
REMARK    1  A    between atoms: C3_8  and  O1_1 
REMARK    2  A    between atoms: C8_13  and  O1_1 
REMARK    3  A    between atoms: C5_10  and  O3_3 
REMARK    4  A    between atoms: C4_9  and  O4_4 
REMARK    5  A    between atoms: C8_13  and  C9_14 
ROOT
HETATM    1  O2  UNK     1       9.347   4.977   8.912  1.00  0.00    -0.272 OA
HETATM    2  O5  UNK     1       7.077   4.847   9.186  1.00  0.00    -0.260 OA
HETATM    3  C1  UNK     1      10.373   7.155   8.552  1.00  0.00     0.004 A 
HETATM    4  C2  UNK     1      10.489   5.774   8.693  1.00  0.00     0.125 A 
HETATM    5  C3  UNK     1      12.870   5.893   8.410  1.00  0.00     0.138 A 
HETATM    6  C4  UNK     1      11.723   5.132   8.625  1.00  0.00     0.137 A 
HETATM    7  C5  UNK     1      12.773   7.279   8.266  1.00  0.00     0.105 A 
HETATM    8  C6  UNK     1      11.527   7.911   8.337  1.00  0.00     0.054 A 
HETATM    9  C7  UNK     1       9.054   7.759   8.635  1.00  0.00     0.020 A 
HETATM   10  C10 UNK     1       7.978   6.997   8.842  1.00  0.00     0.083 A 
HETATM   11  C12 UNK     1       8.074   5.533   8.994  1.00  0.00     0.288 A 
ENDROOT
BRANCH   5  12
HETATM   12  O1  UNK     1      14.089   5.286   8.339  1.00  0.00    -0.342 OA
BRANCH  12  13
HETATM   13  C8  UNK     1      14.757   5.031   9.572  1.00  0.00     0.203 C 
BRANCH  13  14
HETATM   14  C9  UNK     1      16.056   5.774   9.598  1.00  0.00     0.002 C 
HETATM   15  C11 UNK     1      16.374   6.867  10.316  1.00  0.00    -0.089 C 
HETATM   16  C14 UNK     1      15.460   7.580  11.271  1.00  0.00     0.042 C 
HETATM   17  C13 UNK     1      17.746   7.480  10.201  1.00  0.00     0.042 C 
ENDBRANCH  13  14
ENDBRANCH  12  13
ENDBRANCH   5  12
BRANCH   7  18
HETATM   18  O3  UNK     1      13.890   8.031   8.057  1.00  0.00    -0.353 OA
HETATM   19  C15 UNK     1      13.938   9.309   8.687  1.00  0.00     0.210 C 
ENDBRANCH   7  18
BRANCH   6  20
HETATM   20  O4  UNK     1      11.810   3.781   8.765  1.00  0.00    -0.356 OA
HETATM   21  H7  UNK     1      11.986   3.392   7.890  1.00  0.00     0.218 HD
ENDBRANCH   6  20
TORSDOF 5
ENDMDL
MODEL 6
REMARK VINA RESULT:      -6.9     22.213     24.734
REMARK  5 active torsions:
REMARK  status: ('A' for Active; 'I' for Inactive)
REMARK    1  A    between atoms: C3_8  and  O1_1 
REMARK    2  A    between atoms: C8_13  and  O1_1 
REMARK    3  A    between atoms: C5_10  and  O3_3 
REMARK    4  A    between atoms: C4_9  and  O4_4 
REMARK    5  A    between atoms: C8_13  and  C9_14 
ROOT
HETATM    1  O2  UNK     1      14.742  10.617   8.535  1.00  0.00    -0.272 OA
HETATM    2  O5  UNK     1      15.874  12.516   7.940  1.00  0.00    -0.260 OA
HETATM    3  C1  UNK     1      15.967   8.783   9.567  1.00  0.00     0.004 A 
HETATM    4  C2  UNK     1      14.772   9.324   9.097  1.00  0.00     0.125 A 
HETATM    5  C3  UNK     1      13.570   7.341   9.717  1.00  0.00     0.138 A 
HETATM    6  C4  UNK     1      13.572   8.620   9.166  1.00  0.00     0.137 A 
HETATM    7  C5  UNK     1      14.758   6.782  10.193  1.00  0.00     0.105 A 
HETATM    8  C6  UNK     1      15.956   7.500  10.119  1.00  0.00     0.054 A 
HETATM    9  C7  UNK     1      17.181   9.574   9.465  1.00  0.00     0.020 A 
HETATM   10  C10 UNK     1      17.145  10.797   8.930  1.00  0.00     0.083 A 
HETATM   11  C12 UNK     1      15.893  11.391   8.426  1.00  0.00     0.288 A 
ENDROOT
BRANCH   5  12
HETATM   12  O1  UNK     1      12.407   6.632   9.793  1.00  0.00    -0.342 OA
BRANCH  12  13
HETATM   13  C8  UNK     1      12.116   5.750   8.711  1.00  0.00     0.203 C 
BRANCH  13  14
HETATM   14  C9  UNK     1      10.671   5.873   8.342  1.00  0.00     0.002 C 
HETATM   15  C11 UNK     1      10.143   6.345   7.198  1.00  0.00    -0.089 C 
HETATM   16  C14 UNK     1      10.925   6.853   6.020  1.00  0.00     0.042 C 
HETATM   17  C13 UNK     1       8.648   6.394   7.014  1.00  0.00     0.042 C 
ENDBRANCH  13  14
ENDBRANCH  12  13
ENDBRANCH   5  12
BRANCH   7  18
HETATM   18  O3  UNK     1      14.765   5.531  10.734  1.00  0.00    -0.353 OA
HETATM   19  C15 UNK     1      15.331   4.487   9.946  1.00  0.00     0.210 C 
ENDBRANCH   7  18
BRANCH   6  20
HETATM   20  O4  UNK     1      12.418   9.171   8.700  1.00  0.00    -0.356 OA
HETATM   21  H7  UNK     1      11.745   9.110   9.400  1.00  0.00     0.218 HD
ENDBRANCH   6  20
TORSDOF 5
ENDMDL
MODEL 7
REMARK VINA RESULT:      -6.8      5.644      9.099
REMARK  5 active torsions:
REMARK  status: ('A' for Active; 'I' for Inactive)
REMARK    1  A    between atoms: C3_8  and  O1_1 
REMARK    2  A    between atoms: C8_13  and  O1_1 
REMARK    3  A    between atoms: C5_10  and  O3_3 
REMARK    4  A    between atoms: C4_9  and  O4_4 
REMARK    5  A    between atoms: C8_13  and  C9_14 
ROOT
HETATM    1  O2  UNK     1      17.798  -0.198  37.183  1.00  0.00    -0.272 OA
HETATM    2  O5  UNK     1      16.392   1.562  37.589  1.00  0.00    -0.260 OA
HETATM    3  C1  UNK     1      18.580  -0.589  34.911  1.00  0.00     0.004 A 
HETATM    4  C2  UNK     1      18.556  -0.944  36.257  1.00  0.00     0.125 A 
HETATM    5  C3  UNK     1      20.032  -2.793  35.850  1.00  0.00     0.138 A 
HETATM    6  C4  UNK     1      19.273  -2.037  36.740  1.00  0.00     0.137 A 
HETATM    7  C5  UNK     1      20.068  -2.452  34.496  1.00  0.00     0.105 A 
HETATM    8  C6  UNK     1      19.344  -1.352  34.025  1.00  0.00     0.054 A 
HETATM    9  C7  UNK     1      17.809   0.564  34.477  1.00  0.00     0.020 A 
HETATM   10  C10 UNK     1      17.092   1.264  35.359  1.00  0.00     0.083 A 
HETATM   11  C12 UNK     1      17.051   0.908  36.790  1.00  0.00     0.288 A 
ENDROOT
BRANCH   5  12
HETATM   12  O1  UNK     1      20.741  -3.867  36.298  1.00  0.00    -0.342 OA
BRANCH  12  13
HETATM   13  C8  UNK     1      20.049  -5.112  36.375  1.00  0.00     0.203 C 
BRANCH  13  14
HETATM   14  C9  UNK     1      20.358  -5.775  37.680  1.00  0.00     0.002 C 
HETATM   15  C11 UNK     1      19.714  -6.803  38.263  1.00  0.00    -0.089 C 
HETATM   16  C14 UNK     1      18.519  -7.517  37.698  1.00  0.00     0.042 C 
HETATM   17  C13 UNK     1      20.176  -7.333  39.595  1.00  0.00     0.042 C 
ENDBRANCH  13  14
ENDBRANCH  12  13
ENDBRANCH   5  12
BRANCH   7  18
HETATM   18  O3  UNK     1      20.809  -3.186  33.618  1.00  0.00    -0.353 OA
HETATM   19  C15 UNK     1      20.953  -2.665  32.298  1.00  0.00     0.210 C 
ENDBRANCH   7  18
BRANCH   6  20
HETATM   20  O4  UNK     1      19.233  -2.364  38.060  1.00  0.00    -0.356 OA
HETATM   21  H7  UNK     1      20.100  -2.728  38.312  1.00  0.00     0.218 HD
ENDBRANCH   6  20
TORSDOF 5
ENDMDL
MODEL 8
REMARK VINA RESULT:      -6.8     22.356     24.359
REMARK  5 active torsions:
REMARK  status: ('A' for Active; 'I' for Inactive)
REMARK    1  A    between atoms: C3_8  and  O1_1 
REMARK    2  A    between atoms: C8_13  and  O1_1 
REMARK    3  A    between atoms: C5_10  and  O3_3 
REMARK    4  A    between atoms: C4_9  and  O4_4 
REMARK    5  A    between atoms: C8_13  and  C9_14 
ROOT
HETATM    1  O2  UNK     1      16.049   6.900  10.196  1.00  0.00    -0.272 OA
HETATM    2  O5  UNK     1      18.293   7.278  10.448  1.00  0.00    -0.260 OA
HETATM    3  C1  UNK     1      14.617   8.724   9.455  1.00  0.00     0.004 A 
HETATM    4  C2  UNK     1      14.775   7.399   9.853  1.00  0.00     0.125 A 
HETATM    5  C3  UNK     1      12.425   6.985   9.591  1.00  0.00     0.138 A 
HETATM    6  C4  UNK     1      13.696   6.521   9.926  1.00  0.00     0.137 A 
HETATM    7  C5  UNK     1      12.248   8.311   9.191  1.00  0.00     0.105 A 
HETATM    8  C6  UNK     1      13.340   9.181   9.122  1.00  0.00     0.054 A 
HETATM    9  C7  UNK     1      15.787   9.584   9.401  1.00  0.00     0.020 A 
HETATM   10  C10 UNK     1      16.989   9.104   9.729  1.00  0.00     0.083 A 
HETATM   11  C12 UNK     1      17.183   7.705  10.153  1.00  0.00     0.288 A 
ENDROOT
BRANCH   5  12
HETATM   12  O1  UNK     1      11.353   6.144   9.656  1.00  0.00    -0.342 OA
BRANCH  12  13
HETATM   13  C8  UNK     1      11.306   5.083   8.705  1.00  0.00     0.203 C 
BRANCH  13  14
HETATM   14  C9  UNK     1      11.021   5.643   7.347  1.00  0.00     0.002 C 
HETATM   15  C11 UNK     1       9.841   6.061   6.851  1.00  0.00    -0.089 C 
HETATM   16  C14 UNK     1       8.533   6.055   7.589  1.00  0.00     0.042 C 
HETATM   17  C13 UNK     1       9.754   6.593   5.444  1.00  0.00     0.042 C 
ENDBRANCH  13  14
ENDBRANCH  12  13
ENDBRANCH   5  12
BRANCH   7  18
HETATM   18  O3  UNK     1      11.008   8.772   8.861  1.00  0.00    -0.353 OA
HETATM   19  C15 UNK     1      10.315   9.530   9.851  1.00  0.00     0.210 C 
ENDBRANCH   7  18
BRANCH   6  20
HETATM   20  O4  UNK     1      13.877   5.231  10.318  1.00  0.00    -0.356 OA
HETATM   21  H7  UNK     1      14.091   4.699   9.531  1.00  0.00     0.218 HD
ENDBRANCH   6  20
TORSDOF 5
ENDMDL
MODEL 9
REMARK VINA RESULT:      -6.8      2.848      6.171
REMARK  5 active torsions:
REMARK  status: ('A' for Active; 'I' for Inactive)
REMARK    1  A    between atoms: C3_8  and  O1_1 
REMARK    2  A    between atoms: C8_13  and  O1_1 
REMARK    3  A    between atoms: C5_10  and  O3_3 
REMARK    4  A    between atoms: C4_9  and  O4_4 
REMARK    5  A    between atoms: C8_13  and  C9_14 
ROOT
HETATM    1  O2  UNK     1      18.207  -0.918  36.114  1.00  0.00    -0.272 OA
HETATM    2  O5  UNK     1      18.076  -1.705  38.261  1.00  0.00    -0.260 OA
HETATM    3  C1  UNK     1      17.977   1.472  35.713  1.00  0.00     0.004 A 
HETATM    4  C2  UNK     1      18.173   0.180  35.231  1.00  0.00     0.125 A 
HETATM    5  C3  UNK     1      18.315   0.988  32.975  1.00  0.00     0.138 A 
HETATM    6  C4  UNK     1      18.343  -0.077  33.872  1.00  0.00     0.137 A 
HETATM    7  C5  UNK     1      18.119   2.290  33.440  1.00  0.00     0.105 A 
HETATM    8  C6  UNK     1      17.950   2.534  34.807  1.00  0.00     0.054 A 
HETATM    9  C7  UNK     1      17.807   1.667  37.143  1.00  0.00     0.020 A 
HETATM   10  C10 UNK     1      17.839   0.622  37.973  1.00  0.00     0.083 A 
HETATM   11  C12 UNK     1      18.046  -0.755  37.487  1.00  0.00     0.288 A 
ENDROOT
BRANCH   5  12
HETATM   12  O1  UNK     1      18.478   0.760  31.640  1.00  0.00    -0.342 OA
BRANCH  12  13
HETATM   13  C8  UNK     1      19.805   0.856  31.126  1.00  0.00     0.203 C 
BRANCH  13  14
HETATM   14  C9  UNK     1      20.342  -0.517  30.874  1.00  0.00     0.002 C 
HETATM   15  C11 UNK     1      20.330  -1.217  29.724  1.00  0.00    -0.089 C 
HETATM   16  C14 UNK     1      19.759  -0.740  28.419  1.00  0.00     0.042 C 
HETATM   17  C13 UNK     1      20.921  -2.602  29.670  1.00  0.00     0.042 C 
ENDBRANCH  13  14
ENDBRANCH  12  13
ENDBRANCH   5  12
BRANCH   7  18
HETATM   18  O3  UNK     1      18.091   3.338  32.569  1.00  0.00    -0.353 OA
HETATM   19  C15 UNK     1      18.271   4.641  33.118  1.00  0.00     0.210 C 
ENDBRANCH   7  18
BRANCH   6  20
HETATM   20  O4  UNK     1      18.533  -1.349  33.426  1.00  0.00    -0.356 OA
HETATM   21  H7  UNK     1      18.716  -1.314  32.471  1.00  0.00     0.218 HD
ENDBRANCH   6  20
TORSDOF 5
ENDMDL
MODEL 10
REMARK VINA RESULT:      -6.8      2.849      6.294
REMARK  5 active torsions:
REMARK  status: ('A' for Active; 'I' for Inactive)
REMARK    1  A    between atoms: C3_8  and  O1_1 
REMARK    2  A    between atoms: C8_13  and  O1_1 
REMARK    3  A    between atoms: C5_10  and  O3_3 
REMARK    4  A    between atoms: C4_9  and  O4_4 
REMARK    5  A    between atoms: C8_13  and  C9_14 
ROOT
HETATM    1  O2  UNK     1      18.190   5.773  34.200  1.00  0.00    -0.272 OA
HETATM    2  O5  UNK     1      18.017   8.045  34.431  1.00  0.00    -0.260 OA
HETATM    3  C1  UNK     1      18.185   4.806  31.966  1.00  0.00     0.004 A 
HETATM    4  C2  UNK     1      18.248   4.651  33.349  1.00  0.00     0.125 A 
HETATM    5  C3  UNK     1      18.432   2.268  33.126  1.00  0.00     0.138 A 
HETATM    6  C4  UNK     1      18.371   3.395  33.941  1.00  0.00     0.137 A 
HETATM    7  C5  UNK     1      18.370   2.404  31.737  1.00  0.00     0.105 A 
HETATM    8  C6  UNK     1      18.247   3.670  31.156  1.00  0.00     0.054 A 
HETATM    9  C7  UNK     1      18.057   6.145  31.417  1.00  0.00     0.020 A 
HETATM   10  C10 UNK     1      18.002   7.203  32.230  1.00  0.00     0.083 A 
HETATM   11  C12 UNK     1      18.067   7.064  33.697  1.00  0.00     0.288 A 
ENDROOT
BRANCH   5  12
HETATM   12  O1  UNK     1      18.552   1.029  33.682  1.00  0.00    -0.342 OA
BRANCH  12  13
HETATM   13  C8  UNK     1      17.382   0.473  34.279  1.00  0.00     0.203 C 
BRANCH  13  14
HETATM   14  C9  UNK     1      17.779  -0.461  35.379  1.00  0.00     0.002 C 
HETATM   15  C11 UNK     1      17.585  -0.316  36.703  1.00  0.00    -0.089 C 
HETATM   16  C14 UNK     1      16.903   0.849  37.362  1.00  0.00     0.042 C 
HETATM   17  C13 UNK     1      18.067  -1.373  37.662  1.00  0.00     0.042 C 
ENDBRANCH  13  14
ENDBRANCH  12  13
ENDBRANCH   5  12
BRANCH   7  18
HETATM   18  O3  UNK     1      18.430   1.306  30.932  1.00  0.00    -0.353 OA
HETATM   19  C15 UNK     1      18.552   1.536  29.530  1.00  0.00     0.210 C 
ENDBRANCH   7  18
BRANCH   6  20
HETATM   20  O4  UNK     1      18.431   3.270  35.294  1.00  0.00    -0.356 OA
HETATM   21  H7  UNK     1      18.921   2.457  35.506  1.00  0.00     0.218 HD
ENDBRANCH   6  20
TORSDOF 5
ENDMDL
