MODEL 1
REMARK VINA RESULT:      -8.4      0.000      0.000
REMARK  4 active torsions:
REMARK  status: ('A' for Active; 'I' for Inactive)
REMARK    1  A    between atoms: C5_10  and  O2_2 
REMARK    2  A    between atoms: C9_14  and  O4_4 
REMARK    3  A    between atoms: C13_18  and  O5_5 
REMARK    4  A    between atoms: C2_7  and  C4_9 
ROOT
HETATM    1  O1  UNK     1      18.365   0.481  32.811  1.00  0.00    -0.306 OA
HETATM    2  O3  UNK     1      20.628  -2.907  32.741  1.00  0.00    -0.284 OA
HETATM    3  C1  UNK     1      19.870  -0.987  31.600  1.00  0.00     0.053 A 
HETATM    4  C2  UNK     1      18.447  -0.356  33.912  1.00  0.00     0.123 A 
HETATM    5  C3  UNK     1      19.076   0.154  31.686  1.00  0.00     0.090 A 
HETATM    6  C5  UNK     1      19.168  -1.492  33.955  1.00  0.00     0.152 A 
HETATM    7  C6  UNK     1      19.951  -1.888  32.760  1.00  0.00     0.220 A 
HETATM    8  C7  UNK     1      20.573  -1.270  30.425  1.00  0.00     0.055 A 
HETATM    9  C8  UNK     1      18.980   1.021  30.598  1.00  0.00     0.041 A 
HETATM   10  C9  UNK     1      20.476  -0.401  29.338  1.00  0.00     0.066 A 
HETATM   11  C12 UNK     1      19.681   0.743  29.424  1.00  0.00     0.039 A 
ENDROOT
BRANCH   4  12
HETATM   12  C4  UNK     1      17.635   0.110  35.051  1.00  0.00     0.003 A 
HETATM   13  C10 UNK     1      18.257   0.628  36.187  1.00  0.00     0.051 A 
HETATM   14  C13 UNK     1      17.488   1.069  37.264  1.00  0.00     0.066 A 
HETATM   15  C15 UNK     1      16.097   0.991  37.206  1.00  0.00     0.036 A 
HETATM   16  C14 UNK     1      15.474   0.472  36.070  1.00  0.00     0.004 A 
HETATM   17  C11 UNK     1      16.243   0.031  34.993  1.00  0.00     0.014 A 
BRANCH  14  18
HETATM   18  O5  UNK     1      18.095   1.575  38.372  1.00  0.00    -0.361 OA
HETATM   19  H10 UNK     1      18.785   2.202  38.095  1.00  0.00     0.217 HD
ENDBRANCH  14  18
ENDBRANCH   4  12
BRANCH   6  20
HETATM   20  O2  UNK     1      19.203  -2.320  35.055  1.00  0.00    -0.355 OA
HETATM   21  H8  UNK     1      19.773  -3.085  34.875  1.00  0.00     0.218 HD
ENDBRANCH   6  20
BRANCH  10  22
HETATM   22  O4  UNK     1      21.158  -0.669  28.191  1.00  0.00    -0.361 OA
HETATM   23  H9  UNK     1      20.719  -1.402  27.727  1.00  0.00     0.217 HD
ENDBRANCH  10  22
TORSDOF 4
ENDMDL
MODEL 2
REMARK VINA RESULT:      -8.3     24.795     26.782
REMARK  4 active torsions:
REMARK  status: ('A' for Active; 'I' for Inactive)
REMARK    1  A    between atoms: C5_10  and  O2_2 
REMARK    2  A    between atoms: C9_14  and  O4_4 
REMARK    3  A    between atoms: C13_18  and  O5_5 
REMARK    4  A    between atoms: C2_7  and  C4_9 
ROOT
HETATM    1  O1  UNK     1      12.957   7.540   8.370  1.00  0.00    -0.306 OA
HETATM    2  O3  UNK     1      14.921   4.175   9.562  1.00  0.00    -0.284 OA
HETATM    3  C1  UNK     1      14.936   6.523   9.337  1.00  0.00     0.053 A 
HETATM    4  C2  UNK     1      12.378   6.287   8.256  1.00  0.00     0.123 A 
HETATM    5  C3  UNK     1      14.214   7.634   8.909  1.00  0.00     0.090 A 
HETATM    6  C5  UNK     1      12.971   5.136   8.622  1.00  0.00     0.152 A 
HETATM    7  C6  UNK     1      14.333   5.188   9.207  1.00  0.00     0.220 A 
HETATM    8  C7  UNK     1      16.215   6.680   9.879  1.00  0.00     0.055 A 
HETATM    9  C8  UNK     1      14.766   8.911   9.019  1.00  0.00     0.041 A 
HETATM   10  C9  UNK     1      16.765   7.958   9.988  1.00  0.00     0.066 A 
HETATM   11  C12 UNK     1      16.042   9.071   9.559  1.00  0.00     0.039 A 
ENDROOT
BRANCH   4  12
HETATM   12  C4  UNK     1      11.030   6.328   7.661  1.00  0.00     0.003 A 
HETATM   13  C10 UNK     1       9.904   6.352   8.483  1.00  0.00     0.051 A 
HETATM   14  C13 UNK     1       8.628   6.391   7.920  1.00  0.00     0.066 A 
HETATM   15  C15 UNK     1       8.478   6.405   6.534  1.00  0.00     0.036 A 
HETATM   16  C14 UNK     1       9.604   6.382   5.710  1.00  0.00     0.004 A 
HETATM   17  C11 UNK     1      10.880   6.343   6.274  1.00  0.00     0.014 A 
BRANCH  14  18
HETATM   18  O5  UNK     1       7.529   6.414   8.723  1.00  0.00    -0.361 OA
HETATM   19  H10 UNK     1       6.842   5.846   8.334  1.00  0.00     0.217 HD
ENDBRANCH  14  18
ENDBRANCH   4  12
BRANCH   6  20
HETATM   20  O2  UNK     1      12.381   3.901   8.465  1.00  0.00    -0.355 OA
HETATM   21  H8  UNK     1      11.688   3.780   9.133  1.00  0.00     0.218 HD
ENDBRANCH   6  20
BRANCH  10  22
HETATM   22  O4  UNK     1      18.010   8.118  10.515  1.00  0.00    -0.361 OA
HETATM   23  H9  UNK     1      17.929   8.323  11.462  1.00  0.00     0.217 HD
ENDBRANCH  10  22
TORSDOF 4
ENDMDL
MODEL 3
REMARK VINA RESULT:      -8.2      1.368      2.738
REMARK  4 active torsions:
REMARK  status: ('A' for Active; 'I' for Inactive)
REMARK    1  A    between atoms: C5_10  and  O2_2 
REMARK    2  A    between atoms: C9_14  and  O4_4 
REMARK    3  A    between atoms: C13_18  and  O5_5 
REMARK    4  A    between atoms: C2_7  and  C4_9 
ROOT
HETATM    1  O1  UNK     1      18.718  -0.132  32.985  1.00  0.00    -0.306 OA
HETATM    2  O3  UNK     1      18.880   3.093  30.500  1.00  0.00    -0.284 OA
HETATM    3  C1  UNK     1      19.370   0.812  30.847  1.00  0.00     0.053 A 
HETATM    4  C2  UNK     1      18.197   1.096  33.360  1.00  0.00     0.123 A 
HETATM    5  C3  UNK     1      19.285  -0.250  31.743  1.00  0.00     0.090 A 
HETATM    6  C5  UNK     1      18.223   2.202  32.594  1.00  0.00     0.152 A 
HETATM    7  C6  UNK     1      18.831   2.122  31.243  1.00  0.00     0.220 A 
HETATM    8  C7  UNK     1      19.960   0.632  29.593  1.00  0.00     0.055 A 
HETATM    9  C8  UNK     1      19.793  -1.502  31.392  1.00  0.00     0.041 A 
HETATM   10  C9  UNK     1      20.466  -0.620  29.244  1.00  0.00     0.066 A 
HETATM   11  C12 UNK     1      20.383  -1.685  30.142  1.00  0.00     0.039 A 
ENDROOT
BRANCH   4  12
HETATM   12  C4  UNK     1      17.619   1.085  34.716  1.00  0.00     0.003 A 
HETATM   13  C10 UNK     1      18.322   1.649  35.780  1.00  0.00     0.051 A 
HETATM   14  C13 UNK     1      17.775   1.639  37.063  1.00  0.00     0.066 A 
HETATM   15  C15 UNK     1      16.523   1.064  37.282  1.00  0.00     0.036 A 
HETATM   16  C14 UNK     1      15.818   0.500  36.219  1.00  0.00     0.004 A 
HETATM   17  C11 UNK     1      16.366   0.510  34.936  1.00  0.00     0.014 A 
BRANCH  14  18
HETATM   18  O5  UNK     1      18.461   2.190  38.101  1.00  0.00    -0.361 OA
HETATM   19  H10 UNK     1      18.978   2.945  37.773  1.00  0.00     0.217 HD
ENDBRANCH  14  18
ENDBRANCH   4  12
BRANCH   6  20
HETATM   20  O2  UNK     1      17.725   3.417  33.009  1.00  0.00    -0.355 OA
HETATM   21  H8  UNK     1      18.199   3.714  33.802  1.00  0.00     0.218 HD
ENDBRANCH   6  20
BRANCH  10  22
HETATM   22  O4  UNK     1      21.043  -0.803  28.024  1.00  0.00    -0.361 OA
HETATM   23  H9  UNK     1      21.913  -0.369  28.018  1.00  0.00     0.217 HD
ENDBRANCH  10  22
TORSDOF 4
ENDMDL
MODEL 4
REMARK VINA RESULT:      -8.0      3.038      3.966
REMARK  4 active torsions:
REMARK  status: ('A' for Active; 'I' for Inactive)
REMARK    1  A    between atoms: C5_10  and  O2_2 
REMARK    2  A    between atoms: C9_14  and  O4_4 
REMARK    3  A    between atoms: C13_18  and  O5_5 
REMARK    4  A    between atoms: C2_7  and  C4_9 
ROOT
HETATM    1  O1  UNK     1      17.933   3.273  33.580  1.00  0.00    -0.306 OA
HETATM    2  O3  UNK     1      19.227   1.421  30.188  1.00  0.00    -0.284 OA
HETATM    3  C1  UNK     1      18.701   3.443  31.284  1.00  0.00     0.053 A 
HETATM    4  C2  UNK     1      18.074   1.896  33.517  1.00  0.00     0.123 A 
HETATM    5  C3  UNK     1      18.252   4.014  32.472  1.00  0.00     0.090 A 
HETATM    6  C5  UNK     1      18.488   1.220  32.429  1.00  0.00     0.152 A 
HETATM    7  C6  UNK     1      18.841   1.981  31.206  1.00  0.00     0.220 A 
HETATM    8  C7  UNK     1      19.011   4.250  30.186  1.00  0.00     0.055 A 
HETATM    9  C8  UNK     1      18.108   5.399  32.570  1.00  0.00     0.041 A 
HETATM   10  C9  UNK     1      18.867   5.634  30.287  1.00  0.00     0.066 A 
HETATM   11  C12 UNK     1      18.416   6.207  31.476  1.00  0.00     0.039 A 
ENDROOT
BRANCH   4  12
HETATM   12  C4  UNK     1      17.697   1.221  34.772  1.00  0.00     0.003 A 
HETATM   13  C10 UNK     1      18.117   1.740  35.997  1.00  0.00     0.051 A 
HETATM   14  C13 UNK     1      17.760   1.101  37.185  1.00  0.00     0.066 A 
HETATM   15  C15 UNK     1      16.985  -0.057  37.148  1.00  0.00     0.036 A 
HETATM   16  C14 UNK     1      16.565  -0.577  35.923  1.00  0.00     0.004 A 
HETATM   17  C11 UNK     1      16.921   0.062  34.736  1.00  0.00     0.014 A 
BRANCH  14  18
HETATM   18  O5  UNK     1      18.170   1.607  38.380  1.00  0.00    -0.361 OA
HETATM   19  H10 UNK     1      18.299   2.567  38.289  1.00  0.00     0.217 HD
ENDBRANCH  14  18
ENDBRANCH   4  12
BRANCH   6  20
HETATM   20  O2  UNK     1      18.586  -0.153  32.388  1.00  0.00    -0.355 OA
HETATM   21  H8  UNK     1      19.125  -0.468  33.131  1.00  0.00     0.218 HD
ENDBRANCH   6  20
BRANCH  10  22
HETATM   22  O4  UNK     1      19.167   6.427  29.221  1.00  0.00    -0.361 OA
HETATM   23  H9  UNK     1      19.466   7.294  29.547  1.00  0.00     0.217 HD
ENDBRANCH  10  22
TORSDOF 4
ENDMDL
MODEL 5
REMARK VINA RESULT:      -7.9     24.694     26.789
REMARK  4 active torsions:
REMARK  status: ('A' for Active; 'I' for Inactive)
REMARK    1  A    between atoms: C5_10  and  O2_2 
REMARK    2  A    between atoms: C9_14  and  O4_4 
REMARK    3  A    between atoms: C13_18  and  O5_5 
REMARK    4  A    between atoms: C2_7  and  C4_9 
ROOT
HETATM    1  O1  UNK     1      13.123   7.528   8.578  1.00  0.00    -0.306 OA
HETATM    2  O3  UNK     1      15.138   4.144   9.621  1.00  0.00    -0.284 OA
HETATM    3  C1  UNK     1      15.136   6.497   9.456  1.00  0.00     0.053 A 
HETATM    4  C2  UNK     1      12.545   6.275   8.450  1.00  0.00     0.123 A 
HETATM    5  C3  UNK     1      14.395   7.614   9.079  1.00  0.00     0.090 A 
HETATM    6  C5  UNK     1      13.155   5.118   8.768  1.00  0.00     0.152 A 
HETATM    7  C6  UNK     1      14.534   5.162   9.311  1.00  0.00     0.220 A 
HETATM    8  C7  UNK     1      16.431   6.646   9.960  1.00  0.00     0.055 A 
HETATM    9  C8  UNK     1      14.945   8.891   9.204  1.00  0.00     0.041 A 
HETATM   10  C9  UNK     1      16.978   7.923  10.085  1.00  0.00     0.066 A 
HETATM   11  C12 UNK     1      16.237   9.043   9.707  1.00  0.00     0.039 A 
ENDROOT
BRANCH   4  12
HETATM   12  C4  UNK     1      11.179   6.325   7.900  1.00  0.00     0.003 A 
HETATM   13  C10 UNK     1      10.983   6.425   6.522  1.00  0.00     0.051 A 
HETATM   14  C13 UNK     1       9.690   6.472   6.002  1.00  0.00     0.066 A 
HETATM   15  C15 UNK     1       8.591   6.420   6.859  1.00  0.00     0.036 A 
HETATM   16  C14 UNK     1       8.786   6.320   8.237  1.00  0.00     0.004 A 
HETATM   17  C11 UNK     1      10.079   6.273   8.757  1.00  0.00     0.014 A 
BRANCH  14  18
HETATM   18  O5  UNK     1       9.499   6.569   4.658  1.00  0.00    -0.361 OA
HETATM   19  H10 UNK     1      10.115   7.231   4.299  1.00  0.00     0.217 HD
ENDBRANCH  14  18
ENDBRANCH   4  12
BRANCH   6  20
HETATM   20  O2  UNK     1      12.565   3.885   8.598  1.00  0.00    -0.355 OA
HETATM   21  H8  UNK     1      12.868   3.276   9.291  1.00  0.00     0.218 HD
ENDBRANCH   6  20
BRANCH  10  22
HETATM   22  O4  UNK     1      18.239   8.077  10.576  1.00  0.00    -0.361 OA
HETATM   23  H9  UNK     1      18.648   7.200  10.677  1.00  0.00     0.217 HD
ENDBRANCH  10  22
TORSDOF 4
ENDMDL
MODEL 6
REMARK VINA RESULT:      -7.9     24.571     26.983
REMARK  4 active torsions:
REMARK  status: ('A' for Active; 'I' for Inactive)
REMARK    1  A    between atoms: C5_10  and  O2_2 
REMARK    2  A    between atoms: C9_14  and  O4_4 
REMARK    3  A    between atoms: C13_18  and  O5_5 
REMARK    4  A    between atoms: C2_7  and  C4_9 
ROOT
HETATM    1  O1  UNK     1      13.100   6.366   8.421  1.00  0.00    -0.306 OA
HETATM    2  O3  UNK     1      13.932  10.068   9.906  1.00  0.00    -0.284 OA
HETATM    3  C1  UNK     1      14.671   7.864   9.503  1.00  0.00     0.053 A 
HETATM    4  C2  UNK     1      12.171   7.392   8.365  1.00  0.00     0.123 A 
HETATM    5  C3  UNK     1      14.324   6.621   8.981  1.00  0.00     0.090 A 
HETATM    6  C5  UNK     1      12.377   8.634   8.841  1.00  0.00     0.152 A 
HETATM    7  C6  UNK     1      13.686   8.956   9.459  1.00  0.00     0.220 A 
HETATM    8  C7  UNK     1      15.936   8.066  10.063  1.00  0.00     0.055 A 
HETATM    9  C8  UNK     1      15.241   5.569   9.015  1.00  0.00     0.041 A 
HETATM   10  C9  UNK     1      16.851   7.013  10.095  1.00  0.00     0.066 A 
HETATM   11  C12 UNK     1      16.504   5.767   9.572  1.00  0.00     0.039 A 
ENDROOT
BRANCH   4  12
HETATM   12  C4  UNK     1      10.900   6.984   7.741  1.00  0.00     0.003 A 
HETATM   13  C10 UNK     1       9.778   6.741   8.534  1.00  0.00     0.051 A 
HETATM   14  C13 UNK     1       8.575   6.355   7.944  1.00  0.00     0.066 A 
HETATM   15  C15 UNK     1       8.493   6.210   6.559  1.00  0.00     0.036 A 
HETATM   16  C14 UNK     1       9.614   6.453   5.765  1.00  0.00     0.004 A 
HETATM   17  C11 UNK     1      10.817   6.839   6.356  1.00  0.00     0.014 A 
BRANCH  14  18
HETATM   18  O5  UNK     1       7.481   6.118   8.718  1.00  0.00    -0.361 OA
HETATM   19  H10 UNK     1       6.855   6.855   8.613  1.00  0.00     0.217 HD
ENDBRANCH  14  18
ENDBRANCH   4  12
BRANCH   6  20
HETATM   20  O2  UNK     1      11.420   9.624   8.799  1.00  0.00    -0.355 OA
HETATM   21  H8  UNK     1      11.128   9.763   7.884  1.00  0.00     0.218 HD
ENDBRANCH   6  20
BRANCH  10  22
HETATM   22  O4  UNK     1      18.085   7.202  10.638  1.00  0.00    -0.361 OA
HETATM   23  H9  UNK     1      18.208   6.572  11.369  1.00  0.00     0.217 HD
ENDBRANCH  10  22
TORSDOF 4
ENDMDL
MODEL 7
REMARK VINA RESULT:      -7.6      4.775      5.782
REMARK  4 active torsions:
REMARK  status: ('A' for Active; 'I' for Inactive)
REMARK    1  A    between atoms: C5_10  and  O2_2 
REMARK    2  A    between atoms: C9_14  and  O4_4 
REMARK    3  A    between atoms: C13_18  and  O5_5 
REMARK    4  A    between atoms: C2_7  and  C4_9 
ROOT
HETATM    1  O1  UNK     1      18.275   4.185  31.085  1.00  0.00    -0.306 OA
HETATM    2  O3  UNK     1      18.682   1.402  34.034  1.00  0.00    -0.284 OA
HETATM    3  C1  UNK     1      18.720   1.887  31.726  1.00  0.00     0.053 A 
HETATM    4  C2  UNK     1      18.138   4.523  32.421  1.00  0.00     0.123 A 
HETATM    5  C3  UNK     1      18.566   2.884  30.766  1.00  0.00     0.090 A 
HETATM    6  C5  UNK     1      18.252   3.655  33.444  1.00  0.00     0.152 A 
HETATM    7  C6  UNK     1      18.563   2.236  33.146  1.00  0.00     0.220 A 
HETATM    8  C7  UNK     1      19.017   0.577  31.340  1.00  0.00     0.055 A 
HETATM    9  C8  UNK     1      18.707   2.577  29.412  1.00  0.00     0.041 A 
HETATM   10  C9  UNK     1      19.158   0.273  29.986  1.00  0.00     0.066 A 
HETATM   11  C12 UNK     1      19.003   1.271  29.023  1.00  0.00     0.039 A 
ENDROOT
BRANCH   4  12
HETATM   12  C4  UNK     1      17.825   5.949  32.625  1.00  0.00     0.003 A 
HETATM   13  C10 UNK     1      16.926   6.595  31.777  1.00  0.00     0.051 A 
HETATM   14  C13 UNK     1      16.630   7.945  31.970  1.00  0.00     0.066 A 
HETATM   15  C15 UNK     1      17.235   8.649  33.010  1.00  0.00     0.036 A 
HETATM   16  C14 UNK     1      18.134   8.003  33.860  1.00  0.00     0.004 A 
HETATM   17  C11 UNK     1      18.429   6.654  33.667  1.00  0.00     0.014 A 
BRANCH  14  18
HETATM   18  O5  UNK     1      15.753   8.575  31.142  1.00  0.00    -0.361 OA
HETATM   19  H10 UNK     1      16.010   9.509  31.061  1.00  0.00     0.217 HD
ENDBRANCH  14  18
ENDBRANCH   4  12
BRANCH   6  20
HETATM   20  O2  UNK     1      18.077   4.017  34.761  1.00  0.00    -0.355 OA
HETATM   21  H8  UNK     1      17.639   3.299  35.246  1.00  0.00     0.218 HD
ENDBRANCH   6  20
BRANCH  10  22
HETATM   22  O4  UNK     1      19.447  -1.002  29.603  1.00  0.00    -0.361 OA
HETATM   23  H9  UNK     1      18.767  -1.305  28.977  1.00  0.00     0.217 HD
ENDBRANCH  10  22
TORSDOF 4
ENDMDL
MODEL 8
REMARK VINA RESULT:      -7.5      4.805      6.521
REMARK  4 active torsions:
REMARK  status: ('A' for Active; 'I' for Inactive)
REMARK    1  A    between atoms: C5_10  and  O2_2 
REMARK    2  A    between atoms: C9_14  and  O4_4 
REMARK    3  A    between atoms: C13_18  and  O5_5 
REMARK    4  A    between atoms: C2_7  and  C4_9 
ROOT
HETATM    1  O1  UNK     1      18.311   3.879  34.501  1.00  0.00    -0.306 OA
HETATM    2  O3  UNK     1      18.368   1.683  31.069  1.00  0.00    -0.284 OA
HETATM    3  C1  UNK     1      18.324   1.703  33.427  1.00  0.00     0.053 A 
HETATM    4  C2  UNK     1      18.321   4.485  33.256  1.00  0.00     0.123 A 
HETATM    5  C3  UNK     1      18.308   2.509  34.562  1.00  0.00     0.090 A 
HETATM    6  C5  UNK     1      18.347   3.822  32.084  1.00  0.00     0.152 A 
HETATM    7  C6  UNK     1      18.348   2.339  32.101  1.00  0.00     0.220 A 
HETATM    8  C7  UNK     1      18.321   0.311  33.551  1.00  0.00     0.055 A 
HETATM    9  C8  UNK     1      18.289   1.929  35.831  1.00  0.00     0.041 A 
HETATM   10  C9  UNK     1      18.301  -0.267  34.821  1.00  0.00     0.066 A 
HETATM   11  C12 UNK     1      18.285   0.540  35.959  1.00  0.00     0.039 A 
ENDROOT
BRANCH   4  12
HETATM   12  C4  UNK     1      18.324   5.957  33.332  1.00  0.00     0.003 A 
HETATM   13  C10 UNK     1      17.291   6.690  32.749  1.00  0.00     0.051 A 
HETATM   14  C13 UNK     1      17.294   8.082  32.822  1.00  0.00     0.066 A 
HETATM   15  C15 UNK     1      18.332   8.744  33.478  1.00  0.00     0.036 A 
HETATM   16  C14 UNK     1      19.366   8.012  34.062  1.00  0.00     0.004 A 
HETATM   17  C11 UNK     1      19.363   6.619  33.989  1.00  0.00     0.014 A 
BRANCH  14  18
HETATM   18  O5  UNK     1      16.285   8.797  32.253  1.00  0.00    -0.361 OA
HETATM   19  H10 UNK     1      16.128   9.598  32.782  1.00  0.00     0.217 HD
ENDBRANCH  14  18
ENDBRANCH   4  12
BRANCH   6  20
HETATM   20  O2  UNK     1      18.390   4.456  30.862  1.00  0.00    -0.355 OA
HETATM   21  H8  UNK     1      18.643   3.823  30.171  1.00  0.00     0.218 HD
ENDBRANCH   6  20
BRANCH  10  22
HETATM   22  O4  UNK     1      18.297  -1.623  34.950  1.00  0.00    -0.361 OA
HETATM   23  H9  UNK     1      17.405  -1.914  35.207  1.00  0.00     0.217 HD
ENDBRANCH  10  22
TORSDOF 4
ENDMDL
MODEL 9
REMARK VINA RESULT:      -7.5     26.095     27.666
REMARK  4 active torsions:
REMARK  status: ('A' for Active; 'I' for Inactive)
REMARK    1  A    between atoms: C5_10  and  O2_2 
REMARK    2  A    between atoms: C9_14  and  O4_4 
REMARK    3  A    between atoms: C13_18  and  O5_5 
REMARK    4  A    between atoms: C2_7  and  C4_9 
ROOT
HETATM    1  O1  UNK     1       7.752   4.461   8.957  1.00  0.00    -0.306 OA
HETATM    2  O3  UNK     1       6.639   7.279  11.682  1.00  0.00    -0.284 OA
HETATM    3  C1  UNK     1       6.358   5.093  10.840  1.00  0.00     0.053 A 
HETATM    4  C2  UNK     1       8.344   5.713   8.984  1.00  0.00     0.123 A 
HETATM    5  C3  UNK     1       6.781   4.176   9.882  1.00  0.00     0.090 A 
HETATM    6  C5  UNK     1       8.021   6.691   9.850  1.00  0.00     0.152 A 
HETATM    7  C6  UNK     1       6.973   6.429  10.866  1.00  0.00     0.220 A 
HETATM    8  C7  UNK     1       5.363   4.746  11.758  1.00  0.00     0.055 A 
HETATM    9  C8  UNK     1       6.210   2.903   9.834  1.00  0.00     0.041 A 
HETATM   10  C9  UNK     1       4.794   3.473  11.709  1.00  0.00     0.066 A 
HETATM   11  C12 UNK     1       5.217   2.553  10.749  1.00  0.00     0.039 A 
ENDROOT
BRANCH   4  12
HETATM   12  C4  UNK     1       9.368   5.887   7.939  1.00  0.00     0.003 A 
HETATM   13  C10 UNK     1      10.701   5.575   8.207  1.00  0.00     0.051 A 
HETATM   14  C13 UNK     1      11.670   5.740   7.217  1.00  0.00     0.066 A 
HETATM   15  C15 UNK     1      11.306   6.220   5.959  1.00  0.00     0.036 A 
HETATM   16  C14 UNK     1       9.974   6.532   5.690  1.00  0.00     0.004 A 
HETATM   17  C11 UNK     1       9.005   6.367   6.679  1.00  0.00     0.014 A 
BRANCH  14  18
HETATM   18  O5  UNK     1      12.970   5.435   7.479  1.00  0.00    -0.361 OA
HETATM   19  H10 UNK     1      13.305   4.854   6.775  1.00  0.00     0.217 HD
ENDBRANCH  14  18
ENDBRANCH   4  12
BRANCH   6  20
HETATM   20  O2  UNK     1       8.606   7.938   9.830  1.00  0.00    -0.355 OA
HETATM   21  H8  UNK     1       9.001   8.103   8.959  1.00  0.00     0.218 HD
ENDBRANCH   6  20
BRANCH  10  22
HETATM   22  O4  UNK     1       3.824   3.128  12.600  1.00  0.00    -0.361 OA
HETATM   23  H9  UNK     1       3.782   2.158  12.661  1.00  0.00     0.217 HD
ENDBRANCH  10  22
TORSDOF 4
ENDMDL
MODEL 10
REMARK VINA RESULT:      -7.5      7.555      9.770
REMARK  4 active torsions:
REMARK  status: ('A' for Active; 'I' for Inactive)
REMARK    1  A    between atoms: C5_10  and  O2_2 
REMARK    2  A    between atoms: C9_14  and  O4_4 
REMARK    3  A    between atoms: C13_18  and  O5_5 
REMARK    4  A    between atoms: C2_7  and  C4_9 
ROOT
HETATM    1  O1  UNK     1      16.820   7.544  32.350  1.00  0.00    -0.306 OA
HETATM    2  O3  UNK     1      19.607   9.588  34.510  1.00  0.00    -0.284 OA
HETATM    3  C1  UNK     1      17.399   9.487  33.684  1.00  0.00     0.053 A 
HETATM    4  C2  UNK     1      18.103   7.051  32.526  1.00  0.00     0.123 A 
HETATM    5  C3  UNK     1      16.495   8.741  32.932  1.00  0.00     0.090 A 
HETATM    6  C5  UNK     1      19.073   7.675  33.219  1.00  0.00     0.152 A 
HETATM    7  C6  UNK     1      18.767   8.975  33.864  1.00  0.00     0.220 A 
HETATM    8  C7  UNK     1      17.010  10.702  34.254  1.00  0.00     0.055 A 
HETATM    9  C8  UNK     1      15.193   9.207  32.745  1.00  0.00     0.041 A 
HETATM   10  C9  UNK     1      15.708  11.165  34.065  1.00  0.00     0.066 A 
HETATM   11  C12 UNK     1      14.801  10.419  33.312  1.00  0.00     0.039 A 
ENDROOT
BRANCH   4  12
HETATM   12  C4  UNK     1      18.320   5.759  31.849  1.00  0.00     0.003 A 
HETATM   13  C10 UNK     1      17.967   4.569  32.484  1.00  0.00     0.051 A 
HETATM   14  C13 UNK     1      18.173   3.347  31.843  1.00  0.00     0.066 A 
HETATM   15  C15 UNK     1      18.733   3.316  30.566  1.00  0.00     0.036 A 
HETATM   16  C14 UNK     1      19.086   4.506  29.930  1.00  0.00     0.004 A 
HETATM   17  C11 UNK     1      18.880   5.727  30.571  1.00  0.00     0.014 A 
BRANCH  14  18
HETATM   18  O5  UNK     1      17.828   2.186  32.463  1.00  0.00    -0.361 OA
HETATM   19  H10 UNK     1      18.147   2.212  33.381  1.00  0.00     0.217 HD
ENDBRANCH  14  18
ENDBRANCH   4  12
BRANCH   6  20
HETATM   20  O2  UNK     1      20.349   7.173  33.348  1.00  0.00    -0.355 OA
HETATM   21  H8  UNK     1      20.692   6.917  32.477  1.00  0.00     0.218 HD
ENDBRANCH   6  20
BRANCH  10  22
HETATM   22  O4  UNK     1      15.322  12.349  34.617  1.00  0.00    -0.361 OA
HETATM   23  H9  UNK     1      15.951  13.041  34.352  1.00  0.00     0.217 HD
ENDBRANCH  10  22
TORSDOF 4
ENDMDL
