MODEL 1
REMARK VINA RESULT:      -8.3      0.000      0.000
REMARK  5 active torsions:
REMARK  status: ('A' for Active; 'I' for Inactive)
REMARK    1  A    between atoms: C9_15  and  O2_2 
REMARK    2  A    between atoms: C10_16  and  O4_4 
REMARK    3  A    between atoms: C15_21  and  O5_5 
REMARK    4  A    between atoms: C17_23  and  O5_5 
REMARK    5  A    between atoms: C2_8  and  C5_11 
ROOT
HETATM    1  O1  UNK     1      19.672   7.792  33.417  1.00  0.00    -0.321 OA
HETATM    2  O3  UNK     1      16.111   6.201  32.217  1.00  0.00    -0.286 OA
HETATM    3  C1  UNK     1      17.281   8.050  33.086  1.00  0.00     0.052 A 
HETATM    4  C2  UNK     1      18.460   5.910  32.473  1.00  0.00     0.048 A 
HETATM    5  C3  UNK     1      18.523   8.537  33.492  1.00  0.00     0.092 A 
HETATM    6  C4  UNK     1      17.186   6.677  32.557  1.00  0.00     0.198 A 
HETATM    7  C6  UNK     1      16.143   8.855  33.187  1.00  0.00     0.058 A 
HETATM    8  C7  UNK     1      19.574   6.522  32.902  1.00  0.00     0.159 A 
HETATM    9  C8  UNK     1      18.634   9.832  34.001  1.00  0.00     0.077 A 
HETATM   10  C9  UNK     1      16.257  10.149  33.696  1.00  0.00     0.102 A 
HETATM   11  C10 UNK     1      17.499  10.637  34.102  1.00  0.00     0.101 A 
ENDROOT
BRANCH   4  12
HETATM   12  C5  UNK     1      18.513   4.544  31.928  1.00  0.00    -0.020 A 
HETATM   13  C11 UNK     1      18.852   4.339  30.591  1.00  0.00     0.015 A 
HETATM   14  C13 UNK     1      18.903   3.045  30.074  1.00  0.00     0.038 A 
HETATM   15  C15 UNK     1      18.613   1.954  30.895  1.00  0.00     0.079 A 
HETATM   16  C14 UNK     1      18.274   2.159  32.232  1.00  0.00     0.038 A 
HETATM   17  C12 UNK     1      18.224   3.453  32.748  1.00  0.00     0.015 A 
BRANCH  15  18
HETATM   18  O5  UNK     1      18.663   0.691  30.390  1.00  0.00    -0.279 OA
BRANCH  18  19
HETATM   19  C17 UNK     1      19.964   0.184  30.240  1.00  0.00     0.260 C 
HETATM   20  O6  UNK     1      20.838   0.191  31.097  1.00  0.00    -0.265 OA
HETATM   21  C18 UNK     1      20.140  -0.376  28.859  1.00  0.00     0.126 C 
ENDBRANCH  18  19
ENDBRANCH  15  18
ENDBRANCH   4  12
BRANCH  10  22
HETATM   22  O2  UNK     1      15.145  10.931  33.790  1.00  0.00    -0.353 OA
HETATM   23  C16 UNK     1      14.170  10.556  34.761  1.00  0.00     0.210 C 
ENDBRANCH  10  22
BRANCH  11  24
HETATM   24  O4  UNK     1      17.618  11.900  34.597  1.00  0.00    -0.358 OA
HETATM   25  H8  UNK     1      16.787  12.383  34.438  1.00  0.00     0.217 HD
ENDBRANCH  11  24
TORSDOF 5
ENDMDL
MODEL 2
REMARK VINA RESULT:      -7.9      1.774      8.791
REMARK  5 active torsions:
REMARK  status: ('A' for Active; 'I' for Inactive)
REMARK    1  A    between atoms: C9_15  and  O2_2 
REMARK    2  A    between atoms: C10_16  and  O4_4 
REMARK    3  A    between atoms: C15_21  and  O5_5 
REMARK    4  A    between atoms: C17_23  and  O5_5 
REMARK    5  A    between atoms: C2_8  and  C5_11 
ROOT
HETATM    1  O1  UNK     1      18.911   3.346  29.679  1.00  0.00    -0.321 OA
HETATM    2  O3  UNK     1      18.063   2.748  33.626  1.00  0.00    -0.286 OA
HETATM    3  C1  UNK     1      18.747   1.831  31.569  1.00  0.00     0.052 A 
HETATM    4  C2  UNK     1      18.255   4.289  31.820  1.00  0.00     0.048 A 
HETATM    5  C3  UNK     1      19.013   2.092  30.225  1.00  0.00     0.092 A 
HETATM    6  C4  UNK     1      18.334   2.940  32.448  1.00  0.00     0.198 A 
HETATM    7  C6  UNK     1      18.866   0.531  32.069  1.00  0.00     0.058 A 
HETATM    8  C7  UNK     1      18.547   4.375  30.513  1.00  0.00     0.159 A 
HETATM    9  C8  UNK     1      19.400   1.055  29.375  1.00  0.00     0.077 A 
HETATM   10  C9  UNK     1      19.254  -0.503  31.217  1.00  0.00     0.102 A 
HETATM   11  C10 UNK     1      19.520  -0.242  29.872  1.00  0.00     0.101 A 
ENDROOT
BRANCH   4  12
HETATM   12  C5  UNK     1      17.895   5.488  32.593  1.00  0.00    -0.020 A 
HETATM   13  C11 UNK     1      16.667   6.113  32.378  1.00  0.00     0.015 A 
HETATM   14  C13 UNK     1      16.325   7.250  33.110  1.00  0.00     0.038 A 
HETATM   15  C15 UNK     1      17.211   7.762  34.058  1.00  0.00     0.079 A 
HETATM   16  C14 UNK     1      18.439   7.136  34.273  1.00  0.00     0.038 A 
HETATM   17  C12 UNK     1      18.781   6.000  33.541  1.00  0.00     0.015 A 
BRANCH  15  18
HETATM   18  O5  UNK     1      16.877   8.871  34.773  1.00  0.00    -0.279 OA
BRANCH  18  19
HETATM   19  C17 UNK     1      17.010  10.074  34.060  1.00  0.00     0.260 C 
HETATM   20  O6  UNK     1      18.032  10.478  33.521  1.00  0.00    -0.265 OA
HETATM   21  C18 UNK     1      15.703  10.812  34.051  1.00  0.00     0.126 C 
ENDBRANCH  18  19
ENDBRANCH  15  18
ENDBRANCH   4  12
BRANCH  10  22
HETATM   22  O2  UNK     1      19.371  -1.768  31.710  1.00  0.00    -0.353 OA
HETATM   23  C16 UNK     1      20.627  -2.127  32.281  1.00  0.00     0.210 C 
ENDBRANCH  10  22
BRANCH  11  24
HETATM   24  O4  UNK     1      19.901  -1.247  29.035  1.00  0.00    -0.358 OA
HETATM   25  H8  UNK     1      20.206  -2.004  29.566  1.00  0.00     0.217 HD
ENDBRANCH  11  24
TORSDOF 5
ENDMDL
MODEL 3
REMARK VINA RESULT:      -7.8     13.749     17.871
REMARK  5 active torsions:
REMARK  status: ('A' for Active; 'I' for Inactive)
REMARK    1  A    between atoms: C9_15  and  O2_2 
REMARK    2  A    between atoms: C10_16  and  O4_4 
REMARK    3  A    between atoms: C15_21  and  O5_5 
REMARK    4  A    between atoms: C17_23  and  O5_5 
REMARK    5  A    between atoms: C2_8  and  C5_11 
ROOT
HETATM    1  O1  UNK     1      19.327   1.088  15.282  1.00  0.00    -0.321 OA
HETATM    2  O3  UNK     1      18.913  -1.693  18.239  1.00  0.00    -0.286 OA
HETATM    3  C1  UNK     1      19.173   0.570  17.649  1.00  0.00     0.052 A 
HETATM    4  C2  UNK     1      19.008  -1.238  15.904  1.00  0.00     0.048 A 
HETATM    5  C3  UNK     1      19.322   1.475  16.598  1.00  0.00     0.092 A 
HETATM    6  C4  UNK     1      19.017  -0.864  17.345  1.00  0.00     0.198 A 
HETATM    7  C6  UNK     1      19.177   1.022  18.972  1.00  0.00     0.058 A 
HETATM    8  C7  UNK     1      19.159  -0.248  15.011  1.00  0.00     0.159 A 
HETATM    9  C8  UNK     1      19.476   2.836  16.864  1.00  0.00     0.077 A 
HETATM   10  C9  UNK     1      19.331   2.384  19.235  1.00  0.00     0.102 A 
HETATM   11  C10 UNK     1      19.480   3.289  18.184  1.00  0.00     0.101 A 
ENDROOT
BRANCH   4  12
HETATM   12  C5  UNK     1      18.820  -2.629  15.461  1.00  0.00    -0.020 A 
HETATM   13  C11 UNK     1      17.602  -3.271  15.675  1.00  0.00     0.015 A 
HETATM   14  C13 UNK     1      17.424  -4.590  15.255  1.00  0.00     0.038 A 
HETATM   15  C15 UNK     1      18.466  -5.266  14.621  1.00  0.00     0.079 A 
HETATM   16  C14 UNK     1      19.685  -4.623  14.407  1.00  0.00     0.038 A 
HETATM   17  C12 UNK     1      19.862  -3.305  14.826  1.00  0.00     0.015 A 
BRANCH  15  18
HETATM   18  O5  UNK     1      18.293  -6.552  14.211  1.00  0.00    -0.279 OA
BRANCH  18  19
HETATM   19  C17 UNK     1      18.358  -6.724  12.818  1.00  0.00     0.260 C 
HETATM   20  O6  UNK     1      17.618  -6.198  11.997  1.00  0.00    -0.265 OA
HETATM   21  C18 UNK     1      19.477  -7.661  12.468  1.00  0.00     0.126 C 
ENDBRANCH  18  19
ENDBRANCH  15  18
ENDBRANCH   4  12
BRANCH  10  22
HETATM   22  O2  UNK     1      19.332   2.820  20.526  1.00  0.00    -0.353 OA
HETATM   23  C16 UNK     1      19.718   1.880  21.526  1.00  0.00     0.210 C 
ENDBRANCH  10  22
BRANCH  11  24
HETATM   24  O4  UNK     1      19.629   4.620  18.433  1.00  0.00    -0.358 OA
HETATM   25  H8  UNK     1      18.915   5.108  17.987  1.00  0.00     0.217 HD
ENDBRANCH  11  24
TORSDOF 5
ENDMDL
MODEL 4
REMARK VINA RESULT:      -7.7      1.676      8.725
REMARK  5 active torsions:
REMARK  status: ('A' for Active; 'I' for Inactive)
REMARK    1  A    between atoms: C9_15  and  O2_2 
REMARK    2  A    between atoms: C10_16  and  O4_4 
REMARK    3  A    between atoms: C15_21  and  O5_5 
REMARK    4  A    between atoms: C17_23  and  O5_5 
REMARK    5  A    between atoms: C2_8  and  C5_11 
ROOT
HETATM    1  O1  UNK     1      18.307   2.078  33.467  1.00  0.00    -0.321 OA
HETATM    2  O3  UNK     1      18.802   4.443  30.179  1.00  0.00    -0.286 OA
HETATM    3  C1  UNK     1      18.872   2.285  31.115  1.00  0.00     0.052 A 
HETATM    4  C2  UNK     1      18.190   4.292  32.475  1.00  0.00     0.048 A 
HETATM    5  C3  UNK     1      18.697   1.527  32.273  1.00  0.00     0.092 A 
HETATM    6  C4  UNK     1      18.632   3.738  31.166  1.00  0.00     0.198 A 
HETATM    7  C6  UNK     1      19.274   1.669  29.926  1.00  0.00     0.058 A 
HETATM    8  C7  UNK     1      18.066   3.430  33.496  1.00  0.00     0.159 A 
HETATM    9  C8  UNK     1      18.924   0.150  32.249  1.00  0.00     0.077 A 
HETATM   10  C9  UNK     1      19.499   0.292  29.905  1.00  0.00     0.102 A 
HETATM   11  C10 UNK     1      19.324  -0.466  31.063  1.00  0.00     0.101 A 
ENDROOT
BRANCH   4  12
HETATM   12  C5  UNK     1      17.879   5.719  32.653  1.00  0.00    -0.020 A 
HETATM   13  C11 UNK     1      16.642   6.220  32.247  1.00  0.00     0.015 A 
HETATM   14  C13 UNK     1      16.347   7.573  32.416  1.00  0.00     0.038 A 
HETATM   15  C15 UNK     1      17.289   8.425  32.991  1.00  0.00     0.079 A 
HETATM   16  C14 UNK     1      18.526   7.925  33.396  1.00  0.00     0.038 A 
HETATM   17  C12 UNK     1      18.821   6.573  33.228  1.00  0.00     0.015 A 
BRANCH  15  18
HETATM   18  O5  UNK     1      17.002   9.746  33.155  1.00  0.00    -0.279 OA
BRANCH  18  19
HETATM   19  C17 UNK     1      15.959   9.997  34.063  1.00  0.00     0.260 C 
HETATM   20  O6  UNK     1      15.926   9.637  35.232  1.00  0.00    -0.265 OA
HETATM   21  C18 UNK     1      14.869  10.777  33.389  1.00  0.00     0.126 C 
ENDBRANCH  18  19
ENDBRANCH  15  18
ENDBRANCH   4  12
BRANCH  10  22
HETATM   22  O2  UNK     1      19.888  -0.304  28.743  1.00  0.00    -0.353 OA
HETATM   23  C16 UNK     1      18.888  -0.490  27.743  1.00  0.00     0.210 C 
ENDBRANCH  10  22
BRANCH  11  24
HETATM   24  O4  UNK     1      19.541  -1.811  31.049  1.00  0.00    -0.358 OA
HETATM   25  H8  UNK     1      20.491  -1.978  30.918  1.00  0.00     0.217 HD
ENDBRANCH  11  24
TORSDOF 5
ENDMDL
MODEL 5
REMARK VINA RESULT:      -7.7      1.635      2.416
REMARK  5 active torsions:
REMARK  status: ('A' for Active; 'I' for Inactive)
REMARK    1  A    between atoms: C9_15  and  O2_2 
REMARK    2  A    between atoms: C10_16  and  O4_4 
REMARK    3  A    between atoms: C15_21  and  O5_5 
REMARK    4  A    between atoms: C17_23  and  O5_5 
REMARK    5  A    between atoms: C2_8  and  C5_11 
ROOT
HETATM    1  O1  UNK     1      18.090   8.997  34.122  1.00  0.00    -0.321 OA
HETATM    2  O3  UNK     1      15.437   7.312  31.518  1.00  0.00    -0.286 OA
HETATM    3  C1  UNK     1      15.932   9.064  33.011  1.00  0.00     0.052 A 
HETATM    4  C2  UNK     1      17.586   7.223  32.540  1.00  0.00     0.048 A 
HETATM    5  C3  UNK     1      16.873   9.589  33.897  1.00  0.00     0.092 A 
HETATM    6  C4  UNK     1      16.247   7.821  32.282  1.00  0.00     0.198 A 
HETATM    7  C6  UNK     1      14.707   9.709  32.823  1.00  0.00     0.058 A 
HETATM    8  C7  UNK     1      18.380   7.852  33.421  1.00  0.00     0.159 A 
HETATM    9  C8  UNK     1      16.593  10.761  34.600  1.00  0.00     0.077 A 
HETATM   10  C9  UNK     1      14.430  10.882  33.527  1.00  0.00     0.102 A 
HETATM   11  C10 UNK     1      15.371  11.407  34.414  1.00  0.00     0.101 A 
ENDROOT
BRANCH   4  12
HETATM   12  C5  UNK     1      18.042   6.006  31.850  1.00  0.00    -0.020 A 
HETATM   13  C11 UNK     1      17.707   4.751  32.356  1.00  0.00     0.015 A 
HETATM   14  C13 UNK     1      18.139   3.597  31.702  1.00  0.00     0.038 A 
HETATM   15  C15 UNK     1      18.907   3.699  30.541  1.00  0.00     0.079 A 
HETATM   16  C14 UNK     1      19.242   4.955  30.036  1.00  0.00     0.038 A 
HETATM   17  C12 UNK     1      18.810   6.108  30.690  1.00  0.00     0.015 A 
BRANCH  15  18
HETATM   18  O5  UNK     1      19.329   2.573  29.903  1.00  0.00    -0.279 OA
BRANCH  18  19
HETATM   19  C17 UNK     1      18.443   2.107  28.917  1.00  0.00     0.260 C 
HETATM   20  O6  UNK     1      17.622   2.785  28.315  1.00  0.00    -0.265 OA
HETATM   21  C18 UNK     1      18.643   0.635  28.703  1.00  0.00     0.126 C 
ENDBRANCH  18  19
ENDBRANCH  15  18
ENDBRANCH   4  12
BRANCH  10  22
HETATM   22  O2  UNK     1      13.234  11.508  33.339  1.00  0.00    -0.353 OA
HETATM   23  C16 UNK     1      13.172  12.489  32.306  1.00  0.00     0.210 C 
ENDBRANCH  10  22
BRANCH  11  24
HETATM   24  O4  UNK     1      15.107  12.552  35.103  1.00  0.00    -0.358 OA
HETATM   25  H8  UNK     1      15.943  13.023  35.266  1.00  0.00     0.217 HD
ENDBRANCH  11  24
TORSDOF 5
ENDMDL
MODEL 6
REMARK VINA RESULT:      -7.6     14.643     18.642
REMARK  5 active torsions:
REMARK  status: ('A' for Active; 'I' for Inactive)
REMARK    1  A    between atoms: C9_15  and  O2_2 
REMARK    2  A    between atoms: C10_16  and  O4_4 
REMARK    3  A    between atoms: C15_21  and  O5_5 
REMARK    4  A    between atoms: C17_23  and  O5_5 
REMARK    5  A    between atoms: C2_8  and  C5_11 
ROOT
HETATM    1  O1  UNK     1      18.252  -1.277  17.757  1.00  0.00    -0.321 OA
HETATM    2  O3  UNK     1      19.901   1.108  14.887  1.00  0.00    -0.286 OA
HETATM    3  C1  UNK     1      19.180   0.872  17.115  1.00  0.00     0.052 A 
HETATM    4  C2  UNK     1      19.047  -1.036  15.475  1.00  0.00     0.048 A 
HETATM    5  C3  UNK     1      18.604   0.015  18.052  1.00  0.00     0.092 A 
HETATM    6  C4  UNK     1      19.424   0.379  15.747  1.00  0.00     0.198 A 
HETATM    7  C6  UNK     1      19.517   2.180  17.472  1.00  0.00     0.058 A 
HETATM    8  C7  UNK     1      18.504  -1.731  16.486  1.00  0.00     0.159 A 
HETATM    9  C8  UNK     1      18.360   0.463  19.351  1.00  0.00     0.077 A 
HETATM   10  C9  UNK     1      19.272   2.625  18.772  1.00  0.00     0.102 A 
HETATM   11  C10 UNK     1      18.695   1.768  19.710  1.00  0.00     0.101 A 
ENDROOT
BRANCH   4  12
HETATM   12  C5  UNK     1      19.273  -1.664  14.163  1.00  0.00    -0.020 A 
HETATM   13  C11 UNK     1      18.920  -0.988  12.996  1.00  0.00     0.015 A 
HETATM   14  C13 UNK     1      19.134  -1.584  11.752  1.00  0.00     0.038 A 
HETATM   15  C15 UNK     1      19.701  -2.856  11.678  1.00  0.00     0.079 A 
HETATM   16  C14 UNK     1      20.054  -3.532  12.845  1.00  0.00     0.038 A 
HETATM   17  C12 UNK     1      19.840  -2.936  14.088  1.00  0.00     0.015 A 
BRANCH  15  18
HETATM   18  O5  UNK     1      19.910  -3.437  10.464  1.00  0.00    -0.279 OA
BRANCH  18  19
HETATM   19  C17 UNK     1      18.932  -4.380  10.104  1.00  0.00     0.260 C 
HETATM   20  O6  UNK     1      17.729  -4.167  10.023  1.00  0.00    -0.265 OA
HETATM   21  C18 UNK     1      19.575  -5.707   9.829  1.00  0.00     0.126 C 
ENDBRANCH  18  19
ENDBRANCH  15  18
ENDBRANCH   4  12
BRANCH  10  22
HETATM   22  O2  UNK     1      19.604   3.901  19.115  1.00  0.00    -0.353 OA
HETATM   23  C16 UNK     1      20.709   4.490  18.432  1.00  0.00     0.210 C 
ENDBRANCH  10  22
BRANCH  11  24
HETATM   24  O4  UNK     1      18.456   2.195  20.980  1.00  0.00    -0.358 OA
HETATM   25  H8  UNK     1      18.399   1.422  21.570  1.00  0.00     0.217 HD
ENDBRANCH  11  24
TORSDOF 5
ENDMDL
MODEL 7
REMARK VINA RESULT:      -7.6      1.708      8.516
REMARK  5 active torsions:
REMARK  status: ('A' for Active; 'I' for Inactive)
REMARK    1  A    between atoms: C9_15  and  O2_2 
REMARK    2  A    between atoms: C10_16  and  O4_4 
REMARK    3  A    between atoms: C15_21  and  O5_5 
REMARK    4  A    between atoms: C17_23  and  O5_5 
REMARK    5  A    between atoms: C2_8  and  C5_11 
ROOT
HETATM    1  O1  UNK     1      18.780   4.872  29.700  1.00  0.00    -0.321 OA
HETATM    2  O3  UNK     1      18.027   4.437  33.686  1.00  0.00    -0.286 OA
HETATM    3  C1  UNK     1      18.501   3.414  31.620  1.00  0.00     0.052 A 
HETATM    4  C2  UNK     1      18.341   5.918  31.848  1.00  0.00     0.048 A 
HETATM    5  C3  UNK     1      18.743   3.622  30.263  1.00  0.00     0.092 A 
HETATM    6  C4  UNK     1      18.271   4.578  32.495  1.00  0.00     0.198 A 
HETATM    7  C6  UNK     1      18.473   2.116  32.139  1.00  0.00     0.058 A 
HETATM    8  C7  UNK     1      18.586   5.950  30.529  1.00  0.00     0.159 A 
HETATM    9  C8  UNK     1      18.958   2.533  29.416  1.00  0.00     0.077 A 
HETATM   10  C9  UNK     1      18.689   1.030  31.290  1.00  0.00     0.102 A 
HETATM   11  C10 UNK     1      18.930   1.238  29.932  1.00  0.00     0.101 A 
ENDROOT
BRANCH   4  12
HETATM   12  C5  UNK     1      18.169   7.163  32.613  1.00  0.00    -0.020 A 
HETATM   13  C11 UNK     1      19.208   7.640  33.411  1.00  0.00     0.015 A 
HETATM   14  C13 UNK     1      19.046   8.821  34.136  1.00  0.00     0.038 A 
HETATM   15  C15 UNK     1      17.844   9.524  34.063  1.00  0.00     0.079 A 
HETATM   16  C14 UNK     1      16.805   9.047  33.264  1.00  0.00     0.038 A 
HETATM   17  C12 UNK     1      16.968   7.867  32.539  1.00  0.00     0.015 A 
BRANCH  15  18
HETATM   18  O5  UNK     1      17.686  10.676  34.770  1.00  0.00    -0.279 OA
BRANCH  18  19
HETATM   19  C17 UNK     1      17.774  11.844  33.993  1.00  0.00     0.260 C 
HETATM   20  O6  UNK     1      18.717  12.158  33.279  1.00  0.00    -0.265 OA
HETATM   21  C18 UNK     1      16.532  12.668  34.163  1.00  0.00     0.126 C 
ENDBRANCH  18  19
ENDBRANCH  15  18
ENDBRANCH   4  12
BRANCH  10  22
HETATM   22  O2  UNK     1      18.662  -0.233  31.801  1.00  0.00    -0.353 OA
HETATM   23  C16 UNK     1      18.654  -0.358  33.221  1.00  0.00     0.210 C 
ENDBRANCH  10  22
BRANCH  11  24
HETATM   24  O4  UNK     1      19.143   0.182  29.098  1.00  0.00    -0.358 OA
HETATM   25  H8  UNK     1      19.827  -0.394  29.484  1.00  0.00     0.217 HD
ENDBRANCH  11  24
TORSDOF 5
ENDMDL
MODEL 8
REMARK VINA RESULT:      -7.6      7.649     10.992
REMARK  5 active torsions:
REMARK  status: ('A' for Active; 'I' for Inactive)
REMARK    1  A    between atoms: C9_15  and  O2_2 
REMARK    2  A    between atoms: C10_16  and  O4_4 
REMARK    3  A    between atoms: C15_21  and  O5_5 
REMARK    4  A    between atoms: C17_23  and  O5_5 
REMARK    5  A    between atoms: C2_8  and  C5_11 
ROOT
HETATM    1  O1  UNK     1      18.471  -1.398  36.707  1.00  0.00    -0.321 OA
HETATM    2  O3  UNK     1      20.524  -3.586  33.941  1.00  0.00    -0.286 OA
HETATM    3  C1  UNK     1      19.310  -1.633  34.441  1.00  0.00     0.052 A 
HETATM    4  C2  UNK     1      19.769  -3.386  36.190  1.00  0.00     0.048 A 
HETATM    5  C3  UNK     1      18.611  -0.933  35.424  1.00  0.00     0.092 A 
HETATM    6  C4  UNK     1      19.927  -2.928  34.782  1.00  0.00     0.198 A 
HETATM    7  C6  UNK     1      19.419  -1.110  33.149  1.00  0.00     0.058 A 
HETATM    8  C7  UNK     1      19.068  -2.596  37.018  1.00  0.00     0.159 A 
HETATM    9  C8  UNK     1      18.016   0.292  35.121  1.00  0.00     0.077 A 
HETATM   10  C9  UNK     1      18.823   0.116  32.849  1.00  0.00     0.102 A 
HETATM   11  C10 UNK     1      18.123   0.815  33.832  1.00  0.00     0.101 A 
ENDROOT
BRANCH   4  12
HETATM   12  C5  UNK     1      20.367  -4.641  36.673  1.00  0.00    -0.020 A 
HETATM   13  C11 UNK     1      20.050  -5.849  36.054  1.00  0.00     0.015 A 
HETATM   14  C13 UNK     1      20.618  -7.038  36.511  1.00  0.00     0.038 A 
HETATM   15  C15 UNK     1      21.502  -7.019  37.590  1.00  0.00     0.079 A 
HETATM   16  C14 UNK     1      21.819  -5.810  38.209  1.00  0.00     0.038 A 
HETATM   17  C12 UNK     1      21.252  -4.622  37.751  1.00  0.00     0.015 A 
BRANCH  15  18
HETATM   18  O5  UNK     1      22.056  -8.179  38.036  1.00  0.00    -0.279 OA
BRANCH  18  19
HETATM   19  C17 UNK     1      21.693  -8.520  39.350  1.00  0.00     0.260 C 
HETATM   20  O6  UNK     1      22.421  -8.462  40.332  1.00  0.00    -0.265 OA
HETATM   21  C18 UNK     1      20.264  -8.976  39.385  1.00  0.00     0.126 C 
ENDBRANCH  18  19
ENDBRANCH  15  18
ENDBRANCH   4  12
BRANCH  10  22
HETATM   22  O2  UNK     1      18.934   0.622  31.589  1.00  0.00    -0.353 OA
HETATM   23  C16 UNK     1      20.002   0.129  30.784  1.00  0.00     0.210 C 
ENDBRANCH  10  22
BRANCH  11  24
HETATM   24  O4  UNK     1      17.541   2.013  33.547  1.00  0.00    -0.358 OA
HETATM   25  H8  UNK     1      16.698   1.855  33.086  1.00  0.00     0.217 HD
ENDBRANCH  11  24
TORSDOF 5
ENDMDL
MODEL 9
REMARK VINA RESULT:      -7.5      8.482     13.484
REMARK  5 active torsions:
REMARK  status: ('A' for Active; 'I' for Inactive)
REMARK    1  A    between atoms: C9_15  and  O2_2 
REMARK    2  A    between atoms: C10_16  and  O4_4 
REMARK    3  A    between atoms: C15_21  and  O5_5 
REMARK    4  A    between atoms: C17_23  and  O5_5 
REMARK    5  A    between atoms: C2_8  and  C5_11 
ROOT
HETATM    1  O1  UNK     1      21.706  -4.624  37.788  1.00  0.00    -0.321 OA
HETATM    2  O3  UNK     1      17.898  -5.342  36.509  1.00  0.00    -0.286 OA
HETATM    3  C1  UNK     1      19.832  -6.153  37.578  1.00  0.00     0.052 A 
HETATM    4  C2  UNK     1      19.686  -3.785  36.732  1.00  0.00     0.048 A 
HETATM    5  C3  UNK     1      21.133  -5.854  37.984  1.00  0.00     0.092 A 
HETATM    6  C4  UNK     1      19.033  -5.111  36.907  1.00  0.00     0.198 A 
HETATM    7  C6  UNK     1      19.300  -7.426  37.803  1.00  0.00     0.058 A 
HETATM    8  C7  UNK     1      20.944  -3.656  37.181  1.00  0.00     0.159 A 
HETATM    9  C8  UNK     1      21.908  -6.827  38.617  1.00  0.00     0.077 A 
HETATM   10  C9  UNK     1      20.078  -8.396  38.436  1.00  0.00     0.102 A 
HETATM   11  C10 UNK     1      21.379  -8.098  38.842  1.00  0.00     0.101 A 
ENDROOT
BRANCH   4  12
HETATM   12  C5  UNK     1      18.987  -2.647  36.114  1.00  0.00    -0.020 A 
HETATM   13  C11 UNK     1      19.428  -2.136  34.894  1.00  0.00     0.015 A 
HETATM   14  C13 UNK     1      18.765  -1.058  34.307  1.00  0.00     0.038 A 
HETATM   15  C15 UNK     1      17.660  -0.491  34.942  1.00  0.00     0.079 A 
HETATM   16  C14 UNK     1      17.219  -1.001  36.162  1.00  0.00     0.038 A 
HETATM   17  C12 UNK     1      17.881  -2.079  36.748  1.00  0.00     0.015 A 
BRANCH  15  18
HETATM   18  O5  UNK     1      17.013   0.562  34.370  1.00  0.00    -0.279 OA
BRANCH  18  19
HETATM   19  C17 UNK     1      17.859   1.616  33.987  1.00  0.00     0.260 C 
HETATM   20  O6  UNK     1      18.052   1.998  32.840  1.00  0.00    -0.265 OA
HETATM   21  C18 UNK     1      18.507   2.219  35.198  1.00  0.00     0.126 C 
ENDBRANCH  18  19
ENDBRANCH  15  18
ENDBRANCH   4  12
BRANCH  10  22
HETATM   22  O2  UNK     1      19.554  -9.634  38.655  1.00  0.00    -0.353 OA
HETATM   23  C16 UNK     1      19.541 -10.537  37.551  1.00  0.00     0.210 C 
ENDBRANCH  10  22
BRANCH  11  24
HETATM   24  O4  UNK     1      22.142  -9.040  39.462  1.00  0.00    -0.358 OA
HETATM   25  H8  UNK     1      22.191  -8.834  40.413  1.00  0.00     0.217 HD
ENDBRANCH  11  24
TORSDOF 5
ENDMDL
MODEL 10
REMARK VINA RESULT:      -7.2      1.973      3.800
REMARK  5 active torsions:
REMARK  status: ('A' for Active; 'I' for Inactive)
REMARK    1  A    between atoms: C9_15  and  O2_2 
REMARK    2  A    between atoms: C10_16  and  O4_4 
REMARK    3  A    between atoms: C15_21  and  O5_5 
REMARK    4  A    between atoms: C17_23  and  O5_5 
REMARK    5  A    between atoms: C2_8  and  C5_11 
ROOT
HETATM    1  O1  UNK     1      14.419   8.902  34.481  1.00  0.00    -0.321 OA
HETATM    2  O3  UNK     1      18.269   9.647  33.354  1.00  0.00    -0.286 OA
HETATM    3  C1  UNK     1      16.312  10.420  34.408  1.00  0.00     0.052 A 
HETATM    4  C2  UNK     1      16.462   8.098  33.442  1.00  0.00     0.048 A 
HETATM    5  C3  UNK     1      14.998  10.114  34.759  1.00  0.00     0.092 A 
HETATM    6  C4  UNK     1      17.122   9.407  33.706  1.00  0.00     0.198 A 
HETATM    7  C6  UNK     1      16.848  11.674  34.715  1.00  0.00     0.058 A 
HETATM    8  C7  UNK     1      15.190   7.959  33.847  1.00  0.00     0.159 A 
HETATM    9  C8  UNK     1      14.212  11.060  35.420  1.00  0.00     0.077 A 
HETATM   10  C9  UNK     1      16.061  12.617  35.376  1.00  0.00     0.102 A 
HETATM   11  C10 UNK     1      14.746  12.312  35.728  1.00  0.00     0.101 A 
ENDROOT
BRANCH   4  12
HETATM   12  C5  UNK     1      17.170   6.988  32.785  1.00  0.00    -0.020 A 
HETATM   13  C11 UNK     1      17.521   5.854  33.517  1.00  0.00     0.015 A 
HETATM   14  C13 UNK     1      18.191   4.801  32.894  1.00  0.00     0.038 A 
HETATM   15  C15 UNK     1      18.511   4.883  31.538  1.00  0.00     0.079 A 
HETATM   16  C14 UNK     1      18.159   6.017  30.807  1.00  0.00     0.038 A 
HETATM   17  C12 UNK     1      17.489   7.069  31.430  1.00  0.00     0.015 A 
BRANCH  15  18
HETATM   18  O5  UNK     1      19.165   3.855  30.930  1.00  0.00    -0.279 OA
BRANCH  18  19
HETATM   19  C17 UNK     1      18.354   2.741  30.656  1.00  0.00     0.260 C 
HETATM   20  O6  UNK     1      17.135   2.699  30.765  1.00  0.00    -0.265 OA
HETATM   21  C18 UNK     1      19.202   1.588  30.206  1.00  0.00     0.126 C 
ENDBRANCH  18  19
ENDBRANCH  15  18
ENDBRANCH   4  12
BRANCH  10  22
HETATM   22  O2  UNK     1      16.589  13.837  35.675  1.00  0.00    -0.353 OA
HETATM   23  C16 UNK     1      16.908  14.692  34.579  1.00  0.00     0.210 C 
ENDBRANCH  10  22
BRANCH  11  24
HETATM   24  O4  UNK     1      13.972  13.227  36.374  1.00  0.00    -0.358 OA
HETATM   25  H8  UNK     1      13.050  12.917  36.379  1.00  0.00     0.217 HD
ENDBRANCH  11  24
TORSDOF 5
ENDMDL
