MODEL 1
REMARK VINA RESULT:      -8.1      0.000      0.000
REMARK  4 active torsions:
REMARK  status: ('A' for Active; 'I' for Inactive)
REMARK    1  A    between atoms: C6_11  and  O2_2 
REMARK    2  A    between atoms: C5_10  and  O3_3 
REMARK    3  A    between atoms: C9_14  and  O4_4 
REMARK    4  A    between atoms: C1_6  and  C2_7 
ROOT
HETATM    1  O1  UNK     1      19.091  -1.240  17.689  1.00  0.00    -0.306 OA
HETATM    2  O5  UNK     1      19.235   2.145  15.423  1.00  0.00    -0.284 OA
HETATM    3  C2  UNK     1      19.236  -1.297  16.312  1.00  0.00     0.126 A 
HETATM    4  C3  UNK     1      19.057   1.184  17.570  1.00  0.00     0.051 A 
HETATM    5  C4  UNK     1      19.011  -0.010  18.288  1.00  0.00     0.090 A 
HETATM    6  C5  UNK     1      19.286  -0.222  15.504  1.00  0.00     0.152 A 
HETATM    7  C7  UNK     1      19.196   1.130  16.107  1.00  0.00     0.220 A 
HETATM    8  C10 UNK     1      18.970   2.410  18.235  1.00  0.00     0.018 A 
HETATM    9  C11 UNK     1      18.877   0.015  19.676  1.00  0.00     0.038 A 
HETATM   10  C14 UNK     1      18.837   2.432  19.623  1.00  0.00     0.001 A 
HETATM   11  C15 UNK     1      18.790   1.238  20.343  1.00  0.00     0.003 A 
ENDROOT
BRANCH   3  12
HETATM   12  C1  UNK     1      19.312  -2.675  15.798  1.00  0.00     0.037 A 
HETATM   13  C6  UNK     1      20.496  -3.411  15.872  1.00  0.00     0.081 A 
HETATM   14  C12 UNK     1      20.543  -4.715  15.378  1.00  0.00     0.040 A 
HETATM   15  C13 UNK     1      19.405  -5.286  14.808  1.00  0.00     0.039 A 
HETATM   16  C9  UNK     1      18.221  -4.554  14.733  1.00  0.00     0.069 A 
HETATM   17  C8  UNK     1      18.174  -3.249  15.227  1.00  0.00     0.054 A 
BRANCH  13  18
HETATM   18  O2  UNK     1      21.624  -2.877  16.425  1.00  0.00    -0.355 OA
HETATM   19  C16 UNK     1      22.837  -3.604  16.249  1.00  0.00     0.210 C 
ENDBRANCH  13  18
BRANCH  16  20
HETATM   20  O4  UNK     1      17.110  -5.112  14.177  1.00  0.00    -0.356 OA
HETATM   21  C17 UNK     1      16.943  -6.519  14.334  1.00  0.00     0.210 C 
ENDBRANCH  16  20
ENDBRANCH   3  12
BRANCH   6  22
HETATM   22  O3  UNK     1      19.398  -0.314  14.134  1.00  0.00    -0.355 OA
HETATM   23  H8  UNK     1      20.319  -0.500  13.889  1.00  0.00     0.218 HD
ENDBRANCH   6  22
TORSDOF 4
ENDMDL
MODEL 2
REMARK VINA RESULT:      -8.1     12.266     14.881
REMARK  4 active torsions:
REMARK  status: ('A' for Active; 'I' for Inactive)
REMARK    1  A    between atoms: C6_11  and  O2_2 
REMARK    2  A    between atoms: C5_10  and  O3_3 
REMARK    3  A    between atoms: C9_14  and  O4_4 
REMARK    4  A    between atoms: C1_6  and  C2_7 
ROOT
HETATM    1  O1  UNK     1      11.631   7.990   9.032  1.00  0.00    -0.306 OA
HETATM    2  O5  UNK     1      11.368   5.816   5.595  1.00  0.00    -0.284 OA
HETATM    3  C2  UNK     1      12.760   7.644   8.307  1.00  0.00     0.126 A 
HETATM    4  C3  UNK     1      10.247   6.855   7.393  1.00  0.00     0.051 A 
HETATM    5  C4  UNK     1      10.405   7.596   8.562  1.00  0.00     0.090 A 
HETATM    6  C5  UNK     1      12.746   6.925   7.170  1.00  0.00     0.152 A 
HETATM    7  C7  UNK     1      11.444   6.472   6.626  1.00  0.00     0.220 A 
HETATM    8  C10 UNK     1       8.972   6.481   6.960  1.00  0.00     0.018 A 
HETATM    9  C11 UNK     1       9.286   7.969   9.307  1.00  0.00     0.038 A 
HETATM   10  C14 UNK     1       7.855   6.856   7.707  1.00  0.00     0.001 A 
HETATM   11  C15 UNK     1       8.011   7.599   8.878  1.00  0.00     0.003 A 
ENDROOT
BRANCH   3  12
HETATM   12  C1  UNK     1      14.008   8.129   8.921  1.00  0.00     0.037 A 
HETATM   13  C6  UNK     1      14.662   7.390   9.910  1.00  0.00     0.081 A 
HETATM   14  C12 UNK     1      15.843   7.870  10.476  1.00  0.00     0.040 A 
HETATM   15  C13 UNK     1      16.373   9.090  10.056  1.00  0.00     0.039 A 
HETATM   16  C9  UNK     1      15.722   9.829   9.069  1.00  0.00     0.069 A 
HETATM   17  C8  UNK     1      14.541   9.349   8.501  1.00  0.00     0.054 A 
BRANCH  13  18
HETATM   18  O2  UNK     1      14.166   6.194  10.339  1.00  0.00    -0.355 OA
HETATM   19  C16 UNK     1      14.908   5.026   9.998  1.00  0.00     0.210 C 
ENDBRANCH  13  18
BRANCH  16  20
HETATM   20  O4  UNK     1      16.240  11.020   8.658  1.00  0.00    -0.356 OA
HETATM   21  C17 UNK     1      15.674  11.604   7.487  1.00  0.00     0.210 C 
ENDBRANCH  16  20
ENDBRANCH   3  12
BRANCH   6  22
HETATM   22  O3  UNK     1      13.891   6.570   6.490  1.00  0.00    -0.355 OA
HETATM   23  H8  UNK     1      13.738   6.629   5.533  1.00  0.00     0.218 HD
ENDBRANCH   6  22
TORSDOF 4
ENDMDL
MODEL 3
REMARK VINA RESULT:      -8.0     12.099     14.918
REMARK  4 active torsions:
REMARK  status: ('A' for Active; 'I' for Inactive)
REMARK    1  A    between atoms: C6_11  and  O2_2 
REMARK    2  A    between atoms: C5_10  and  O3_3 
REMARK    3  A    between atoms: C9_14  and  O4_4 
REMARK    4  A    between atoms: C1_6  and  C2_7 
ROOT
HETATM    1  O1  UNK     1      12.789   7.433   7.727  1.00  0.00    -0.306 OA
HETATM    2  O5  UNK     1       9.555   8.363  10.025  1.00  0.00    -0.284 OA
HETATM    3  C2  UNK     1      12.926   8.114   8.926  1.00  0.00     0.126 A 
HETATM    4  C3  UNK     1      10.388   7.343   8.068  1.00  0.00     0.051 A 
HETATM    5  C4  UNK     1      11.533   7.058   7.327  1.00  0.00     0.090 A 
HETATM    6  C5  UNK     1      11.903   8.457   9.729  1.00  0.00     0.152 A 
HETATM    7  C7  UNK     1      10.525   8.078   9.335  1.00  0.00     0.220 A 
HETATM    8  C10 UNK     1       9.132   6.935   7.611  1.00  0.00     0.018 A 
HETATM    9  C11 UNK     1      11.429   6.364   6.122  1.00  0.00     0.038 A 
HETATM   10  C14 UNK     1       9.031   6.240   6.406  1.00  0.00     0.001 A 
HETATM   11  C15 UNK     1      10.177   5.955   5.662  1.00  0.00     0.003 A 
ENDROOT
BRANCH   3  12
HETATM   12  C1  UNK     1      14.325   8.456   9.237  1.00  0.00     0.037 A 
HETATM   13  C6  UNK     1      15.107   7.632  10.050  1.00  0.00     0.081 A 
HETATM   14  C12 UNK     1      16.429   7.977  10.330  1.00  0.00     0.040 A 
HETATM   15  C13 UNK     1      16.972   9.147   9.800  1.00  0.00     0.039 A 
HETATM   16  C9  UNK     1      16.193   9.971   8.988  1.00  0.00     0.069 A 
HETATM   17  C8  UNK     1      14.871   9.626   8.706  1.00  0.00     0.054 A 
BRANCH  13  18
HETATM   18  O2  UNK     1      14.600   6.482  10.581  1.00  0.00    -0.355 OA
HETATM   19  C16 UNK     1      15.087   5.254  10.046  1.00  0.00     0.210 C 
ENDBRANCH  13  18
BRANCH  16  20
HETATM   20  O4  UNK     1      16.724  11.113   8.470  1.00  0.00    -0.356 OA
HETATM   21  C17 UNK     1      15.953  11.800   7.487  1.00  0.00     0.210 C 
ENDBRANCH  16  20
ENDBRANCH   3  12
BRANCH   6  22
HETATM   22  O3  UNK     1      12.070   9.165  10.901  1.00  0.00    -0.355 OA
HETATM   23  H8  UNK     1      12.770   9.829  10.788  1.00  0.00     0.218 HD
ENDBRANCH   6  22
TORSDOF 4
ENDMDL
MODEL 4
REMARK VINA RESULT:      -7.7     15.056     17.893
REMARK  4 active torsions:
REMARK  status: ('A' for Active; 'I' for Inactive)
REMARK    1  A    between atoms: C6_11  and  O2_2 
REMARK    2  A    between atoms: C5_10  and  O3_3 
REMARK    3  A    between atoms: C9_14  and  O4_4 
REMARK    4  A    between atoms: C1_6  and  C2_7 
ROOT
HETATM    1  O1  UNK     1      16.584   5.824  32.598  1.00  0.00    -0.306 OA
HETATM    2  O5  UNK     1      19.052   7.899  35.090  1.00  0.00    -0.284 OA
HETATM    3  C2  UNK     1      17.876   5.396  32.856  1.00  0.00     0.126 A 
HETATM    4  C3  UNK     1      16.929   7.716  34.078  1.00  0.00     0.051 A 
HETATM    5  C4  UNK     1      16.136   6.964  33.214  1.00  0.00     0.090 A 
HETATM    6  C5  UNK     1      18.745   6.035  33.662  1.00  0.00     0.152 A 
HETATM    7  C7  UNK     1      18.307   7.275  34.345  1.00  0.00     0.220 A 
HETATM    8  C10 UNK     1      16.419   8.870  34.679  1.00  0.00     0.018 A 
HETATM    9  C11 UNK     1      14.827   7.362  32.943  1.00  0.00     0.038 A 
HETATM   10  C14 UNK     1      15.109   9.266  34.406  1.00  0.00     0.001 A 
HETATM   11  C15 UNK     1      14.314   8.514  33.541  1.00  0.00     0.003 A 
ENDROOT
BRANCH   3  12
HETATM   12  C1  UNK     1      18.229   4.162  32.134  1.00  0.00     0.037 A 
HETATM   13  C6  UNK     1      18.657   4.199  30.805  1.00  0.00     0.081 A 
HETATM   14  C12 UNK     1      18.986   3.016  30.142  1.00  0.00     0.040 A 
HETATM   15  C13 UNK     1      18.886   1.794  30.806  1.00  0.00     0.039 A 
HETATM   16  C9  UNK     1      18.460   1.755  32.133  1.00  0.00     0.069 A 
HETATM   17  C8  UNK     1      18.132   2.937  32.797  1.00  0.00     0.054 A 
BRANCH  13  18
HETATM   18  O2  UNK     1      18.763   5.381  30.132  1.00  0.00    -0.355 OA
HETATM   19  C16 UNK     1      20.061   5.965  30.053  1.00  0.00     0.210 C 
ENDBRANCH  13  18
BRANCH  16  20
HETATM   20  O4  UNK     1      18.363   0.560  32.781  1.00  0.00    -0.356 OA
HETATM   21  C17 UNK     1      19.050  -0.548  32.204  1.00  0.00     0.210 C 
ENDBRANCH  16  20
ENDBRANCH   3  12
BRANCH   6  22
HETATM   22  O3  UNK     1      20.036   5.600  33.872  1.00  0.00    -0.355 OA
HETATM   23  H8  UNK     1      20.310   5.018  33.145  1.00  0.00     0.218 HD
ENDBRANCH   6  22
TORSDOF 4
ENDMDL
MODEL 5
REMARK VINA RESULT:      -7.7     18.434     20.751
REMARK  4 active torsions:
REMARK  status: ('A' for Active; 'I' for Inactive)
REMARK    1  A    between atoms: C6_11  and  O2_2 
REMARK    2  A    between atoms: C5_10  and  O3_3 
REMARK    3  A    between atoms: C9_14  and  O4_4 
REMARK    4  A    between atoms: C1_6  and  C2_7 
ROOT
HETATM    1  O1  UNK     1      19.013  -2.424  37.522  1.00  0.00    -0.306 OA
HETATM    2  O5  UNK     1      19.492  -1.204  33.663  1.00  0.00    -0.284 OA
HETATM    3  C2  UNK     1      19.648  -3.223  36.584  1.00  0.00     0.126 A 
HETATM    4  C3  UNK     1      18.690  -0.717  35.827  1.00  0.00     0.051 A 
HETATM    5  C4  UNK     1      18.555  -1.194  37.129  1.00  0.00     0.090 A 
HETATM    6  C5  UNK     1      19.835  -2.886  35.295  1.00  0.00     0.152 A 
HETATM    7  C7  UNK     1      19.351  -1.566  34.823  1.00  0.00     0.220 A 
HETATM    8  C10 UNK     1      18.204   0.547  35.484  1.00  0.00     0.018 A 
HETATM    9  C11 UNK     1      17.931  -0.408  38.098  1.00  0.00     0.038 A 
HETATM   10  C14 UNK     1      17.580   1.331  36.455  1.00  0.00     0.001 A 
HETATM   11  C15 UNK     1      17.444   0.855  37.760  1.00  0.00     0.003 A 
ENDROOT
BRANCH   3  12
HETATM   12  C1  UNK     1      20.092  -4.515  37.135  1.00  0.00     0.037 A 
HETATM   13  C6  UNK     1      19.255  -5.633  37.120  1.00  0.00     0.081 A 
HETATM   14  C12 UNK     1      19.697  -6.847  37.648  1.00  0.00     0.040 A 
HETATM   15  C13 UNK     1      20.977  -6.944  38.193  1.00  0.00     0.039 A 
HETATM   16  C9  UNK     1      21.815  -5.829  38.209  1.00  0.00     0.069 A 
HETATM   17  C8  UNK     1      21.373  -4.616  37.681  1.00  0.00     0.054 A 
BRANCH  13  18
HETATM   18  O2  UNK     1      17.999  -5.566  36.592  1.00  0.00    -0.355 OA
HETATM   19  C16 UNK     1      17.413  -6.790  36.158  1.00  0.00     0.210 C 
ENDBRANCH  13  18
BRANCH  16  20
HETATM   20  O4  UNK     1      23.065  -5.925  38.742  1.00  0.00    -0.356 OA
HETATM   21  C17 UNK     1      23.511  -7.226  39.119  1.00  0.00     0.210 C 
ENDBRANCH  16  20
ENDBRANCH   3  12
BRANCH   6  22
HETATM   22  O3  UNK     1      20.442  -3.718  34.379  1.00  0.00    -0.355 OA
HETATM   23  H8  UNK     1      19.768  -4.198  33.871  1.00  0.00     0.218 HD
ENDBRANCH   6  22
TORSDOF 4
ENDMDL
MODEL 6
REMARK VINA RESULT:      -7.7     11.631     13.575
REMARK  4 active torsions:
REMARK  status: ('A' for Active; 'I' for Inactive)
REMARK    1  A    between atoms: C6_11  and  O2_2 
REMARK    2  A    between atoms: C5_10  and  O3_3 
REMARK    3  A    between atoms: C9_14  and  O4_4 
REMARK    4  A    between atoms: C1_6  and  C2_7 
ROOT
HETATM    1  O1  UNK     1      12.243   7.358   9.868  1.00  0.00    -0.306 OA
HETATM    2  O5  UNK     1      15.197   4.607   9.307  1.00  0.00    -0.284 OA
HETATM    3  C2  UNK     1      11.987   6.133   9.273  1.00  0.00     0.126 A 
HETATM    4  C3  UNK     1      14.573   6.730  10.124  1.00  0.00     0.051 A 
HETATM    5  C4  UNK     1      13.521   7.629  10.283  1.00  0.00     0.090 A 
HETATM    6  C5  UNK     1      12.914   5.183   9.053  1.00  0.00     0.152 A 
HETATM    7  C7  UNK     1      14.311   5.433   9.480  1.00  0.00     0.220 A 
HETATM    8  C10 UNK     1      15.857   7.060  10.567  1.00  0.00     0.018 A 
HETATM    9  C11 UNK     1      13.745   8.866  10.888  1.00  0.00     0.038 A 
HETATM   10  C14 UNK     1      16.078   8.298  11.173  1.00  0.00     0.001 A 
HETATM   11  C15 UNK     1      15.025   9.199  11.333  1.00  0.00     0.003 A 
ENDROOT
BRANCH   3  12
HETATM   12  C1  UNK     1      10.578   5.970   8.876  1.00  0.00     0.037 A 
HETATM   13  C6  UNK     1      10.115   6.441   7.645  1.00  0.00     0.081 A 
HETATM   14  C12 UNK     1       8.775   6.275   7.291  1.00  0.00     0.040 A 
HETATM   15  C13 UNK     1       7.896   5.638   8.167  1.00  0.00     0.039 A 
HETATM   16  C9  UNK     1       8.357   5.167   9.396  1.00  0.00     0.069 A 
HETATM   17  C8  UNK     1       9.696   5.332   9.751  1.00  0.00     0.054 A 
BRANCH  13  18
HETATM   18  O2  UNK     1      10.953   7.067   6.770  1.00  0.00    -0.355 OA
HETATM   19  C16 UNK     1      11.547   6.261   5.755  1.00  0.00     0.210 C 
ENDBRANCH  13  18
BRANCH  16  20
HETATM   20  O4  UNK     1       7.498   4.545  10.251  1.00  0.00    -0.356 OA
HETATM   21  C17 UNK     1       6.674   3.515   9.708  1.00  0.00     0.210 C 
ENDBRANCH  16  20
ENDBRANCH   3  12
BRANCH   6  22
HETATM   22  O3  UNK     1      12.632   3.986   8.429  1.00  0.00    -0.355 OA
HETATM   23  H8  UNK     1      13.007   3.251   8.941  1.00  0.00     0.218 HD
ENDBRANCH   6  22
TORSDOF 4
ENDMDL
MODEL 7
REMARK VINA RESULT:      -7.6     14.285     17.928
REMARK  4 active torsions:
REMARK  status: ('A' for Active; 'I' for Inactive)
REMARK    1  A    between atoms: C6_11  and  O2_2 
REMARK    2  A    between atoms: C5_10  and  O3_3 
REMARK    3  A    between atoms: C9_14  and  O4_4 
REMARK    4  A    between atoms: C1_6  and  C2_7 
ROOT
HETATM    1  O1  UNK     1      18.984  -0.839  32.808  1.00  0.00    -0.306 OA
HETATM    2  O5  UNK     1      19.009   2.614  30.643  1.00  0.00    -0.284 OA
HETATM    3  C2  UNK     1      18.439   0.333  33.309  1.00  0.00     0.126 A 
HETATM    4  C3  UNK     1      19.563   0.324  30.758  1.00  0.00     0.051 A 
HETATM    5  C4  UNK     1      19.527  -0.822  31.549  1.00  0.00     0.090 A 
HETATM    6  C5  UNK     1      18.418   1.507  32.652  1.00  0.00     0.152 A 
HETATM    7  C7  UNK     1      18.999   1.574  31.289  1.00  0.00     0.220 A 
HETATM    8  C10 UNK     1      20.129   0.282  29.480  1.00  0.00     0.018 A 
HETATM    9  C11 UNK     1      20.057  -2.019  31.068  1.00  0.00     0.038 A 
HETATM   10  C14 UNK     1      20.658  -0.917  29.002  1.00  0.00     0.001 A 
HETATM   11  C15 UNK     1      20.622  -2.066  29.794  1.00  0.00     0.003 A 
ENDROOT
BRANCH   3  12
HETATM   12  C1  UNK     1      17.890   0.177  34.667  1.00  0.00     0.037 A 
HETATM   13  C6  UNK     1      18.674  -0.320  35.711  1.00  0.00     0.081 A 
HETATM   14  C12 UNK     1      18.132  -0.458  36.989  1.00  0.00     0.040 A 
HETATM   15  C13 UNK     1      16.804  -0.100  37.225  1.00  0.00     0.039 A 
HETATM   16  C9  UNK     1      16.020   0.397  36.185  1.00  0.00     0.069 A 
HETATM   17  C8  UNK     1      16.562   0.536  34.906  1.00  0.00     0.054 A 
BRANCH  13  18
HETATM   18  O2  UNK     1      19.975  -0.677  35.506  1.00  0.00    -0.355 OA
HETATM   19  C16 UNK     1      20.339  -2.013  35.844  1.00  0.00     0.210 C 
ENDBRANCH  13  18
BRANCH  16  20
HETATM   20  O4  UNK     1      14.724   0.746  36.417  1.00  0.00    -0.356 OA
HETATM   21  C17 UNK     1      14.497   1.965  37.121  1.00  0.00     0.210 C 
ENDBRANCH  16  20
ENDBRANCH   3  12
BRANCH   6  22
HETATM   22  O3  UNK     1      17.897   2.663  33.192  1.00  0.00    -0.355 OA
HETATM   23  H8  UNK     1      17.419   3.160  32.508  1.00  0.00     0.218 HD
ENDBRANCH   6  22
TORSDOF 4
ENDMDL
MODEL 8
REMARK VINA RESULT:      -7.6     14.912     17.829
REMARK  4 active torsions:
REMARK  status: ('A' for Active; 'I' for Inactive)
REMARK    1  A    between atoms: C6_11  and  O2_2 
REMARK    2  A    between atoms: C5_10  and  O3_3 
REMARK    3  A    between atoms: C9_14  and  O4_4 
REMARK    4  A    between atoms: C1_6  and  C2_7 
ROOT
HETATM    1  O1  UNK     1      18.032   3.274  33.217  1.00  0.00    -0.306 OA
HETATM    2  O5  UNK     1      19.300   1.752  29.655  1.00  0.00    -0.284 OA
HETATM    3  C2  UNK     1      18.222   4.086  32.110  1.00  0.00     0.126 A 
HETATM    4  C3  UNK     1      18.698   1.347  31.900  1.00  0.00     0.051 A 
HETATM    5  C4  UNK     1      18.267   1.929  33.090  1.00  0.00     0.090 A 
HETATM    6  C5  UNK     1      18.643   3.652  30.908  1.00  0.00     0.152 A 
HETATM    7  C7  UNK     1      18.915   2.206  30.725  1.00  0.00     0.220 A 
HETATM    8  C10 UNK     1      18.921  -0.031  31.828  1.00  0.00     0.018 A 
HETATM    9  C11 UNK     1      18.055   1.136  34.218  1.00  0.00     0.038 A 
HETATM   10  C14 UNK     1      18.708  -0.821  32.958  1.00  0.00     0.001 A 
HETATM   11  C15 UNK     1      18.276  -0.240  34.150  1.00  0.00     0.003 A 
ENDROOT
BRANCH   3  12
HETATM   12  C1  UNK     1      17.935   5.505  32.382  1.00  0.00     0.037 A 
HETATM   13  C6  UNK     1      18.878   6.327  33.003  1.00  0.00     0.081 A 
HETATM   14  C12 UNK     1      18.582   7.668  33.250  1.00  0.00     0.040 A 
HETATM   15  C13 UNK     1      17.343   8.190  32.877  1.00  0.00     0.039 A 
HETATM   16  C9  UNK     1      16.401   7.370  32.257  1.00  0.00     0.069 A 
HETATM   17  C8  UNK     1      16.696   6.029  32.009  1.00  0.00     0.054 A 
BRANCH  13  18
HETATM   18  O2  UNK     1      20.097   5.843  33.378  1.00  0.00    -0.355 OA
HETATM   19  C16 UNK     1      21.230   6.314  32.653  1.00  0.00     0.210 C 
ENDBRANCH  13  18
BRANCH  16  20
HETATM   20  O4  UNK     1      15.191   7.880  31.893  1.00  0.00    -0.356 OA
HETATM   21  C17 UNK     1      14.034   7.278  32.468  1.00  0.00     0.210 C 
ENDBRANCH  16  20
ENDBRANCH   3  12
BRANCH   6  22
HETATM   22  O3  UNK     1      18.854   4.492  29.836  1.00  0.00    -0.355 OA
HETATM   23  H8  UNK     1      19.767   4.822  29.850  1.00  0.00     0.218 HD
ENDBRANCH   6  22
TORSDOF 4
ENDMDL
MODEL 9
REMARK VINA RESULT:      -7.6     13.823     17.098
REMARK  4 active torsions:
REMARK  status: ('A' for Active; 'I' for Inactive)
REMARK    1  A    between atoms: C6_11  and  O2_2 
REMARK    2  A    between atoms: C5_10  and  O3_3 
REMARK    3  A    between atoms: C9_14  and  O4_4 
REMARK    4  A    between atoms: C1_6  and  C2_7 
ROOT
HETATM    1  O1  UNK     1      18.997   0.786  34.011  1.00  0.00    -0.306 OA
HETATM    2  O5  UNK     1      15.787  -1.513  35.021  1.00  0.00    -0.284 OA
HETATM    3  C2  UNK     1      18.464  -0.139  33.128  1.00  0.00     0.126 A 
HETATM    4  C3  UNK     1      17.311   0.176  35.646  1.00  0.00     0.051 A 
HETATM    5  C4  UNK     1      18.411   0.929  35.242  1.00  0.00     0.090 A 
HETATM    6  C5  UNK     1      17.411  -0.933  33.397  1.00  0.00     0.152 A 
HETATM    7  C7  UNK     1      16.748  -0.818  34.718  1.00  0.00     0.220 A 
HETATM    8  C10 UNK     1      16.753   0.365  36.914  1.00  0.00     0.018 A 
HETATM    9  C11 UNK     1      18.963   1.876  36.104  1.00  0.00     0.038 A 
HETATM   10  C14 UNK     1      17.308   1.313  37.774  1.00  0.00     0.001 A 
HETATM   11  C15 UNK     1      18.410   2.068  37.370  1.00  0.00     0.003 A 
ENDROOT
BRANCH   3  12
HETATM   12  C1  UNK     1      19.185  -0.191  31.844  1.00  0.00     0.037 A 
HETATM   13  C6  UNK     1      20.218  -1.107  31.632  1.00  0.00     0.081 A 
HETATM   14  C12 UNK     1      20.887  -1.137  30.408  1.00  0.00     0.040 A 
HETATM   15  C13 UNK     1      20.523  -0.251  29.393  1.00  0.00     0.039 A 
HETATM   16  C9  UNK     1      19.491   0.663  29.603  1.00  0.00     0.069 A 
HETATM   17  C8  UNK     1      18.822   0.693  30.827  1.00  0.00     0.054 A 
BRANCH  13  18
HETATM   18  O2  UNK     1      20.593  -1.984  32.607  1.00  0.00    -0.355 OA
HETATM   19  C16 UNK     1      21.156  -3.222  32.182  1.00  0.00     0.210 C 
ENDBRANCH  13  18
BRANCH  16  20
HETATM   20  O4  UNK     1      19.137   1.527  28.611  1.00  0.00    -0.356 OA
HETATM   21  C17 UNK     1      17.871   2.171  28.734  1.00  0.00     0.210 C 
ENDBRANCH  16  20
ENDBRANCH   3  12
BRANCH   6  22
HETATM   22  O3  UNK     1      16.925  -1.867  32.508  1.00  0.00    -0.355 OA
HETATM   23  H8  UNK     1      17.458  -1.858  31.696  1.00  0.00     0.218 HD
ENDBRANCH   6  22
TORSDOF 4
ENDMDL
MODEL 10
REMARK VINA RESULT:      -7.6      1.024      2.687
REMARK  4 active torsions:
REMARK  status: ('A' for Active; 'I' for Inactive)
REMARK    1  A    between atoms: C6_11  and  O2_2 
REMARK    2  A    between atoms: C5_10  and  O3_3 
REMARK    3  A    between atoms: C9_14  and  O4_4 
REMARK    4  A    between atoms: C1_6  and  C2_7 
ROOT
HETATM    1  O1  UNK     1      19.244  -1.058  17.771  1.00  0.00    -0.306 OA
HETATM    2  O5  UNK     1      19.187   2.281  15.434  1.00  0.00    -0.284 OA
HETATM    3  C2  UNK     1      19.349  -1.139  16.391  1.00  0.00     0.126 A 
HETATM    4  C3  UNK     1      19.112   1.360  17.604  1.00  0.00     0.051 A 
HETATM    5  C4  UNK     1      19.134   0.181  18.347  1.00  0.00     0.090 A 
HETATM    6  C5  UNK     1      19.332  -0.080  15.561  1.00  0.00     0.152 A 
HETATM    7  C7  UNK     1      19.208   1.280  16.138  1.00  0.00     0.220 A 
HETATM    8  C10 UNK     1      18.998   2.596  18.246  1.00  0.00     0.018 A 
HETATM    9  C11 UNK     1      19.042   0.231  19.738  1.00  0.00     0.038 A 
HETATM   10  C14 UNK     1      18.906   2.643  19.637  1.00  0.00     0.001 A 
HETATM   11  C15 UNK     1      18.928   1.463  20.382  1.00  0.00     0.003 A 
ENDROOT
BRANCH   3  12
HETATM   12  C1  UNK     1      19.463  -2.524  15.903  1.00  0.00     0.037 A 
HETATM   13  C6  UNK     1      18.342  -3.226  15.453  1.00  0.00     0.081 A 
HETATM   14  C12 UNK     1      18.475  -4.537  14.996  1.00  0.00     0.040 A 
HETATM   15  C13 UNK     1      19.728  -5.150  14.988  1.00  0.00     0.039 A 
HETATM   16  C9  UNK     1      20.848  -4.450  15.436  1.00  0.00     0.069 A 
HETATM   17  C8  UNK     1      20.717  -3.138  15.893  1.00  0.00     0.054 A 
BRANCH  13  18
HETATM   18  O2  UNK     1      17.105  -2.651  15.450  1.00  0.00    -0.355 OA
HETATM   19  C16 UNK     1      16.313  -2.815  16.624  1.00  0.00     0.210 C 
ENDBRANCH  13  18
BRANCH  16  20
HETATM   20  O4  UNK     1      22.072  -5.049  15.428  1.00  0.00    -0.356 OA
HETATM   21  C17 UNK     1      22.921  -4.804  16.547  1.00  0.00     0.210 C 
ENDBRANCH  16  20
ENDBRANCH   3  12
BRANCH   6  22
HETATM   22  O3  UNK     1      19.406  -0.197  14.190  1.00  0.00    -0.355 OA
HETATM   23  H8  UNK     1      18.717  -0.805  13.873  1.00  0.00     0.218 HD
ENDBRANCH   6  22
TORSDOF 4
ENDMDL
