MODEL 1
REMARK VINA RESULT:      -8.1      0.000      0.000
REMARK  3 active torsions:
REMARK  status: ('A' for Active; 'I' for Inactive)
REMARK    1  A    between atoms: C5_9  and  O1_1 
REMARK    2  A    between atoms: C7_11  and  O1_1 
REMARK    3  A    between atoms: C1_5  and  C5_9 
ROOT
HETATM    1  O2  UNK     1      19.257  -0.162  32.818  1.00  0.00    -0.275 OA
HETATM    2  O4  UNK     1      20.060  -2.248  33.299  1.00  0.00    -0.260 OA
HETATM    3  C6  UNK     1      19.367   0.661  30.520  1.00  0.00     0.004 A 
HETATM    4  C7  UNK     1      18.157   3.044  31.419  1.00  0.00     0.082 A 
HETATM    5  C8  UNK     1      19.018   0.843  31.859  1.00  0.00     0.092 A 
HETATM    6  C9  UNK     1      19.994  -0.608  30.122  1.00  0.00    -0.043 A 
HETATM    7  C10 UNK     1      18.418   2.016  32.319  1.00  0.00     0.075 A 
HETATM    8  C11 UNK     1      19.096   1.707  29.628  1.00  0.00     0.017 A 
HETATM    9  C12 UNK     1      18.495   2.889  30.076  1.00  0.00     0.038 A 
HETATM   10  C13 UNK     1      20.210  -1.545  31.056  1.00  0.00     0.090 A 
HETATM   11  C14 UNK     1      20.382  -0.834  28.691  1.00  0.00     0.049 C 
HETATM   12  C15 UNK     1      19.847  -1.368  32.473  1.00  0.00     0.288 A 
ENDROOT
BRANCH   4  13
HETATM   13  O1  UNK     1      17.573   4.195  31.847  1.00  0.00    -0.278 OA
BRANCH  13  14
HETATM   14  C5  UNK     1      18.355   4.950  32.745  1.00  0.00     0.271 C 
HETATM   15  O3  UNK     1      18.560   4.639  33.912  1.00  0.00    -0.264 OA
BRANCH  14  16
HETATM   16  C1  UNK     1      18.913   6.206  32.066  1.00  0.00     0.037 C 
HETATM   17  C2  UNK     1      20.198   5.851  31.306  1.00  0.00     0.025 C 
HETATM   18  C3  UNK     1      17.863   6.781  31.106  1.00  0.00     0.025 C 
HETATM   19  C4  UNK     1      19.241   7.260  33.136  1.00  0.00     0.025 C 
ENDBRANCH  14  16
ENDBRANCH  13  14
ENDBRANCH   4  13
TORSDOF 3
ENDMDL
MODEL 2
REMARK VINA RESULT:      -7.7      1.536      2.347
REMARK  3 active torsions:
REMARK  status: ('A' for Active; 'I' for Inactive)
REMARK    1  A    between atoms: C5_9  and  O1_1 
REMARK    2  A    between atoms: C7_11  and  O1_1 
REMARK    3  A    between atoms: C1_5  and  C5_9 
ROOT
HETATM    1  O2  UNK     1      19.623   0.916  29.457  1.00  0.00    -0.275 OA
HETATM    2  O4  UNK     1      20.587  -0.663  28.113  1.00  0.00    -0.260 OA
HETATM    3  C6  UNK     1      19.146   0.371  31.789  1.00  0.00     0.004 A 
HETATM    4  C7  UNK     1      18.112   2.977  32.085  1.00  0.00     0.082 A 
HETATM    5  C8  UNK     1      19.126   1.274  30.726  1.00  0.00     0.092 A 
HETATM    6  C9  UNK     1      19.702  -0.971  31.563  1.00  0.00    -0.043 A 
HETATM    7  C10 UNK     1      18.617   2.567  30.856  1.00  0.00     0.075 A 
HETATM    8  C11 UNK     1      18.634   0.803  33.020  1.00  0.00     0.017 A 
HETATM    9  C12 UNK     1      18.121   2.096  33.166  1.00  0.00     0.038 A 
HETATM   10  C13 UNK     1      20.167  -1.284  30.346  1.00  0.00     0.090 A 
HETATM   11  C14 UNK     1      19.738  -1.965  32.686  1.00  0.00     0.049 C 
HETATM   12  C15 UNK     1      20.152  -0.342  29.213  1.00  0.00     0.288 A 
ENDROOT
BRANCH   4  13
HETATM   13  O1  UNK     1      17.612   4.234  32.233  1.00  0.00    -0.278 OA
BRANCH  13  14
HETATM   14  C5  UNK     1      18.429   5.106  32.981  1.00  0.00     0.271 C 
HETATM   15  O3  UNK     1      18.824   4.877  34.118  1.00  0.00    -0.264 OA
BRANCH  14  16
HETATM   16  C1  UNK     1      18.758   6.372  32.182  1.00  0.00     0.037 C 
HETATM   17  C2  UNK     1      19.807   6.046  31.111  1.00  0.00     0.025 C 
HETATM   18  C3  UNK     1      17.478   6.915  31.532  1.00  0.00     0.025 C 
HETATM   19  C4  UNK     1      19.327   7.439  33.130  1.00  0.00     0.025 C 
ENDBRANCH  14  16
ENDBRANCH  13  14
ENDBRANCH   4  13
TORSDOF 3
ENDMDL
MODEL 3
REMARK VINA RESULT:      -7.7      0.899      1.415
REMARK  3 active torsions:
REMARK  status: ('A' for Active; 'I' for Inactive)
REMARK    1  A    between atoms: C5_9  and  O1_1 
REMARK    2  A    between atoms: C7_11  and  O1_1 
REMARK    3  A    between atoms: C1_5  and  C5_9 
ROOT
HETATM    1  O2  UNK     1      19.217  -0.027  32.770  1.00  0.00    -0.275 OA
HETATM    2  O4  UNK     1      19.959  -2.110  33.353  1.00  0.00    -0.260 OA
HETATM    3  C6  UNK     1      19.314   0.664  30.429  1.00  0.00     0.004 A 
HETATM    4  C7  UNK     1      18.199   3.132  31.213  1.00  0.00     0.082 A 
HETATM    5  C8  UNK     1      18.994   0.931  31.761  1.00  0.00     0.092 A 
HETATM    6  C9  UNK     1      19.892  -0.645  30.092  1.00  0.00    -0.043 A 
HETATM    7  C10 UNK     1      18.442   2.147  32.165  1.00  0.00     0.075 A 
HETATM    8  C11 UNK     1      19.061   1.669  29.485  1.00  0.00     0.017 A 
HETATM    9  C12 UNK     1      18.508   2.893  29.875  1.00  0.00     0.038 A 
HETATM   10  C13 UNK     1      20.093  -1.537  31.073  1.00  0.00     0.090 A 
HETATM   11  C14 UNK     1      20.247  -0.963  28.670  1.00  0.00     0.049 C 
HETATM   12  C15 UNK     1      19.761  -1.270  32.483  1.00  0.00     0.288 A 
ENDROOT
BRANCH   4  13
HETATM   13  O1  UNK     1      17.661   4.325  31.586  1.00  0.00    -0.278 OA
BRANCH  13  14
HETATM   14  C5  UNK     1      18.499   5.438  31.373  1.00  0.00     0.271 C 
HETATM   15  O3  UNK     1      19.004   5.725  30.294  1.00  0.00    -0.264 OA
BRANCH  14  16
HETATM   16  C1  UNK     1      18.690   6.239  32.666  1.00  0.00     0.037 C 
HETATM   17  C2  UNK     1      17.946   7.577  32.555  1.00  0.00     0.025 C 
HETATM   18  C3  UNK     1      18.161   5.427  33.855  1.00  0.00     0.025 C 
HETATM   19  C4  UNK     1      20.187   6.516  32.877  1.00  0.00     0.025 C 
ENDBRANCH  14  16
ENDBRANCH  13  14
ENDBRANCH   4  13
TORSDOF 3
ENDMDL
MODEL 4
REMARK VINA RESULT:      -7.6      3.042      5.412
REMARK  3 active torsions:
REMARK  status: ('A' for Active; 'I' for Inactive)
REMARK    1  A    between atoms: C5_9  and  O1_1 
REMARK    2  A    between atoms: C7_11  and  O1_1 
REMARK    3  A    between atoms: C1_5  and  C5_9 
ROOT
HETATM    1  O2  UNK     1      18.406   1.608  31.172  1.00  0.00    -0.275 OA
HETATM    2  O4  UNK     1      18.285   2.935  29.313  1.00  0.00    -0.260 OA
HETATM    3  C6  UNK     1      19.687  -0.469  31.075  1.00  0.00     0.004 A 
HETATM    4  C7  UNK     1      18.979  -0.917  33.767  1.00  0.00     0.082 A 
HETATM    5  C8  UNK     1      18.890   0.433  31.780  1.00  0.00     0.092 A 
HETATM    6  C9  UNK     1      20.018  -0.171  29.674  1.00  0.00    -0.043 A 
HETATM    7  C10 UNK     1      18.531   0.226  33.112  1.00  0.00     0.075 A 
HETATM    8  C11 UNK     1      20.129  -1.614  31.752  1.00  0.00     0.017 A 
HETATM    9  C12 UNK     1      19.777  -1.835  33.087  1.00  0.00     0.038 A 
HETATM   10  C13 UNK     1      19.543   0.954  29.121  1.00  0.00     0.090 A 
HETATM   11  C14 UNK     1      20.873  -1.121  28.889  1.00  0.00     0.049 C 
HETATM   12  C15 UNK     1      18.701   1.916  29.852  1.00  0.00     0.288 A 
ENDROOT
BRANCH   4  13
HETATM   13  O1  UNK     1      18.640  -1.138  35.066  1.00  0.00    -0.278 OA
BRANCH  13  14
HETATM   14  C5  UNK     1      18.690   0.007  35.887  1.00  0.00     0.271 C 
HETATM   15  O3  UNK     1      19.558   0.869  35.818  1.00  0.00    -0.264 OA
BRANCH  14  16
HETATM   16  C1  UNK     1      17.516   0.030  36.872  1.00  0.00     0.037 C 
HETATM   17  C2  UNK     1      16.200   0.191  36.099  1.00  0.00     0.025 C 
HETATM   18  C3  UNK     1      17.504  -1.271  37.686  1.00  0.00     0.025 C 
HETATM   19  C4  UNK     1      17.680   1.218  37.833  1.00  0.00     0.025 C 
ENDBRANCH  14  16
ENDBRANCH  13  14
ENDBRANCH   4  13
TORSDOF 3
ENDMDL
MODEL 5
REMARK VINA RESULT:      -7.5      2.410      3.858
REMARK  3 active torsions:
REMARK  status: ('A' for Active; 'I' for Inactive)
REMARK    1  A    between atoms: C5_9  and  O1_1 
REMARK    2  A    between atoms: C7_11  and  O1_1 
REMARK    3  A    between atoms: C1_5  and  C5_9 
ROOT
HETATM    1  O2  UNK     1      17.984   3.091  33.529  1.00  0.00    -0.275 OA
HETATM    2  O4  UNK     1      17.989   0.889  34.147  1.00  0.00    -0.260 OA
HETATM    3  C6  UNK     1      18.545   3.686  31.227  1.00  0.00     0.004 A 
HETATM    4  C7  UNK     1      18.151   6.387  31.934  1.00  0.00     0.082 A 
HETATM    5  C8  UNK     1      18.175   4.056  32.521  1.00  0.00     0.092 A 
HETATM    6  C9  UNK     1      18.732   2.259  30.929  1.00  0.00    -0.043 A 
HETATM    7  C10 UNK     1      17.977   5.389  32.886  1.00  0.00     0.075 A 
HETATM    8  C11 UNK     1      18.715   4.707  30.282  1.00  0.00     0.017 A 
HETATM    9  C12 UNK     1      18.520   6.046  30.634  1.00  0.00     0.038 A 
HETATM   10  C13 UNK     1      18.543   1.362  31.908  1.00  0.00     0.090 A 
HETATM   11  C14 UNK     1      19.129   1.828  29.549  1.00  0.00     0.049 C 
HETATM   12  C15 UNK     1      18.153   1.737  33.278  1.00  0.00     0.288 A 
ENDROOT
BRANCH   4  13
HETATM   13  O1  UNK     1      17.963   7.692  32.270  1.00  0.00    -0.278 OA
BRANCH  13  14
HETATM   14  C5  UNK     1      16.670   8.186  32.000  1.00  0.00     0.271 C 
HETATM   15  O3  UNK     1      16.197   8.303  30.875  1.00  0.00    -0.264 OA
BRANCH  14  16
HETATM   16  C1  UNK     1      15.939   8.553  33.296  1.00  0.00     0.037 C 
HETATM   17  C2  UNK     1      14.978   7.420  33.681  1.00  0.00     0.025 C 
HETATM   18  C3  UNK     1      16.963   8.791  34.413  1.00  0.00     0.025 C 
HETATM   19  C4  UNK     1      15.130   9.841  33.077  1.00  0.00     0.025 C 
ENDBRANCH  14  16
ENDBRANCH  13  14
ENDBRANCH   4  13
TORSDOF 3
ENDMDL
MODEL 6
REMARK VINA RESULT:      -7.5      2.945      5.507
REMARK  3 active torsions:
REMARK  status: ('A' for Active; 'I' for Inactive)
REMARK    1  A    between atoms: C5_9  and  O1_1 
REMARK    2  A    between atoms: C7_11  and  O1_1 
REMARK    3  A    between atoms: C1_5  and  C5_9 
ROOT
HETATM    1  O2  UNK     1      18.268   1.664  30.821  1.00  0.00    -0.275 OA
HETATM    2  O4  UNK     1      18.382   1.280  28.570  1.00  0.00    -0.260 OA
HETATM    3  C6  UNK     1      18.580   3.936  31.663  1.00  0.00     0.004 A 
HETATM    4  C7  UNK     1      18.204   2.918  34.266  1.00  0.00     0.082 A 
HETATM    5  C8  UNK     1      18.336   2.581  31.889  1.00  0.00     0.092 A 
HETATM    6  C9  UNK     1      18.765   4.397  30.280  1.00  0.00    -0.043 A 
HETATM    7  C10 UNK     1      18.149   2.062  33.171  1.00  0.00     0.075 A 
HETATM    8  C11 UNK     1      18.632   4.783  32.778  1.00  0.00     0.017 A 
HETATM    9  C12 UNK     1      18.446   4.277  34.069  1.00  0.00     0.038 A 
HETATM   10  C13 UNK     1      18.695   3.502  29.283  1.00  0.00     0.090 A 
HETATM   11  C14 UNK     1      19.029   5.847  30.003  1.00  0.00     0.049 C 
HETATM   12  C15 UNK     1      18.439   2.069  29.506  1.00  0.00     0.288 A 
ENDROOT
BRANCH   4  13
HETATM   13  O1  UNK     1      18.024   2.432  35.524  1.00  0.00    -0.278 OA
BRANCH  13  14
HETATM   14  C5  UNK     1      18.353   1.071  35.679  1.00  0.00     0.271 C 
HETATM   15  O3  UNK     1      19.430   0.580  35.360  1.00  0.00    -0.264 OA
BRANCH  14  16
HETATM   16  C1  UNK     1      17.190   0.290  36.299  1.00  0.00     0.037 C 
HETATM   17  C2  UNK     1      16.308  -0.289  35.185  1.00  0.00     0.025 C 
HETATM   18  C3  UNK     1      17.741  -0.834  37.186  1.00  0.00     0.025 C 
HETATM   19  C4  UNK     1      16.343   1.238  37.164  1.00  0.00     0.025 C 
ENDBRANCH  14  16
ENDBRANCH  13  14
ENDBRANCH   4  13
TORSDOF 3
ENDMDL
MODEL 7
REMARK VINA RESULT:      -7.4     22.830     24.443
REMARK  3 active torsions:
REMARK  status: ('A' for Active; 'I' for Inactive)
REMARK    1  A    between atoms: C5_9  and  O1_1 
REMARK    2  A    between atoms: C7_11  and  O1_1 
REMARK    3  A    between atoms: C1_5  and  C5_9 
ROOT
HETATM    1  O2  UNK     1       9.524   5.723   9.485  1.00  0.00    -0.275 OA
HETATM    2  O4  UNK     1       7.275   5.612   9.087  1.00  0.00    -0.260 OA
HETATM    3  C6  UNK     1      11.052   6.093   7.616  1.00  0.00     0.004 A 
HETATM    4  C7  UNK     1      13.180   5.996   9.463  1.00  0.00     0.082 A 
HETATM    5  C8  UNK     1      10.828   5.889   8.978  1.00  0.00     0.092 A 
HETATM    6  C9  UNK     1       9.895   6.134   6.710  1.00  0.00    -0.043 A 
HETATM    7  C10 UNK     1      11.870   5.838   9.904  1.00  0.00     0.075 A 
HETATM    8  C11 UNK     1      12.378   6.251   7.190  1.00  0.00     0.017 A 
HETATM    9  C12 UNK     1      13.433   6.202   8.108  1.00  0.00     0.038 A 
HETATM   10  C13 UNK     1       8.666   5.972   7.221  1.00  0.00     0.090 A 
HETATM   11  C14 UNK     1      10.102   6.352   5.241  1.00  0.00     0.049 C 
HETATM   12  C15 UNK     1       8.414   5.756   8.656  1.00  0.00     0.288 A 
ENDROOT
BRANCH   4  13
HETATM   13  O1  UNK     1      14.210   5.950  10.350  1.00  0.00    -0.278 OA
BRANCH  13  14
HETATM   14  C5  UNK     1      15.479   6.201   9.789  1.00  0.00     0.271 C 
HETATM   15  O3  UNK     1      16.055   5.443   9.018  1.00  0.00    -0.264 OA
BRANCH  14  16
HETATM   16  C1  UNK     1      16.036   7.546  10.268  1.00  0.00     0.037 C 
HETATM   17  C2  UNK     1      15.522   7.839  11.684  1.00  0.00     0.025 C 
HETATM   18  C3  UNK     1      17.570   7.500  10.253  1.00  0.00     0.025 C 
HETATM   19  C4  UNK     1      15.561   8.661   9.323  1.00  0.00     0.025 C 
ENDBRANCH  14  16
ENDBRANCH  13  14
ENDBRANCH   4  13
TORSDOF 3
ENDMDL
MODEL 8
REMARK VINA RESULT:      -7.4      5.047      9.456
REMARK  3 active torsions:
REMARK  status: ('A' for Active; 'I' for Inactive)
REMARK    1  A    between atoms: C5_9  and  O1_1 
REMARK    2  A    between atoms: C7_11  and  O1_1 
REMARK    3  A    between atoms: C1_5  and  C5_9 
ROOT
HETATM    1  O2  UNK     1      19.139  -0.606  33.960  1.00  0.00    -0.275 OA
HETATM    2  O4  UNK     1      18.293   1.096  32.690  1.00  0.00    -0.260 OA
HETATM    3  C6  UNK     1      18.404  -0.847  36.278  1.00  0.00     0.004 A 
HETATM    4  C7  UNK     1      20.105  -3.087  36.481  1.00  0.00     0.082 A 
HETATM    5  C8  UNK     1      19.178  -1.277  35.199  1.00  0.00     0.092 A 
HETATM    6  C9  UNK     1      17.539   0.327  36.100  1.00  0.00    -0.043 A 
HETATM    7  C10 UNK     1      20.025  -2.383  35.284  1.00  0.00     0.075 A 
HETATM    8  C11 UNK     1      18.499  -1.569  37.475  1.00  0.00     0.017 A 
HETATM    9  C12 UNK     1      19.343  -2.680  37.575  1.00  0.00     0.038 A 
HETATM   10  C13 UNK     1      17.523   0.947  34.910  1.00  0.00     0.090 A 
HETATM   11  C14 UNK     1      16.695   0.815  37.240  1.00  0.00     0.049 C 
HETATM   12  C15 UNK     1      18.334   0.505  33.763  1.00  0.00     0.288 A 
ENDROOT
BRANCH   4  13
HETATM   13  O1  UNK     1      20.925  -4.168  36.585  1.00  0.00    -0.278 OA
BRANCH  13  14
HETATM   14  C5  UNK     1      20.254  -5.399  36.737  1.00  0.00     0.271 C 
HETATM   15  O3  UNK     1      19.248  -5.718  36.115  1.00  0.00    -0.264 OA
BRANCH  14  16
HETATM   16  C1  UNK     1      20.953  -6.281  37.778  1.00  0.00     0.037 C 
HETATM   17  C2  UNK     1      22.158  -5.531  38.361  1.00  0.00     0.025 C 
HETATM   18  C3  UNK     1      19.959  -6.647  38.889  1.00  0.00     0.025 C 
HETATM   19  C4  UNK     1      21.446  -7.571  37.105  1.00  0.00     0.025 C 
ENDBRANCH  14  16
ENDBRANCH  13  14
ENDBRANCH   4  13
TORSDOF 3
ENDMDL
MODEL 9
REMARK VINA RESULT:      -7.4      2.697      6.333
REMARK  3 active torsions:
REMARK  status: ('A' for Active; 'I' for Inactive)
REMARK    1  A    between atoms: C5_9  and  O1_1 
REMARK    2  A    between atoms: C7_11  and  O1_1 
REMARK    3  A    between atoms: C1_5  and  C5_9 
ROOT
HETATM    1  O2  UNK     1      18.297   5.687  34.174  1.00  0.00    -0.275 OA
HETATM    2  O4  UNK     1      18.542   7.956  34.320  1.00  0.00    -0.260 OA
HETATM    3  C6  UNK     1      18.587   4.592  32.009  1.00  0.00     0.004 A 
HETATM    4  C7  UNK     1      18.042   2.138  33.288  1.00  0.00     0.082 A 
HETATM    5  C8  UNK     1      18.312   4.525  33.376  1.00  0.00     0.092 A 
HETATM    6  C9  UNK     1      18.863   5.905  31.409  1.00  0.00    -0.043 A 
HETATM    7  C10 UNK     1      18.040   3.319  34.023  1.00  0.00     0.075 A 
HETATM    8  C11 UNK     1      18.584   3.391  31.286  1.00  0.00     0.017 A 
HETATM    9  C12 UNK     1      18.313   2.175  31.921  1.00  0.00     0.038 A 
HETATM   10  C13 UNK     1      18.841   6.993  32.192  1.00  0.00     0.090 A 
HETATM   11  C14 UNK     1      19.161   6.010  29.943  1.00  0.00     0.049 C 
HETATM   12  C15 UNK     1      18.553   6.939  33.636  1.00  0.00     0.288 A 
ENDROOT
BRANCH   4  13
HETATM   13  O1  UNK     1      17.779   0.952  33.900  1.00  0.00    -0.278 OA
BRANCH  13  14
HETATM   14  C5  UNK     1      18.282   0.846  35.213  1.00  0.00     0.271 C 
HETATM   15  O3  UNK     1      19.450   1.047  35.523  1.00  0.00    -0.264 OA
BRANCH  14  16
HETATM   16  C1  UNK     1      17.175   0.449  36.196  1.00  0.00     0.037 C 
HETATM   17  C2  UNK     1      15.890   0.129  35.420  1.00  0.00     0.025 C 
HETATM   18  C3  UNK     1      17.627  -0.768  37.013  1.00  0.00     0.025 C 
HETATM   19  C4  UNK     1      16.901   1.619  37.154  1.00  0.00     0.025 C 
ENDBRANCH  14  16
ENDBRANCH  13  14
ENDBRANCH   4  13
TORSDOF 3
ENDMDL
MODEL 10
REMARK VINA RESULT:      -7.3     23.059     24.614
REMARK  3 active torsions:
REMARK  status: ('A' for Active; 'I' for Inactive)
REMARK    1  A    between atoms: C5_9  and  O1_1 
REMARK    2  A    between atoms: C7_11  and  O1_1 
REMARK    3  A    between atoms: C1_5  and  C5_9 
ROOT
HETATM    1  O2  UNK     1       9.958   5.842   9.594  1.00  0.00    -0.275 OA
HETATM    2  O4  UNK     1       7.732   5.381   9.840  1.00  0.00    -0.260 OA
HETATM    3  C6  UNK     1      10.830   6.373   7.375  1.00  0.00     0.004 A 
HETATM    4  C7  UNK     1      13.376   6.660   8.552  1.00  0.00     0.082 A 
HETATM    5  C8  UNK     1      11.028   6.185   8.744  1.00  0.00     0.092 A 
HETATM    6  C9  UNK     1       9.475   6.208   6.830  1.00  0.00    -0.043 A 
HETATM    7  C10 UNK     1      12.282   6.323   9.341  1.00  0.00     0.075 A 
HETATM    8  C11 UNK     1      11.945   6.713   6.597  1.00  0.00     0.017 A 
HETATM    9  C12 UNK     1      13.208   6.855   7.182  1.00  0.00     0.038 A 
HETATM   10  C13 UNK     1       8.476   5.881   7.663  1.00  0.00     0.090 A 
HETATM   11  C14 UNK     1       9.229   6.403   5.363  1.00  0.00     0.049 C 
HETATM   12  C15 UNK     1       8.669   5.679   9.109  1.00  0.00     0.288 A 
ENDROOT
BRANCH   4  13
HETATM   13  O1  UNK     1      14.607   6.800   9.114  1.00  0.00    -0.278 OA
BRANCH  13  14
HETATM   14  C5  UNK     1      14.957   8.127   9.436  1.00  0.00     0.271 C 
HETATM   15  O3  UNK     1      14.332   9.114   9.069  1.00  0.00    -0.264 OA
BRANCH  14  16
HETATM   16  C1  UNK     1      16.219   8.168  10.305  1.00  0.00     0.037 C 
HETATM   17  C2  UNK     1      17.066   6.915  10.041  1.00  0.00     0.025 C 
HETATM   18  C3  UNK     1      17.021   9.436   9.985  1.00  0.00     0.025 C 
HETATM   19  C4  UNK     1      15.816   8.194  11.788  1.00  0.00     0.025 C 
ENDBRANCH  14  16
ENDBRANCH  13  14
ENDBRANCH   4  13
TORSDOF 3
ENDMDL
