MODEL 1
REMARK VINA RESULT:      -7.9      0.000      0.000
REMARK  5 active torsions:
REMARK  status: ('A' for Active; 'I' for Inactive)
REMARK    1  A    between atoms: C10_16  and  O4_4 
REMARK    2  A    between atoms: C14_20  and  O5_5 
REMARK    3  A    between atoms: C6_12  and  N1_6 
REMARK    4  A    between atoms: C1_7  and  C4_10 
REMARK    5  A    between atoms: C10_16  and  C6_12 
ROOT
HETATM    1  O1  UNK     1      28.030  -8.132  33.482  1.00  0.00    -0.303 OA
HETATM    2  O2  UNK     1      27.701  -9.933  35.778  1.00  0.00    -0.265 OA
HETATM    3  O3  UNK     1      31.106  -5.514  34.238  1.00  0.00    -0.287 OA
HETATM    4  N1  UNK     1      29.467  -8.687  36.740  1.00  0.00    -0.331 N 
HETATM    5  C1  UNK     1      30.298  -7.550  36.344  1.00  0.00     0.161 A 
HETATM    6  C2  UNK     1      29.741  -7.290  34.985  1.00  0.00     0.060 A 
HETATM    7  C3  UNK     1      28.741  -8.107  34.648  1.00  0.00     0.156 A 
HETATM    8  C5  UNK     1      28.532  -9.040  35.768  1.00  0.00     0.279 A 
HETATM    9  C7  UNK     1      30.181  -6.281  34.014  1.00  0.00     0.196 A 
HETATM   10  C8  UNK     1      29.421  -6.264  32.742  1.00  0.00     0.049 A 
HETATM   11  C9  UNK     1      28.386  -7.190  32.541  1.00  0.00     0.090 A 
HETATM   12  C13 UNK     1      29.733  -5.335  31.747  1.00  0.00     0.018 A 
HETATM   13  C15 UNK     1      27.665  -7.185  31.347  1.00  0.00     0.038 A 
HETATM   14  C18 UNK     1      29.009  -5.335  30.554  1.00  0.00     0.001 A 
HETATM   15  C19 UNK     1      27.980  -6.257  30.355  1.00  0.00     0.003 A 
ENDROOT
BRANCH   5  16
HETATM   16  C4  UNK     1      30.139  -6.388  37.264  1.00  0.00    -0.028 A 
HETATM   17  C11 UNK     1      28.865  -5.897  37.553  1.00  0.00     0.046 A 
HETATM   18  C14 UNK     1      28.716  -4.810  38.415  1.00  0.00     0.066 A 
HETATM   19  C17 UNK     1      29.840  -4.214  38.987  1.00  0.00     0.036 A 
HETATM   20  C16 UNK     1      31.114  -4.706  38.698  1.00  0.00     0.003 A 
HETATM   21  C12 UNK     1      31.263  -5.792  37.836  1.00  0.00     0.010 A 
BRANCH  18  22
HETATM   22  O5  UNK     1      27.475  -4.331  38.698  1.00  0.00    -0.361 OA
HETATM   23  H15 UNK     1      27.503  -3.867  39.553  1.00  0.00     0.217 HD
ENDBRANCH  18  22
ENDBRANCH   5  16
BRANCH   4  24
HETATM   24  C6  UNK     1      29.602  -9.373  38.011  1.00  0.00     0.153 C 
BRANCH  24  25
HETATM   25  C10 UNK     1      31.024  -9.877  38.181  1.00  0.00     0.184 C 
BRANCH  25  26
HETATM   26  O4  UNK     1      31.029 -10.985  39.073  1.00  0.00    -0.399 OA
HETATM   27  H14 UNK     1      30.250 -11.529  38.868  1.00  0.00     0.209 HD
ENDBRANCH  25  26
ENDBRANCH  24  25
ENDBRANCH   4  24
TORSDOF 5
ENDMDL
MODEL 2
REMARK VINA RESULT:      -7.6     12.965     15.002
REMARK  5 active torsions:
REMARK  status: ('A' for Active; 'I' for Inactive)
REMARK    1  A    between atoms: C10_16  and  O4_4 
REMARK    2  A    between atoms: C14_20  and  O5_5 
REMARK    3  A    between atoms: C6_12  and  N1_6 
REMARK    4  A    between atoms: C1_7  and  C4_10 
REMARK    5  A    between atoms: C10_16  and  C6_12 
ROOT
HETATM    1  O1  UNK     1      18.925   4.142  34.712  1.00  0.00    -0.303 OA
HETATM    2  O2  UNK     1      19.152   1.924  36.623  1.00  0.00    -0.265 OA
HETATM    3  O3  UNK     1      17.483   2.716  31.139  1.00  0.00    -0.287 OA
HETATM    4  N1  UNK     1      18.372   0.583  34.836  1.00  0.00    -0.331 N 
HETATM    5  C1  UNK     1      17.982   0.799  33.444  1.00  0.00     0.161 A 
HETATM    6  C2  UNK     1      18.186   2.274  33.349  1.00  0.00     0.060 A 
HETATM    7  C3  UNK     1      18.644   2.827  34.474  1.00  0.00     0.156 A 
HETATM    8  C5  UNK     1      18.775   1.756  35.476  1.00  0.00     0.279 A 
HETATM    9  C7  UNK     1      17.925   3.142  32.195  1.00  0.00     0.196 A 
HETATM   10  C8  UNK     1      18.236   4.576  32.408  1.00  0.00     0.049 A 
HETATM   11  C9  UNK     1      18.719   5.001  33.655  1.00  0.00     0.090 A 
HETATM   12  C13 UNK     1      18.048   5.498  31.377  1.00  0.00     0.018 A 
HETATM   13  C15 UNK     1      19.013   6.349  33.868  1.00  0.00     0.038 A 
HETATM   14  C18 UNK     1      18.344   6.844  31.595  1.00  0.00     0.001 A 
HETATM   15  C19 UNK     1      18.824   7.268  32.837  1.00  0.00     0.003 A 
ENDROOT
BRANCH   5  16
HETATM   16  C4  UNK     1      18.840   0.036  32.494  1.00  0.00    -0.028 A 
HETATM   17  C11 UNK     1      19.375   0.671  31.372  1.00  0.00     0.046 A 
HETATM   18  C14 UNK     1      20.179  -0.044  30.483  1.00  0.00     0.066 A 
HETATM   19  C17 UNK     1      20.446  -1.393  30.715  1.00  0.00     0.036 A 
HETATM   20  C16 UNK     1      19.910  -2.028  31.836  1.00  0.00     0.003 A 
HETATM   21  C12 UNK     1      19.107  -1.314  32.725  1.00  0.00     0.010 A 
BRANCH  18  22
HETATM   22  O5  UNK     1      20.701   0.576  29.391  1.00  0.00    -0.361 OA
HETATM   23  H15 UNK     1      21.672   0.534  29.439  1.00  0.00     0.217 HD
ENDBRANCH  18  22
ENDBRANCH   5  16
BRANCH   4  24
HETATM   24  C6  UNK     1      18.343  -0.714  35.484  1.00  0.00     0.153 C 
BRANCH  24  25
HETATM   25  C10 UNK     1      16.927  -1.046  35.922  1.00  0.00     0.184 C 
BRANCH  25  26
HETATM   26  O4  UNK     1      16.258  -1.737  34.874  1.00  0.00    -0.399 OA
HETATM   27  H14 UNK     1      15.870  -1.069  34.284  1.00  0.00     0.209 HD
ENDBRANCH  25  26
ENDBRANCH  24  25
ENDBRANCH   4  24
TORSDOF 5
ENDMDL
MODEL 3
REMARK VINA RESULT:      -7.5     31.781     35.217
REMARK  5 active torsions:
REMARK  status: ('A' for Active; 'I' for Inactive)
REMARK    1  A    between atoms: C10_16  and  O4_4 
REMARK    2  A    between atoms: C14_20  and  O5_5 
REMARK    3  A    between atoms: C6_12  and  N1_6 
REMARK    4  A    between atoms: C1_7  and  C4_10 
REMARK    5  A    between atoms: C10_16  and  C6_12 
ROOT
HETATM    1  O1  UNK     1      14.199  10.149   9.958  1.00  0.00    -0.303 OA
HETATM    2  O2  UNK     1      15.771   7.785   9.208  1.00  0.00    -0.265 OA
HETATM    3  O3  UNK     1      10.260   9.074  10.411  1.00  0.00    -0.287 OA
HETATM    4  N1  UNK     1      13.698   6.646   9.276  1.00  0.00    -0.331 N 
HETATM    5  C1  UNK     1      12.307   6.998   9.555  1.00  0.00     0.161 A 
HETATM    6  C2  UNK     1      12.467   8.451   9.856  1.00  0.00     0.060 A 
HETATM    7  C3  UNK     1      13.725   8.887   9.746  1.00  0.00     0.156 A 
HETATM    8  C5  UNK     1      14.564   7.736   9.372  1.00  0.00     0.279 A 
HETATM    9  C7  UNK     1      11.427   9.402  10.263  1.00  0.00     0.196 A 
HETATM   10  C8  UNK     1      11.900  10.789  10.486  1.00  0.00     0.049 A 
HETATM   11  C9  UNK     1      13.261  11.091  10.322  1.00  0.00     0.090 A 
HETATM   12  C13 UNK     1      11.000  11.789  10.858  1.00  0.00     0.018 A 
HETATM   13  C15 UNK     1      13.718  12.392  10.531  1.00  0.00     0.038 A 
HETATM   14  C18 UNK     1      11.463  13.089  11.065  1.00  0.00     0.001 A 
HETATM   15  C19 UNK     1      12.817  13.389  10.903  1.00  0.00     0.003 A 
ENDROOT
BRANCH   5  16
HETATM   16  C4  UNK     1      11.417   6.746   8.386  1.00  0.00    -0.028 A 
HETATM   17  C11 UNK     1      10.193   6.100   8.568  1.00  0.00     0.046 A 
HETATM   18  C14 UNK     1       9.360   5.865   7.473  1.00  0.00     0.066 A 
HETATM   19  C17 UNK     1       9.750   6.275   6.199  1.00  0.00     0.036 A 
HETATM   20  C16 UNK     1      10.974   6.921   6.017  1.00  0.00     0.003 A 
HETATM   21  C12 UNK     1      11.807   7.156   7.111  1.00  0.00     0.010 A 
BRANCH  18  22
HETATM   22  O5  UNK     1       8.167   5.235   7.651  1.00  0.00    -0.361 OA
HETATM   23  H15 UNK     1       7.723   5.615   8.428  1.00  0.00     0.217 HD
ENDBRANCH  18  22
ENDBRANCH   5  16
BRANCH   4  24
HETATM   24  C6  UNK     1      14.133   5.305   8.935  1.00  0.00     0.153 C 
BRANCH  24  25
HETATM   25  C10 UNK     1      15.056   4.767  10.014  1.00  0.00     0.184 C 
BRANCH  25  26
HETATM   26  O4  UNK     1      16.382   4.690   9.506  1.00  0.00    -0.399 OA
HETATM   27  H14 UNK     1      16.986   4.958  10.219  1.00  0.00     0.209 HD
ENDBRANCH  25  26
ENDBRANCH  24  25
ENDBRANCH   4  24
TORSDOF 5
ENDMDL
MODEL 4
REMARK VINA RESULT:      -7.4     18.951     23.248
REMARK  5 active torsions:
REMARK  status: ('A' for Active; 'I' for Inactive)
REMARK    1  A    between atoms: C10_16  and  O4_4 
REMARK    2  A    between atoms: C14_20  and  O5_5 
REMARK    3  A    between atoms: C6_12  and  N1_6 
REMARK    4  A    between atoms: C1_7  and  C4_10 
REMARK    5  A    between atoms: C10_16  and  C6_12 
ROOT
HETATM    1  O1  UNK     1      22.782  -5.764  16.118  1.00  0.00    -0.303 OA
HETATM    2  O2  UNK     1      21.499  -7.540  14.162  1.00  0.00    -0.265 OA
HETATM    3  O3  UNK     1      20.441  -2.434  16.671  1.00  0.00    -0.287 OA
HETATM    4  N1  UNK     1      19.833  -5.864  14.050  1.00  0.00    -0.331 N 
HETATM    5  C1  UNK     1      19.598  -4.562  14.673  1.00  0.00     0.161 A 
HETATM    6  C2  UNK     1      20.800  -4.482  15.554  1.00  0.00     0.060 A 
HETATM    7  C3  UNK     1      21.615  -5.534  15.449  1.00  0.00     0.156 A 
HETATM    8  C5  UNK     1      21.017  -6.465  14.477  1.00  0.00     0.279 A 
HETATM    9  C7  UNK     1      21.148  -3.415  16.500  1.00  0.00     0.196 A 
HETATM   10  C8  UNK     1      22.420  -3.620  17.233  1.00  0.00     0.049 A 
HETATM   11  C9  UNK     1      23.171  -4.784  17.004  1.00  0.00     0.090 A 
HETATM   12  C13 UNK     1      22.868  -2.664  18.146  1.00  0.00     0.018 A 
HETATM   13  C15 UNK     1      24.368  -4.988  17.690  1.00  0.00     0.038 A 
HETATM   14  C18 UNK     1      24.067  -2.874  18.829  1.00  0.00     0.001 A 
HETATM   15  C19 UNK     1      24.814  -4.032  18.602  1.00  0.00     0.003 A 
ENDROOT
BRANCH   5  16
HETATM   16  C4  UNK     1      19.543  -3.460  13.672  1.00  0.00    -0.028 A 
HETATM   17  C11 UNK     1      20.346  -3.512  12.531  1.00  0.00     0.046 A 
HETATM   18  C14 UNK     1      20.293  -2.480  11.593  1.00  0.00     0.066 A 
HETATM   19  C17 UNK     1      19.439  -1.397  11.796  1.00  0.00     0.036 A 
HETATM   20  C16 UNK     1      18.636  -1.344  12.936  1.00  0.00     0.003 A 
HETATM   21  C12 UNK     1      18.689  -2.375  13.874  1.00  0.00     0.010 A 
BRANCH  18  22
HETATM   22  O5  UNK     1      21.076  -2.532  10.481  1.00  0.00    -0.361 OA
HETATM   23  H15 UNK     1      21.726  -1.809  10.520  1.00  0.00     0.217 HD
ENDBRANCH  18  22
ENDBRANCH   5  16
BRANCH   4  24
HETATM   24  C6  UNK     1      18.930  -6.466  13.087  1.00  0.00     0.153 C 
BRANCH  24  25
HETATM   25  C10 UNK     1      17.653  -6.910  13.779  1.00  0.00     0.184 C 
BRANCH  25  26
HETATM   26  O4  UNK     1      16.549  -6.719  12.903  1.00  0.00    -0.399 OA
HETATM   27  H14 UNK     1      15.741  -6.927  13.401  1.00  0.00     0.209 HD
ENDBRANCH  25  26
ENDBRANCH  24  25
ENDBRANCH   4  24
TORSDOF 5
ENDMDL
MODEL 5
REMARK VINA RESULT:      -7.4      1.819      4.364
REMARK  5 active torsions:
REMARK  status: ('A' for Active; 'I' for Inactive)
REMARK    1  A    between atoms: C10_16  and  O4_4 
REMARK    2  A    between atoms: C14_20  and  O5_5 
REMARK    3  A    between atoms: C6_12  and  N1_6 
REMARK    4  A    between atoms: C1_7  and  C4_10 
REMARK    5  A    between atoms: C10_16  and  C6_12 
ROOT
HETATM    1  O1  UNK     1      31.687  -6.387  34.075  1.00  0.00    -0.303 OA
HETATM    2  O2  UNK     1      32.573  -4.916  36.457  1.00  0.00    -0.265 OA
HETATM    3  O3  UNK     1      27.965  -7.982  34.770  1.00  0.00    -0.287 OA
HETATM    4  N1  UNK     1      30.519  -5.619  37.397  1.00  0.00    -0.331 N 
HETATM    5  C1  UNK     1      29.377  -6.422  36.962  1.00  0.00     0.161 A 
HETATM    6  C2  UNK     1      29.814  -6.756  35.575  1.00  0.00     0.060 A 
HETATM    7  C3  UNK     1      31.014  -6.265  35.257  1.00  0.00     0.156 A 
HETATM    8  C5  UNK     1      31.509  -5.510  36.420  1.00  0.00     0.279 A 
HETATM    9  C7  UNK     1      29.077  -7.522  34.563  1.00  0.00     0.196 A 
HETATM   10  C8  UNK     1      29.784  -7.693  33.271  1.00  0.00     0.049 A 
HETATM   11  C9  UNK     1      31.051  -7.116  33.094  1.00  0.00     0.090 A 
HETATM   12  C13 UNK     1      29.193  -8.419  32.236  1.00  0.00     0.018 A 
HETATM   13  C15 UNK     1      31.724  -7.269  31.881  1.00  0.00     0.038 A 
HETATM   14  C18 UNK     1      29.871  -8.569  31.026  1.00  0.00     0.001 A 
HETATM   15  C19 UNK     1      31.131  -7.994  30.849  1.00  0.00     0.003 A 
ENDROOT
BRANCH   5  16
HETATM   16  C4  UNK     1      29.181  -7.630  37.812  1.00  0.00    -0.028 A 
HETATM   17  C11 UNK     1      30.186  -8.595  37.895  1.00  0.00     0.046 A 
HETATM   18  C14 UNK     1      30.003  -9.726  38.692  1.00  0.00     0.066 A 
HETATM   19  C17 UNK     1      28.815  -9.893  39.404  1.00  0.00     0.036 A 
HETATM   20  C16 UNK     1      27.810  -8.928  39.320  1.00  0.00     0.003 A 
HETATM   21  C12 UNK     1      27.993  -7.798  38.524  1.00  0.00     0.010 A 
BRANCH  18  22
HETATM   22  O5  UNK     1      30.983 -10.666  38.774  1.00  0.00    -0.361 OA
HETATM   23  H15 UNK     1      31.724 -10.304  39.289  1.00  0.00     0.217 HD
ENDBRANCH  18  22
ENDBRANCH   5  16
BRANCH   4  24
HETATM   24  C6  UNK     1      30.613  -5.003  38.707  1.00  0.00     0.153 C 
BRANCH  24  25
HETATM   25  C10 UNK     1      29.461  -4.035  38.910  1.00  0.00     0.184 C 
BRANCH  25  26
HETATM   26  O4  UNK     1      29.468  -3.568  40.253  1.00  0.00    -0.399 OA
HETATM   27  H14 UNK     1      30.085  -2.819  40.300  1.00  0.00     0.209 HD
ENDBRANCH  25  26
ENDBRANCH  24  25
ENDBRANCH   4  24
TORSDOF 5
ENDMDL
MODEL 6
REMARK VINA RESULT:      -7.3     31.498     34.387
REMARK  5 active torsions:
REMARK  status: ('A' for Active; 'I' for Inactive)
REMARK    1  A    between atoms: C10_16  and  O4_4 
REMARK    2  A    between atoms: C14_20  and  O5_5 
REMARK    3  A    between atoms: C6_12  and  N1_6 
REMARK    4  A    between atoms: C1_7  and  C4_10 
REMARK    5  A    between atoms: C10_16  and  C6_12 
ROOT
HETATM    1  O1  UNK     1      17.921   9.905   8.922  1.00  0.00    -0.303 OA
HETATM    2  O2  UNK     1      17.974   7.110   9.821  1.00  0.00    -0.265 OA
HETATM    3  O3  UNK     1      14.163  11.455   9.521  1.00  0.00    -0.287 OA
HETATM    4  N1  UNK     1      15.687   7.450  10.326  1.00  0.00    -0.331 N 
HETATM    5  C1  UNK     1      14.732   8.552  10.215  1.00  0.00     0.161 A 
HETATM    6  C2  UNK     1      15.622   9.604   9.643  1.00  0.00     0.060 A 
HETATM    7  C3  UNK     1      16.873   9.190   9.426  1.00  0.00     0.156 A 
HETATM    8  C5  UNK     1      16.960   7.787   9.864  1.00  0.00     0.279 A 
HETATM    9  C7  UNK     1      15.278  10.995   9.328  1.00  0.00     0.196 A 
HETATM   10  C8  UNK     1      16.386  11.800   8.760  1.00  0.00     0.049 A 
HETATM   11  C9  UNK     1      17.649  11.214   8.587  1.00  0.00     0.090 A 
HETATM   12  C13 UNK     1      16.176  13.133   8.402  1.00  0.00     0.018 A 
HETATM   13  C15 UNK     1      18.700  11.963   8.056  1.00  0.00     0.038 A 
HETATM   14  C18 UNK     1      17.230  13.877   7.870  1.00  0.00     0.001 A 
HETATM   15  C19 UNK     1      18.487  13.294   7.699  1.00  0.00     0.003 A 
ENDROOT
BRANCH   5  16
HETATM   16  C4  UNK     1      13.587   8.217   9.321  1.00  0.00    -0.028 A 
HETATM   17  C11 UNK     1      13.815   7.554   8.115  1.00  0.00     0.046 A 
HETATM   18  C14 UNK     1      12.743   7.240   7.278  1.00  0.00     0.066 A 
HETATM   19  C17 UNK     1      11.445   7.588   7.648  1.00  0.00     0.036 A 
HETATM   20  C16 UNK     1      11.217   8.251   8.855  1.00  0.00     0.003 A 
HETATM   21  C12 UNK     1      12.288   8.565   9.691  1.00  0.00     0.010 A 
BRANCH  18  22
HETATM   22  O5  UNK     1      12.965   6.594   6.102  1.00  0.00    -0.361 OA
HETATM   23  H15 UNK     1      12.279   5.915   5.981  1.00  0.00     0.217 HD
ENDBRANCH  18  22
ENDBRANCH   5  16
BRANCH   4  24
HETATM   24  C6  UNK     1      15.347   6.145  10.860  1.00  0.00     0.153 C 
BRANCH  24  25
HETATM   25  C10 UNK     1      15.265   5.128   9.735  1.00  0.00     0.184 C 
BRANCH  25  26
HETATM   26  O4  UNK     1      16.553   4.569   9.508  1.00  0.00    -0.399 OA
HETATM   27  H14 UNK     1      16.709   4.572   8.549  1.00  0.00     0.209 HD
ENDBRANCH  25  26
ENDBRANCH  24  25
ENDBRANCH   4  24
TORSDOF 5
ENDMDL
MODEL 7
REMARK VINA RESULT:      -7.3      2.788      3.407
REMARK  5 active torsions:
REMARK  status: ('A' for Active; 'I' for Inactive)
REMARK    1  A    between atoms: C10_16  and  O4_4 
REMARK    2  A    between atoms: C14_20  and  O5_5 
REMARK    3  A    between atoms: C6_12  and  N1_6 
REMARK    4  A    between atoms: C1_7  and  C4_10 
REMARK    5  A    between atoms: C10_16  and  C6_12 
ROOT
HETATM    1  O1  UNK     1      30.170  -8.814  32.397  1.00  0.00    -0.303 OA
HETATM    2  O2  UNK     1      32.360  -9.831  34.067  1.00  0.00    -0.265 OA
HETATM    3  O3  UNK     1      30.324  -4.710  32.303  1.00  0.00    -0.287 OA
HETATM    4  N1  UNK     1      32.883  -7.548  34.401  1.00  0.00    -0.331 N 
HETATM    5  C1  UNK     1      32.336  -6.263  33.968  1.00  0.00     0.161 A 
HETATM    6  C2  UNK     1      31.206  -6.742  33.120  1.00  0.00     0.060 A 
HETATM    7  C3  UNK     1      31.088  -8.071  33.081  1.00  0.00     0.156 A 
HETATM    8  C5  UNK     1      32.169  -8.638  33.904  1.00  0.00     0.279 A 
HETATM    9  C7  UNK     1      30.265  -5.930  32.339  1.00  0.00     0.196 A 
HETATM   10  C8  UNK     1      29.240  -6.701  31.596  1.00  0.00     0.049 A 
HETATM   11  C9  UNK     1      29.246  -8.103  31.664  1.00  0.00     0.090 A 
HETATM   12  C13 UNK     1      28.277  -6.039  30.833  1.00  0.00     0.018 A 
HETATM   13  C15 UNK     1      28.287  -8.839  30.967  1.00  0.00     0.038 A 
HETATM   14  C18 UNK     1      27.320  -6.781  30.139  1.00  0.00     0.001 A 
HETATM   15  C19 UNK     1      27.326  -8.176  30.205  1.00  0.00     0.003 A 
ENDROOT
BRANCH   5  16
HETATM   16  C4  UNK     1      31.881  -5.429  35.116  1.00  0.00    -0.028 A 
HETATM   17  C11 UNK     1      30.802  -5.845  35.897  1.00  0.00     0.046 A 
HETATM   18  C14 UNK     1      30.377  -5.064  36.973  1.00  0.00     0.066 A 
HETATM   19  C17 UNK     1      31.030  -3.867  37.266  1.00  0.00     0.036 A 
HETATM   20  C16 UNK     1      32.109  -3.451  36.486  1.00  0.00     0.003 A 
HETATM   21  C12 UNK     1      32.534  -4.231  35.411  1.00  0.00     0.010 A 
BRANCH  18  22
HETATM   22  O5  UNK     1      29.326  -5.470  37.734  1.00  0.00    -0.361 OA
HETATM   23  H15 UNK     1      28.576  -4.869  37.582  1.00  0.00     0.217 HD
ENDBRANCH  18  22
ENDBRANCH   5  16
BRANCH   4  24
HETATM   24  C6  UNK     1      34.046  -7.675  35.259  1.00  0.00     0.153 C 
BRANCH  24  25
HETATM   25  C10 UNK     1      35.308  -7.364  34.474  1.00  0.00     0.184 C 
BRANCH  25  26
HETATM   26  O4  UNK     1      36.447  -7.662  35.273  1.00  0.00    -0.399 OA
HETATM   27  H14 UNK     1      36.135  -8.135  36.062  1.00  0.00     0.209 HD
ENDBRANCH  25  26
ENDBRANCH  24  25
ENDBRANCH   4  24
TORSDOF 5
ENDMDL
MODEL 8
REMARK VINA RESULT:      -7.2      2.522      5.715
REMARK  5 active torsions:
REMARK  status: ('A' for Active; 'I' for Inactive)
REMARK    1  A    between atoms: C10_16  and  O4_4 
REMARK    2  A    between atoms: C14_20  and  O5_5 
REMARK    3  A    between atoms: C6_12  and  N1_6 
REMARK    4  A    between atoms: C1_7  and  C4_10 
REMARK    5  A    between atoms: C10_16  and  C6_12 
ROOT
HETATM    1  O1  UNK     1      28.557  -8.769  35.779  1.00  0.00    -0.303 OA
HETATM    2  O2  UNK     1      29.424  -8.665  32.975  1.00  0.00    -0.265 OA
HETATM    3  O3  UNK     1      29.826  -5.378  37.721  1.00  0.00    -0.287 OA
HETATM    4  N1  UNK     1      30.421  -6.606  33.580  1.00  0.00    -0.331 N 
HETATM    5  C1  UNK     1      30.536  -5.804  34.797  1.00  0.00     0.161 A 
HETATM    6  C2  UNK     1      29.763  -6.663  35.742  1.00  0.00     0.060 A 
HETATM    7  C3  UNK     1      29.299  -7.786  35.190  1.00  0.00     0.156 A 
HETATM    8  C5  UNK     1      29.703  -7.787  33.774  1.00  0.00     0.279 A 
HETATM    9  C7  UNK     1      29.459  -6.394  37.152  1.00  0.00     0.196 A 
HETATM   10  C8  UNK     1      28.670  -7.449  37.832  1.00  0.00     0.049 A 
HETATM   11  C9  UNK     1      28.260  -8.581  37.111  1.00  0.00     0.090 A 
HETATM   12  C13 UNK     1      28.334  -7.317  39.181  1.00  0.00     0.018 A 
HETATM   13  C15 UNK     1      27.515  -9.578  37.741  1.00  0.00     0.038 A 
HETATM   14  C18 UNK     1      27.589  -8.318  39.806  1.00  0.00     0.001 A 
HETATM   15  C19 UNK     1      27.180  -9.444  39.088  1.00  0.00     0.003 A 
ENDROOT
BRANCH   5  16
HETATM   16  C4  UNK     1      31.954  -5.617  35.216  1.00  0.00    -0.028 A 
HETATM   17  C11 UNK     1      32.692  -6.705  35.684  1.00  0.00     0.046 A 
HETATM   18  C14 UNK     1      34.020  -6.530  36.076  1.00  0.00     0.066 A 
HETATM   19  C17 UNK     1      34.609  -5.268  36.001  1.00  0.00     0.036 A 
HETATM   20  C16 UNK     1      33.870  -4.180  35.534  1.00  0.00     0.003 A 
HETATM   21  C12 UNK     1      32.543  -4.355  35.142  1.00  0.00     0.010 A 
BRANCH  18  22
HETATM   22  O5  UNK     1      34.740  -7.591  36.531  1.00  0.00    -0.361 OA
HETATM   23  H15 UNK     1      35.059  -7.394  37.428  1.00  0.00     0.217 HD
ENDBRANCH  18  22
ENDBRANCH   5  16
BRANCH   4  24
HETATM   24  C6  UNK     1      30.993  -6.216  32.306  1.00  0.00     0.153 C 
BRANCH  24  25
HETATM   25  C10 UNK     1      29.962  -5.464  31.481  1.00  0.00     0.184 C 
BRANCH  25  26
HETATM   26  O4  UNK     1      29.886  -4.118  31.933  1.00  0.00    -0.399 OA
HETATM   27  H14 UNK     1      30.351  -4.068  32.785  1.00  0.00     0.209 HD
ENDBRANCH  25  26
ENDBRANCH  24  25
ENDBRANCH   4  24
TORSDOF 5
ENDMDL
MODEL 9
REMARK VINA RESULT:      -7.2      2.339      3.260
REMARK  5 active torsions:
REMARK  status: ('A' for Active; 'I' for Inactive)
REMARK    1  A    between atoms: C10_16  and  O4_4 
REMARK    2  A    between atoms: C14_20  and  O5_5 
REMARK    3  A    between atoms: C6_12  and  N1_6 
REMARK    4  A    between atoms: C1_7  and  C4_10 
REMARK    5  A    between atoms: C10_16  and  C6_12 
ROOT
HETATM    1  O1  UNK     1      30.852  -9.164  32.659  1.00  0.00    -0.303 OA
HETATM    2  O2  UNK     1      33.114  -9.628  34.474  1.00  0.00    -0.265 OA
HETATM    3  O3  UNK     1      28.325  -6.382  34.319  1.00  0.00    -0.287 OA
HETATM    4  N1  UNK     1      32.026  -8.072  35.887  1.00  0.00    -0.331 N 
HETATM    5  C1  UNK     1      30.796  -7.282  35.841  1.00  0.00     0.161 A 
HETATM    6  C2  UNK     1      30.277  -7.697  34.506  1.00  0.00     0.060 A 
HETATM    7  C3  UNK     1      31.046  -8.595  33.885  1.00  0.00     0.156 A 
HETATM    8  C5  UNK     1      32.204  -8.865  34.752  1.00  0.00     0.279 A 
HETATM    9  C7  UNK     1      29.066  -7.220  33.828  1.00  0.00     0.196 A 
HETATM   10  C8  UNK     1      28.811  -7.830  32.501  1.00  0.00     0.049 A 
HETATM   11  C9  UNK     1      29.717  -8.770  31.985  1.00  0.00     0.090 A 
HETATM   12  C13 UNK     1      27.679  -7.471  31.767  1.00  0.00     0.018 A 
HETATM   13  C15 UNK     1      29.488  -9.348  30.736  1.00  0.00     0.038 A 
HETATM   14  C18 UNK     1      27.455  -8.053  30.518  1.00  0.00     0.001 A 
HETATM   15  C19 UNK     1      28.357  -8.987  30.005  1.00  0.00     0.003 A 
ENDROOT
BRANCH   5  16
HETATM   16  C4  UNK     1      29.865  -7.624  36.954  1.00  0.00    -0.028 A 
HETATM   17  C11 UNK     1      29.430  -6.629  37.830  1.00  0.00     0.046 A 
HETATM   18  C14 UNK     1      28.558  -6.949  38.872  1.00  0.00     0.066 A 
HETATM   19  C17 UNK     1      28.122  -8.264  39.037  1.00  0.00     0.036 A 
HETATM   20  C16 UNK     1      28.557  -9.259  38.161  1.00  0.00     0.003 A 
HETATM   21  C12 UNK     1      29.429  -8.939  37.120  1.00  0.00     0.010 A 
BRANCH  18  22
HETATM   22  O5  UNK     1      28.133  -5.979  39.725  1.00  0.00    -0.361 OA
HETATM   23  H15 UNK     1      27.165  -6.028  39.801  1.00  0.00     0.217 HD
ENDBRANCH  18  22
ENDBRANCH   5  16
BRANCH   4  24
HETATM   24  C6  UNK     1      32.961  -8.037  36.995  1.00  0.00     0.153 C 
BRANCH  24  25
HETATM   25  C10 UNK     1      34.074  -7.045  36.704  1.00  0.00     0.184 C 
BRANCH  25  26
HETATM   26  O4  UNK     1      35.162  -7.723  36.089  1.00  0.00    -0.399 OA
HETATM   27  H14 UNK     1      35.767  -7.048  35.739  1.00  0.00     0.209 HD
ENDBRANCH  25  26
ENDBRANCH  24  25
ENDBRANCH   4  24
TORSDOF 5
ENDMDL
MODEL 10
REMARK VINA RESULT:      -7.1      2.715      3.879
REMARK  5 active torsions:
REMARK  status: ('A' for Active; 'I' for Inactive)
REMARK    1  A    between atoms: C10_16  and  O4_4 
REMARK    2  A    between atoms: C14_20  and  O5_5 
REMARK    3  A    between atoms: C6_12  and  N1_6 
REMARK    4  A    between atoms: C1_7  and  C4_10 
REMARK    5  A    between atoms: C10_16  and  C6_12 
ROOT
HETATM    1  O1  UNK     1      28.219  -6.538  33.995  1.00  0.00    -0.303 OA
HETATM    2  O2  UNK     1      28.414  -6.283  36.914  1.00  0.00    -0.265 OA
HETATM    3  O3  UNK     1      31.807  -7.874  32.505  1.00  0.00    -0.287 OA
HETATM    4  N1  UNK     1      30.651  -6.993  36.615  1.00  0.00    -0.331 N 
HETATM    5  C1  UNK     1      31.501  -7.363  35.484  1.00  0.00     0.161 A 
HETATM    6  C2  UNK     1      30.525  -7.199  34.368  1.00  0.00     0.060 A 
HETATM    7  C3  UNK     1      29.321  -6.778  34.764  1.00  0.00     0.156 A 
HETATM    8  C5  UNK     1      29.359  -6.634  36.229  1.00  0.00     0.279 A 
HETATM    9  C7  UNK     1      30.743  -7.463  32.941  1.00  0.00     0.196 A 
HETATM   10  C8  UNK     1      29.573  -7.197  32.070  1.00  0.00     0.049 A 
HETATM   11  C9  UNK     1      28.372  -6.748  32.642  1.00  0.00     0.090 A 
HETATM   12  C13 UNK     1      29.664  -7.392  30.691  1.00  0.00     0.018 A 
HETATM   13  C15 UNK     1      27.265  -6.496  31.832  1.00  0.00     0.038 A 
HETATM   14  C18 UNK     1      28.552  -7.138  29.886  1.00  0.00     0.001 A 
HETATM   15  C19 UNK     1      27.357  -6.693  30.455  1.00  0.00     0.003 A 
ENDROOT
BRANCH   5  16
HETATM   16  C4  UNK     1      32.685  -6.468  35.352  1.00  0.00    -0.028 A 
HETATM   17  C11 UNK     1      33.967  -6.968  35.582  1.00  0.00     0.046 A 
HETATM   18  C14 UNK     1      35.076  -6.130  35.458  1.00  0.00     0.066 A 
HETATM   19  C17 UNK     1      34.902  -4.792  35.105  1.00  0.00     0.036 A 
HETATM   20  C16 UNK     1      33.619  -4.291  34.875  1.00  0.00     0.003 A 
HETATM   21  C12 UNK     1      32.511  -5.129  35.000  1.00  0.00     0.010 A 
BRANCH  18  22
HETATM   22  O5  UNK     1      36.326  -6.618  35.680  1.00  0.00    -0.361 OA
HETATM   23  H15 UNK     1      36.591  -7.164  34.920  1.00  0.00     0.217 HD
ENDBRANCH  18  22
ENDBRANCH   5  16
BRANCH   4  24
HETATM   24  C6  UNK     1      31.104  -6.997  37.993  1.00  0.00     0.153 C 
BRANCH  24  25
HETATM   25  C10 UNK     1      31.365  -5.576  38.459  1.00  0.00     0.184 C 
BRANCH  25  26
HETATM   26  O4  UNK     1      32.751  -5.416  38.735  1.00  0.00    -0.399 OA
HETATM   27  H14 UNK     1      32.939  -5.879  39.568  1.00  0.00     0.209 HD
ENDBRANCH  25  26
ENDBRANCH  24  25
ENDBRANCH   4  24
TORSDOF 5
ENDMDL
