MODEL 1
REMARK VINA RESULT:      -7.1      0.000      0.000
REMARK  4 active torsions:
REMARK  status: ('A' for Active; 'I' for Inactive)
REMARK    1  A    between atoms: C2_6  and  O1_2 
REMARK    2  A    between atoms: C5_9  and  O1_2 
REMARK    3  A    between atoms: C1_5  and  C2_6 
REMARK    4  A    between atoms: C1_5  and  C4_8 
ROOT
HETATM    1 Cl1  UNK     1      18.180   0.447  33.822  1.00  0.00    -0.081 Cl
HETATM    2  O2  UNK     1      18.143   5.508  34.160  1.00  0.00    -0.275 OA
HETATM    3  O3  UNK     1      18.109   7.780  34.422  1.00  0.00    -0.260 OA
HETATM    4  C3  UNK     1      18.465   4.569  31.928  1.00  0.00     0.007 A 
HETATM    5  C5  UNK     1      18.489   2.143  31.717  1.00  0.00     0.091 A 
HETATM    6  C6  UNK     1      18.264   4.399  33.299  1.00  0.00     0.092 A 
HETATM    7  C7  UNK     1      18.577   3.415  31.139  1.00  0.00     0.053 A 
HETATM    8  C8  UNK     1      18.545   5.934  31.392  1.00  0.00    -0.043 A 
HETATM    9  C9  UNK     1      18.290   2.005  33.090  1.00  0.00     0.070 A 
HETATM   10  C10 UNK     1      18.176   3.137  33.889  1.00  0.00     0.065 A 
HETATM   11  C12 UNK     1      18.426   6.970  32.234  1.00  0.00     0.090 A 
HETATM   12  C13 UNK     1      18.758   6.150  29.922  1.00  0.00     0.049 C 
HETATM   13  C14 UNK     1      18.216   6.808  33.683  1.00  0.00     0.288 A 
ENDROOT
BRANCH   5  14
HETATM   14  O1  UNK     1      18.604   1.051  30.908  1.00  0.00    -0.349 OA
BRANCH  14  15
HETATM   15  C2  UNK     1      19.092   1.274  29.587  1.00  0.00     0.175 C 
BRANCH  15  16
HETATM   16  C1  UNK     1      20.054   0.152  29.223  1.00  0.00     0.026 C 
BRANCH  16  17
HETATM   17  C4  UNK     1      20.606  -0.542  30.464  1.00  0.00    -0.002 C 
HETATM   18  C11 UNK     1      20.347  -2.039  30.428  1.00  0.00     0.005 C 
ENDBRANCH  16  17
ENDBRANCH  15  16
ENDBRANCH  14  15
ENDBRANCH   5  14
TORSDOF 4
ENDMDL
MODEL 2
REMARK VINA RESULT:      -7.0      2.846      4.238
REMARK  4 active torsions:
REMARK  status: ('A' for Active; 'I' for Inactive)
REMARK    1  A    between atoms: C2_6  and  O1_2 
REMARK    2  A    between atoms: C5_9  and  O1_2 
REMARK    3  A    between atoms: C1_5  and  C2_6 
REMARK    4  A    between atoms: C1_5  and  C4_8 
ROOT
HETATM    1 Cl1  UNK     1      21.036   6.367  32.740  1.00  0.00    -0.081 Cl
HETATM    2  O2  UNK     1      17.186   9.128  34.553  1.00  0.00    -0.275 OA
HETATM    3  O3  UNK     1      15.524  10.430  35.431  1.00  0.00    -0.260 OA
HETATM    4  C3  UNK     1      16.608   7.366  32.963  1.00  0.00     0.007 A 
HETATM    5  C5  UNK     1      18.424   6.015  32.066  1.00  0.00     0.091 A 
HETATM    6  C6  UNK     1      17.561   8.069  33.702  1.00  0.00     0.092 A 
HETATM    7  C7  UNK     1      17.061   6.327  32.138  1.00  0.00     0.053 A 
HETATM    8  C8  UNK     1      15.195   7.750  33.090  1.00  0.00    -0.043 A 
HETATM    9  C9  UNK     1      19.353   6.735  32.815  1.00  0.00     0.070 A 
HETATM   10  C10 UNK     1      18.923   7.769  33.639  1.00  0.00     0.065 A 
HETATM   11  C12 UNK     1      14.869   8.760  33.908  1.00  0.00     0.090 A 
HETATM   12  C13 UNK     1      14.146   7.012  32.311  1.00  0.00     0.049 C 
HETATM   13  C14 UNK     1      15.862   9.512  34.692  1.00  0.00     0.288 A 
ENDROOT
BRANCH   5  14
HETATM   14  O1  UNK     1      18.816   4.995  31.249  1.00  0.00    -0.349 OA
BRANCH  14  15
HETATM   15  C2  UNK     1      18.185   3.731  31.443  1.00  0.00     0.175 C 
BRANCH  15  16
HETATM   16  C1  UNK     1      18.823   2.714  30.509  1.00  0.00     0.026 C 
BRANCH  16  17
HETATM   17  C4  UNK     1      18.112   2.666  29.159  1.00  0.00    -0.002 C 
HETATM   18  C11 UNK     1      18.122   1.264  28.573  1.00  0.00     0.005 C 
ENDBRANCH  16  17
ENDBRANCH  15  16
ENDBRANCH  14  15
ENDBRANCH   5  14
TORSDOF 4
ENDMDL
MODEL 3
REMARK VINA RESULT:      -6.9      4.330      6.977
REMARK  4 active torsions:
REMARK  status: ('A' for Active; 'I' for Inactive)
REMARK    1  A    between atoms: C2_6  and  O1_2 
REMARK    2  A    between atoms: C5_9  and  O1_2 
REMARK    3  A    between atoms: C1_5  and  C2_6 
REMARK    4  A    between atoms: C1_5  and  C4_8 
ROOT
HETATM    1 Cl1  UNK     1      20.708  -2.313  30.545  1.00  0.00    -0.081 Cl
HETATM    2  O2  UNK     1      20.622  -3.278  35.525  1.00  0.00    -0.275 OA
HETATM    3  O3  UNK     1      20.661  -3.792  37.753  1.00  0.00    -0.260 OA
HETATM    4  C3  UNK     1      19.109  -1.534  34.728  1.00  0.00     0.007 A 
HETATM    5  C5  UNK     1      19.116  -1.037  32.345  1.00  0.00     0.091 A 
HETATM    6  C6  UNK     1      20.086  -2.500  34.480  1.00  0.00     0.092 A 
HETATM    7  C7  UNK     1      18.627  -0.800  33.635  1.00  0.00     0.053 A 
HETATM    8  C8  UNK     1      18.643  -1.342  36.108  1.00  0.00    -0.043 A 
HETATM    9  C9  UNK     1      20.092  -2.007  32.127  1.00  0.00     0.070 A 
HETATM   10  C10 UNK     1      20.583  -2.745  33.199  1.00  0.00     0.065 A 
HETATM   11  C12 UNK     1      19.171  -2.098  37.082  1.00  0.00     0.090 A 
HETATM   12  C13 UNK     1      17.593  -0.314  36.408  1.00  0.00     0.049 C 
HETATM   13  C14 UNK     1      20.203  -3.119  36.837  1.00  0.00     0.288 A 
ENDROOT
BRANCH   5  14
HETATM   14  O1  UNK     1      18.615  -0.297  31.314  1.00  0.00    -0.349 OA
BRANCH  14  15
HETATM   15  C2  UNK     1      19.312   0.902  30.980  1.00  0.00     0.175 C 
BRANCH  15  16
HETATM   16  C1  UNK     1      19.754   0.825  29.526  1.00  0.00     0.026 C 
BRANCH  16  17
HETATM   17  C4  UNK     1      18.562   0.832  28.573  1.00  0.00    -0.002 C 
HETATM   18  C11 UNK     1      17.821   2.159  28.617  1.00  0.00     0.005 C 
ENDBRANCH  16  17
ENDBRANCH  15  16
ENDBRANCH  14  15
ENDBRANCH   5  14
TORSDOF 4
ENDMDL
MODEL 4
REMARK VINA RESULT:      -6.9      3.484      5.473
REMARK  4 active torsions:
REMARK  status: ('A' for Active; 'I' for Inactive)
REMARK    1  A    between atoms: C2_6  and  O1_2 
REMARK    2  A    between atoms: C5_9  and  O1_2 
REMARK    3  A    between atoms: C1_5  and  C2_6 
REMARK    4  A    between atoms: C1_5  and  C4_8 
ROOT
HETATM    1 Cl1  UNK     1      18.311   2.721  32.031  1.00  0.00    -0.081 Cl
HETATM    2  O2  UNK     1      17.901   1.869  37.015  1.00  0.00    -0.275 OA
HETATM    3  O3  UNK     1      17.705   1.595  39.277  1.00  0.00    -0.260 OA
HETATM    4  C3  UNK     1      18.242  -0.093  35.601  1.00  0.00     0.007 A 
HETATM    5  C5  UNK     1      18.445   0.268  33.201  1.00  0.00     0.091 A 
HETATM    6  C6  UNK     1      18.088   1.287  35.745  1.00  0.00     0.092 A 
HETATM    7  C7  UNK     1      18.422  -0.594  34.303  1.00  0.00     0.053 A 
HETATM    8  C8  UNK     1      18.208  -0.935  36.803  1.00  0.00    -0.043 A 
HETATM    9  C9  UNK     1      18.287   1.642  33.377  1.00  0.00     0.070 A 
HETATM   10  C10 UNK     1      18.107   2.158  34.655  1.00  0.00     0.065 A 
HETATM   11  C12 UNK     1      18.030  -0.354  37.998  1.00  0.00     0.090 A 
HETATM   12  C13 UNK     1      18.374  -2.422  36.681  1.00  0.00     0.049 C 
HETATM   13  C14 UNK     1      17.864   1.099  38.168  1.00  0.00     0.288 A 
ENDROOT
BRANCH   5  14
HETATM   14  O1  UNK     1      18.623  -0.268  31.959  1.00  0.00    -0.349 OA
BRANCH  14  15
HETATM   15  C2  UNK     1      19.292  -1.524  31.887  1.00  0.00     0.175 C 
BRANCH  15  16
HETATM   16  C1  UNK     1      20.614  -1.337  31.157  1.00  0.00     0.026 C 
BRANCH  16  17
HETATM   17  C4  UNK     1      20.542  -0.195  30.146  1.00  0.00    -0.002 C 
HETATM   18  C11 UNK     1      20.187  -0.702  28.757  1.00  0.00     0.005 C 
ENDBRANCH  16  17
ENDBRANCH  15  16
ENDBRANCH  14  15
ENDBRANCH   5  14
TORSDOF 4
ENDMDL
MODEL 5
REMARK VINA RESULT:      -6.7      3.428      6.828
REMARK  4 active torsions:
REMARK  status: ('A' for Active; 'I' for Inactive)
REMARK    1  A    between atoms: C2_6  and  O1_2 
REMARK    2  A    between atoms: C5_9  and  O1_2 
REMARK    3  A    between atoms: C1_5  and  C2_6 
REMARK    4  A    between atoms: C1_5  and  C4_8 
ROOT
HETATM    1 Cl1  UNK     1      20.655  -0.866  29.222  1.00  0.00    -0.081 Cl
HETATM    2  O2  UNK     1      20.532  -2.946  33.847  1.00  0.00    -0.275 OA
HETATM    3  O3  UNK     1      20.547  -3.962  35.896  1.00  0.00    -0.260 OA
HETATM    4  C3  UNK     1      19.159  -0.953  33.514  1.00  0.00     0.007 A 
HETATM    5  C5  UNK     1      19.187   0.079  31.308  1.00  0.00     0.091 A 
HETATM    6  C6  UNK     1      20.052  -1.908  33.024  1.00  0.00     0.092 A 
HETATM    7  C7  UNK     1      18.730   0.048  32.631  1.00  0.00     0.053 A 
HETATM    8  C8  UNK     1      18.722  -1.050  34.913  1.00  0.00    -0.043 A 
HETATM    9  C9  UNK     1      20.080  -0.887  30.848  1.00  0.00     0.070 A 
HETATM   10  C10 UNK     1      20.517  -1.888  31.708  1.00  0.00     0.065 A 
HETATM   11  C12 UNK     1      19.195  -2.048  35.672  1.00  0.00     0.090 A 
HETATM   12  C13 UNK     1      17.761  -0.041  35.469  1.00  0.00     0.049 C 
HETATM   13  C14 UNK     1      20.138  -3.062  35.172  1.00  0.00     0.288 A 
ENDROOT
BRANCH   5  14
HETATM   14  O1  UNK     1      18.740   1.074  30.489  1.00  0.00    -0.349 OA
BRANCH  14  15
HETATM   15  C2  UNK     1      18.451   2.331  31.095  1.00  0.00     0.175 C 
BRANCH  15  16
HETATM   16  C1  UNK     1      18.881   3.444  30.150  1.00  0.00     0.026 C 
BRANCH  16  17
HETATM   17  C4  UNK     1      19.007   4.781  30.875  1.00  0.00    -0.002 C 
HETATM   18  C11 UNK     1      19.557   5.862  29.959  1.00  0.00     0.005 C 
ENDBRANCH  16  17
ENDBRANCH  15  16
ENDBRANCH  14  15
ENDBRANCH   5  14
TORSDOF 4
ENDMDL
MODEL 6
REMARK VINA RESULT:      -6.7      3.618      5.627
REMARK  4 active torsions:
REMARK  status: ('A' for Active; 'I' for Inactive)
REMARK    1  A    between atoms: C2_6  and  O1_2 
REMARK    2  A    between atoms: C5_9  and  O1_2 
REMARK    3  A    between atoms: C1_5  and  C2_6 
REMARK    4  A    between atoms: C1_5  and  C4_8 
ROOT
HETATM    1 Cl1  UNK     1      14.111   6.912  31.906  1.00  0.00    -0.081 Cl
HETATM    2  O2  UNK     1      16.565  10.991  33.659  1.00  0.00    -0.275 OA
HETATM    3  O3  UNK     1      17.579  12.889  34.434  1.00  0.00    -0.260 OA
HETATM    4  C3  UNK     1      17.846   8.914  33.550  1.00  0.00     0.007 A 
HETATM    5  C5  UNK     1      16.708   6.930  32.715  1.00  0.00     0.091 A 
HETATM    6  C6  UNK     1      16.657   9.618  33.352  1.00  0.00     0.092 A 
HETATM    7  C7  UNK     1      17.856   7.551  33.222  1.00  0.00     0.053 A 
HETATM    8  C8  UNK     1      19.010   9.632  34.085  1.00  0.00    -0.043 A 
HETATM    9  C9  UNK     1      15.535   7.659  32.529  1.00  0.00     0.070 A 
HETATM   10  C10 UNK     1      15.506   9.012  32.848  1.00  0.00     0.065 A 
HETATM   11  C12 UNK     1      18.893  10.938  34.367  1.00  0.00     0.090 A 
HETATM   12  C13 UNK     1      20.303   8.904  34.307  1.00  0.00     0.049 C 
HETATM   13  C14 UNK     1      17.647  11.695  34.166  1.00  0.00     0.288 A 
ENDROOT
BRANCH   5  14
HETATM   14  O1  UNK     1      16.768   5.601  32.410  1.00  0.00    -0.349 OA
BRANCH  14  15
HETATM   15  C2  UNK     1      18.004   4.936  32.658  1.00  0.00     0.175 C 
BRANCH  15  16
HETATM   16  C1  UNK     1      18.418   4.183  31.402  1.00  0.00     0.026 C 
BRANCH  16  17
HETATM   17  C4  UNK     1      19.054   5.112  30.372  1.00  0.00    -0.002 C 
HETATM   18  C11 UNK     1      20.288   5.802  30.931  1.00  0.00     0.005 C 
ENDBRANCH  16  17
ENDBRANCH  15  16
ENDBRANCH  14  15
ENDBRANCH   5  14
TORSDOF 4
ENDMDL
MODEL 7
REMARK VINA RESULT:      -6.7     22.366     23.989
REMARK  4 active torsions:
REMARK  status: ('A' for Active; 'I' for Inactive)
REMARK    1  A    between atoms: C2_6  and  O1_2 
REMARK    2  A    between atoms: C5_9  and  O1_2 
REMARK    3  A    between atoms: C1_5  and  C2_6 
REMARK    4  A    between atoms: C1_5  and  C4_8 
ROOT
HETATM    1 Cl1  UNK     1      12.152   4.067   8.387  1.00  0.00    -0.081 Cl
HETATM    2  O2  UNK     1      16.363   6.524   9.789  1.00  0.00    -0.275 OA
HETATM    3  O3  UNK     1      18.321   7.543  10.387  1.00  0.00    -0.260 OA
HETATM    4  C3  UNK     1      14.250   7.694  10.151  1.00  0.00     0.007 A 
HETATM    5  C5  UNK     1      12.201   6.552   9.493  1.00  0.00     0.091 A 
HETATM    6  C6  UNK     1      14.957   6.575   9.708  1.00  0.00     0.092 A 
HETATM    7  C7  UNK     1      12.853   7.667  10.035  1.00  0.00     0.053 A 
HETATM    8  C8  UNK     1      15.000   8.826  10.709  1.00  0.00    -0.043 A 
HETATM    9  C9  UNK     1      12.935   5.449   9.058  1.00  0.00     0.070 A 
HETATM   10  C10 UNK     1      14.321   5.457   9.165  1.00  0.00     0.065 A 
HETATM   11  C12 UNK     1      16.337   8.749  10.774  1.00  0.00     0.090 A 
HETATM   12  C13 UNK     1      14.269  10.043  11.195  1.00  0.00     0.049 C 
HETATM   13  C14 UNK     1      17.098   7.577  10.310  1.00  0.00     0.288 A 
ENDROOT
BRANCH   5  14
HETATM   14  O1  UNK     1      10.841   6.575   9.401  1.00  0.00    -0.349 OA
BRANCH  14  15
HETATM   15  C2  UNK     1      10.279   7.252   8.280  1.00  0.00     0.175 C 
BRANCH  15  16
HETATM   16  C1  UNK     1       9.300   6.319   7.582  1.00  0.00     0.026 C 
BRANCH  16  17
HETATM   17  C4  UNK     1       9.636   6.155   6.102  1.00  0.00    -0.002 C 
HETATM   18  C11 UNK     1      11.115   6.387   5.837  1.00  0.00     0.005 C 
ENDBRANCH  16  17
ENDBRANCH  15  16
ENDBRANCH  14  15
ENDBRANCH   5  14
TORSDOF 4
ENDMDL
MODEL 8
REMARK VINA RESULT:      -6.6     22.362     24.419
REMARK  4 active torsions:
REMARK  status: ('A' for Active; 'I' for Inactive)
REMARK    1  A    between atoms: C2_6  and  O1_2 
REMARK    2  A    between atoms: C5_9  and  O1_2 
REMARK    3  A    between atoms: C1_5  and  C2_6 
REMARK    4  A    between atoms: C1_5  and  C4_8 
ROOT
HETATM    1 Cl1  UNK     1      15.671   4.401   9.804  1.00  0.00    -0.081 Cl
HETATM    2  O2  UNK     1      11.264   5.314   7.463  1.00  0.00    -0.275 OA
HETATM    3  O3  UNK     1       9.291   5.630   6.352  1.00  0.00    -0.260 OA
HETATM    4  C3  UNK     1      12.012   6.995   9.069  1.00  0.00     0.007 A 
HETATM    5  C5  UNK     1      14.122   6.599  10.217  1.00  0.00     0.091 A 
HETATM    6  C6  UNK     1      12.205   5.785   8.400  1.00  0.00     0.092 A 
HETATM    7  C7  UNK     1      12.993   7.394   9.988  1.00  0.00     0.053 A 
HETATM    8  C8  UNK     1      10.803   7.777   8.776  1.00  0.00    -0.043 A 
HETATM    9  C9  UNK     1      14.288   5.395   9.535  1.00  0.00     0.070 A 
HETATM   10  C10 UNK     1      13.325   4.982   8.620  1.00  0.00     0.065 A 
HETATM   11  C12 UNK     1       9.926   7.303   7.880  1.00  0.00     0.090 A 
HETATM   12  C13 UNK     1      10.567   9.082   9.477  1.00  0.00     0.049 C 
HETATM   13  C14 UNK     1      10.114   6.029   7.167  1.00  0.00     0.288 A 
ENDROOT
BRANCH   5  14
HETATM   14  O1  UNK     1      15.049   7.030  11.121  1.00  0.00    -0.349 OA
BRANCH  14  15
HETATM   15  C2  UNK     1      15.472   8.388  11.016  1.00  0.00     0.175 C 
BRANCH  15  16
HETATM   16  C1  UNK     1      16.555   8.485   9.951  1.00  0.00     0.026 C 
BRANCH  16  17
HETATM   17  C4  UNK     1      16.494   9.815   9.205  1.00  0.00    -0.002 C 
HETATM   18  C11 UNK     1      15.137  10.027   8.555  1.00  0.00     0.005 C 
ENDBRANCH  16  17
ENDBRANCH  15  16
ENDBRANCH  14  15
ENDBRANCH   5  14
TORSDOF 4
ENDMDL
MODEL 9
REMARK VINA RESULT:      -6.5     22.665     23.593
REMARK  4 active torsions:
REMARK  status: ('A' for Active; 'I' for Inactive)
REMARK    1  A    between atoms: C2_6  and  O1_2 
REMARK    2  A    between atoms: C5_9  and  O1_2 
REMARK    3  A    between atoms: C1_5  and  C2_6 
REMARK    4  A    between atoms: C1_5  and  C4_8 
ROOT
HETATM    1 Cl1  UNK     1      15.264   4.248   9.962  1.00  0.00    -0.081 Cl
HETATM    2  O2  UNK     1      17.562   8.768   9.825  1.00  0.00    -0.275 OA
HETATM    3  O3  UNK     1      18.696  10.753   9.756  1.00  0.00    -0.260 OA
HETATM    4  C3  UNK     1      15.126   8.791  10.011  1.00  0.00     0.007 A 
HETATM    5  C5  UNK     1      13.980   6.644  10.080  1.00  0.00     0.091 A 
HETATM    6  C6  UNK     1      16.330   8.090   9.914  1.00  0.00     0.092 A 
HETATM    7  C7  UNK     1      13.944   8.043  10.094  1.00  0.00     0.053 A 
HETATM    8  C8  UNK     1      15.166  10.260  10.020  1.00  0.00    -0.043 A 
HETATM    9  C9  UNK     1      15.197   5.971   9.982  1.00  0.00     0.070 A 
HETATM   10  C10 UNK     1      16.381   6.696   9.898  1.00  0.00     0.065 A 
HETATM   11  C12 UNK     1      16.352  10.877   9.935  1.00  0.00     0.090 A 
HETATM   12  C13 UNK     1      13.890  11.042  10.126  1.00  0.00     0.049 C 
HETATM   13  C14 UNK     1      17.630  10.153   9.831  1.00  0.00     0.288 A 
ENDROOT
BRANCH   5  14
HETATM   14  O1  UNK     1      12.802   5.961  10.164  1.00  0.00    -0.349 OA
BRANCH  14  15
HETATM   15  C2  UNK     1      11.835   6.212   9.147  1.00  0.00     0.175 C 
BRANCH  15  16
HETATM   16  C1  UNK     1      12.187   5.386   7.919  1.00  0.00     0.026 C 
BRANCH  16  17
HETATM   17  C4  UNK     1      11.913   6.151   6.627  1.00  0.00    -0.002 C 
HETATM   18  C11 UNK     1      10.440   6.105   6.254  1.00  0.00     0.005 C 
ENDBRANCH  16  17
ENDBRANCH  15  16
ENDBRANCH  14  15
ENDBRANCH   5  14
TORSDOF 4
ENDMDL
MODEL 10
REMARK VINA RESULT:      -6.5     22.749     24.267
REMARK  4 active torsions:
REMARK  status: ('A' for Active; 'I' for Inactive)
REMARK    1  A    between atoms: C2_6  and  O1_2 
REMARK    2  A    between atoms: C5_9  and  O1_2 
REMARK    3  A    between atoms: C1_5  and  C2_6 
REMARK    4  A    between atoms: C1_5  and  C4_8 
ROOT
HETATM    1 Cl1  UNK     1      10.589   9.554   9.349  1.00  0.00    -0.081 Cl
HETATM    2  O2  UNK     1      15.600   8.883   9.762  1.00  0.00    -0.275 OA
HETATM    3  O3  UNK     1      17.872   8.691   9.945  1.00  0.00    -0.260 OA
HETATM    4  C3  UNK     1      14.232   6.860   9.717  1.00  0.00     0.007 A 
HETATM    5  C5  UNK     1      11.820   7.134   9.520  1.00  0.00     0.091 A 
HETATM    6  C6  UNK     1      14.343   8.251   9.682  1.00  0.00     0.092 A 
HETATM    7  C7  UNK     1      12.946   6.309   9.634  1.00  0.00     0.053 A 
HETATM    8  C8  UNK     1      15.457   6.058   9.838  1.00  0.00    -0.043 A 
HETATM    9  C9  UNK     1      11.963   8.520   9.488  1.00  0.00     0.070 A 
HETATM   10  C10 UNK     1      13.230   9.085   9.570  1.00  0.00     0.065 A 
HETATM   11  C12 UNK     1      16.639   6.687   9.911  1.00  0.00     0.090 A 
HETATM   12  C13 UNK     1      15.371   4.561   9.876  1.00  0.00     0.049 C 
HETATM   13  C14 UNK     1      16.773   8.152   9.877  1.00  0.00     0.288 A 
ENDROOT
BRANCH   5  14
HETATM   14  O1  UNK     1      10.590   6.549   9.442  1.00  0.00    -0.349 OA
BRANCH  14  15
HETATM   15  C2  UNK     1      10.378   5.628   8.374  1.00  0.00     0.175 C 
BRANCH  15  16
HETATM   16  C1  UNK     1       9.384   6.233   7.394  1.00  0.00     0.026 C 
BRANCH  16  17
HETATM   17  C4  UNK     1      10.046   6.583   6.064  1.00  0.00    -0.002 C 
HETATM   18  C11 UNK     1      11.510   6.174   6.046  1.00  0.00     0.005 C 
ENDBRANCH  16  17
ENDBRANCH  15  16
ENDBRANCH  14  15
ENDBRANCH   5  14
TORSDOF 4
ENDMDL
