MODEL 1
REMARK VINA RESULT:      -9.4      0.000      0.000
REMARK  7 active torsions:
REMARK  status: ('A' for Active; 'I' for Inactive)
REMARK    1  A    between atoms: C24_32  and  O4_5 
REMARK    2  A    between atoms: C5_13  and  N1_6 
REMARK    3  A    between atoms: C6_14  and  N2_7 
REMARK    4  A    between atoms: C18_26  and  N3_8 
REMARK       I    between atoms: C9_17  and  N3_8 
REMARK    5  A    between atoms: C5_13  and  C7_15 
REMARK    6  A    between atoms: C6_14  and  C9_17 
REMARK    7  A    between atoms: C13_21  and  C17_25 
ROOT
HETATM    1  N1  UNK     1      18.067   5.175  31.487  1.00  0.00     0.096 N 
HETATM    2  N2  UNK     1      18.999   2.495  30.931  1.00  0.00     0.100 N 
HETATM    3  C1  UNK     1      18.359   4.229  32.571  1.00  0.00     0.303 C 
HETATM    4  C2  UNK     1      18.904   4.888  30.316  1.00  0.00     0.303 C 
HETATM    5  C3  UNK     1      18.161   2.783  32.102  1.00  0.00     0.303 C 
HETATM    6  C4  UNK     1      18.707   3.442  29.847  1.00  0.00     0.303 C 
ENDROOT
BRANCH   1   7
HETATM    7  C5  UNK     1      18.258   6.553  31.936  1.00  0.00     0.312 C 
BRANCH   7   8
HETATM    8  C7  UNK     1      16.968   7.228  32.246  1.00  0.00    -0.011 A 
HETATM    9  C10 UNK     1      15.797   6.684  31.883  1.00  0.00     0.092 A 
HETATM   10  C14 UNK     1      14.497   7.314  32.167  1.00  0.00     0.288 A 
HETATM   11  O1  UNK     1      14.524   8.525  32.842  1.00  0.00    -0.275 OA
HETATM   12  O3  UNK     1      13.446   6.786  31.821  1.00  0.00    -0.260 OA
HETATM   13  C11 UNK     1      15.740   9.121  33.235  1.00  0.00     0.090 A 
HETATM   14  C8  UNK     1      16.965   8.512  32.960  1.00  0.00     0.007 A 
HETATM   15  C15 UNK     1      15.648  10.340  33.908  1.00  0.00     0.039 A 
HETATM   16  C12 UNK     1      18.127   9.170  33.384  1.00  0.00     0.022 A 
HETATM   17  C13 UNK     1      18.051  10.393  34.060  1.00  0.00    -0.058 A 
HETATM   18  C16 UNK     1      16.813  10.977  34.322  1.00  0.00     0.010 A 
BRANCH  17  19
HETATM   19  C17 UNK     1      19.302  11.075  34.502  1.00  0.00     0.034 C 
HETATM   20  C19 UNK     1      20.493  10.122  34.561  1.00  0.00     0.010 C 
ENDBRANCH  17  19
ENDBRANCH   7   8
ENDBRANCH   1   7
BRANCH   2  21
HETATM   21  C6  UNK     1      18.810   1.118  30.483  1.00  0.00     0.375 C 
BRANCH  21  22
HETATM   22  C9  UNK     1      19.639   0.185  31.350  1.00  0.00     0.250 C 
HETATM   23  O2  UNK     1      20.818  -0.059  31.118  1.00  0.00    -0.271 OA
HETATM   24  N3  UNK     1      18.867  -0.307  32.400  1.00  0.00    -0.326 N 
HETATM   25  H15 UNK     1      17.898  -0.003  32.465  1.00  0.00     0.169 HD
BRANCH  24  26
HETATM   26  C18 UNK     1      19.269  -1.199  33.423  1.00  0.00     0.036 A 
HETATM   27  C20 UNK     1      18.785  -1.038  34.721  1.00  0.00     0.056 A 
HETATM   28  C22 UNK     1      19.181  -1.918  35.728  1.00  0.00     0.069 A 
HETATM   29 Cl1  UNK     1      18.567  -1.695  37.325  1.00  0.00    -0.081 Cl
HETATM   30  C24 UNK     1      20.062  -2.960  35.437  1.00  0.00     0.090 A 
HETATM   31  C23 UNK     1      20.547  -3.121  34.139  1.00  0.00     0.041 A 
HETATM   32  C21 UNK     1      20.150  -2.241  33.132  1.00  0.00     0.032 A 
BRANCH  30  33
HETATM   33  O4  UNK     1      20.466  -3.834  36.401  1.00  0.00    -0.354 OA
HETATM   34  C25 UNK     1      19.860  -5.126  36.399  1.00  0.00     0.210 C 
ENDBRANCH  30  33
ENDBRANCH  24  26
ENDBRANCH  21  22
ENDBRANCH   2  21
TORSDOF 7
ENDMDL
MODEL 2
REMARK VINA RESULT:      -9.4      3.093      5.511
REMARK  7 active torsions:
REMARK  status: ('A' for Active; 'I' for Inactive)
REMARK    1  A    between atoms: C24_32  and  O4_5 
REMARK    2  A    between atoms: C5_13  and  N1_6 
REMARK    3  A    between atoms: C6_14  and  N2_7 
REMARK    4  A    between atoms: C18_26  and  N3_8 
REMARK       I    between atoms: C9_17  and  N3_8 
REMARK    5  A    between atoms: C5_13  and  C7_15 
REMARK    6  A    between atoms: C6_14  and  C9_17 
REMARK    7  A    between atoms: C13_21  and  C17_25 
ROOT
HETATM    1  N1  UNK     1      17.930   1.537  35.178  1.00  0.00     0.096 N 
HETATM    2  N2  UNK     1      18.222  -0.988  36.554  1.00  0.00     0.100 N 
HETATM    3  C1  UNK     1      17.546   1.388  36.587  1.00  0.00     0.303 C 
HETATM    4  C2  UNK     1      19.013   0.607  34.839  1.00  0.00     0.303 C 
HETATM    5  C3  UNK     1      17.137  -0.058  36.891  1.00  0.00     0.303 C 
HETATM    6  C4  UNK     1      18.605  -0.839  35.145  1.00  0.00     0.303 C 
ENDROOT
BRANCH   1   7
HETATM    7  C5  UNK     1      18.321   2.916  34.890  1.00  0.00     0.312 C 
BRANCH   7   8
HETATM    8  C7  UNK     1      18.320   3.208  33.429  1.00  0.00    -0.011 A 
HETATM    9  C10 UNK     1      18.285   2.218  32.526  1.00  0.00     0.092 A 
HETATM   10  C14 UNK     1      18.284   2.458  31.073  1.00  0.00     0.288 A 
HETATM   11  O1  UNK     1      18.320   3.780  30.658  1.00  0.00    -0.275 OA
HETATM   12  O3  UNK     1      18.250   1.527  30.275  1.00  0.00    -0.260 OA
HETATM   13  C11 UNK     1      18.358   4.841  31.586  1.00  0.00     0.090 A 
HETATM   14  C8  UNK     1      18.359   4.600  32.960  1.00  0.00     0.007 A 
HETATM   15  C15 UNK     1      18.392   6.132  31.056  1.00  0.00     0.039 A 
HETATM   16  C12 UNK     1      18.398   5.709  33.815  1.00  0.00     0.022 A 
HETATM   17  C13 UNK     1      18.433   7.009  33.299  1.00  0.00    -0.058 A 
HETATM   18  C16 UNK     1      18.430   7.221  31.921  1.00  0.00     0.010 A 
BRANCH  17  19
HETATM   19  C17 UNK     1      18.474   8.176  34.229  1.00  0.00     0.034 C 
HETATM   20  C19 UNK     1      19.900   8.649  34.503  1.00  0.00     0.010 C 
ENDBRANCH  17  19
ENDBRANCH   7   8
ENDBRANCH   1   7
BRANCH   2  21
HETATM   21  C6  UNK     1      17.832  -2.366  36.843  1.00  0.00     0.375 C 
BRANCH  21  22
HETATM   22  C9  UNK     1      19.069  -3.247  36.870  1.00  0.00     0.250 C 
HETATM   23  O2  UNK     1      20.178  -2.819  37.172  1.00  0.00    -0.271 OA
HETATM   24  N3  UNK     1      18.738  -4.554  36.517  1.00  0.00    -0.326 N 
HETATM   25  H15 UNK     1      17.765  -4.757  36.298  1.00  0.00     0.169 HD
BRANCH  24  26
HETATM   26  C18 UNK     1      19.604  -5.669  36.425  1.00  0.00     0.036 A 
HETATM   27  C20 UNK     1      20.439  -5.996  37.492  1.00  0.00     0.056 A 
HETATM   28  C22 UNK     1      21.291  -7.096  37.401  1.00  0.00     0.069 A 
HETATM   29 Cl1  UNK     1      22.315  -7.477  38.737  1.00  0.00    -0.081 Cl
HETATM   30  C24 UNK     1      21.308  -7.870  36.241  1.00  0.00     0.090 A 
HETATM   31  C23 UNK     1      20.473  -7.544  35.172  1.00  0.00     0.041 A 
HETATM   32  C21 UNK     1      19.620  -6.444  35.265  1.00  0.00     0.032 A 
BRANCH  30  33
HETATM   33  O4  UNK     1      22.130  -8.951  36.124  1.00  0.00    -0.354 OA
HETATM   34  C25 UNK     1      21.826  -9.887  35.091  1.00  0.00     0.210 C 
ENDBRANCH  30  33
ENDBRANCH  24  26
ENDBRANCH  21  22
ENDBRANCH   2  21
TORSDOF 7
ENDMDL
MODEL 3
REMARK VINA RESULT:      -9.3      3.684     10.392
REMARK  7 active torsions:
REMARK  status: ('A' for Active; 'I' for Inactive)
REMARK    1  A    between atoms: C24_32  and  O4_5 
REMARK    2  A    between atoms: C5_13  and  N1_6 
REMARK    3  A    between atoms: C6_14  and  N2_7 
REMARK    4  A    between atoms: C18_26  and  N3_8 
REMARK       I    between atoms: C9_17  and  N3_8 
REMARK    5  A    between atoms: C5_13  and  C7_15 
REMARK    6  A    between atoms: C6_14  and  C9_17 
REMARK    7  A    between atoms: C13_21  and  C17_25 
ROOT
HETATM    1  N1  UNK     1      18.918   3.697  31.370  1.00  0.00     0.096 N 
HETATM    2  N2  UNK     1      19.297   6.353  32.450  1.00  0.00     0.100 N 
HETATM    3  C1  UNK     1      18.105   4.189  32.489  1.00  0.00     0.303 C 
HETATM    4  C2  UNK     1      19.344   4.813  30.516  1.00  0.00     0.303 C 
HETATM    5  C3  UNK     1      18.873   5.236  33.303  1.00  0.00     0.303 C 
HETATM    6  C4  UNK     1      20.111   5.861  31.331  1.00  0.00     0.303 C 
ENDROOT
BRANCH   1   7
HETATM    7  C5  UNK     1      18.184   2.701  30.594  1.00  0.00     0.312 C 
BRANCH   7   8
HETATM    8  C7  UNK     1      18.885   1.387  30.557  1.00  0.00    -0.011 A 
HETATM    9  C10 UNK     1      19.535   0.981  29.457  1.00  0.00     0.092 A 
HETATM   10  C14 UNK     1      20.242  -0.309  29.373  1.00  0.00     0.288 A 
HETATM   11  O1  UNK     1      20.211  -1.111  30.502  1.00  0.00    -0.275 OA
HETATM   12  O3  UNK     1      20.828  -0.647  28.350  1.00  0.00    -0.260 OA
HETATM   13  C11 UNK     1      19.534  -0.711  31.672  1.00  0.00     0.090 A 
HETATM   14  C8  UNK     1      18.869   0.514  31.738  1.00  0.00     0.007 A 
HETATM   15  C15 UNK     1      19.569  -1.599  32.748  1.00  0.00     0.039 A 
HETATM   16  C12 UNK     1      18.221   0.838  32.937  1.00  0.00     0.022 A 
HETATM   17  C13 UNK     1      18.246  -0.042  34.025  1.00  0.00    -0.058 A 
HETATM   18  C16 UNK     1      18.919  -1.259  33.931  1.00  0.00     0.010 A 
BRANCH  17  19
HETATM   19  C17 UNK     1      17.548   0.324  35.292  1.00  0.00     0.034 C 
HETATM   20  C19 UNK     1      16.042   0.089  35.214  1.00  0.00     0.010 C 
ENDBRANCH  17  19
ENDBRANCH   7   8
ENDBRANCH   1   7
BRANCH   2  21
HETATM   21  C6  UNK     1      20.030   7.351  33.226  1.00  0.00     0.375 C 
BRANCH  21  22
HETATM   22  C9  UNK     1      19.075   8.053  34.176  1.00  0.00     0.250 C 
HETATM   23  O2  UNK     1      19.206   8.010  35.395  1.00  0.00    -0.271 OA
HETATM   24  N3  UNK     1      18.087   8.723  33.457  1.00  0.00    -0.326 N 
HETATM   25  H15 UNK     1      18.117   8.671  32.442  1.00  0.00     0.169 HD
BRANCH  24  26
HETATM   26  C18 UNK     1      17.017   9.493  33.972  1.00  0.00     0.036 A 
HETATM   27  C20 UNK     1      17.206  10.843  34.266  1.00  0.00     0.056 A 
HETATM   28  C22 UNK     1      16.151  11.601  34.772  1.00  0.00     0.069 A 
HETATM   29 Cl1  UNK     1      16.412  13.270  35.126  1.00  0.00    -0.081 Cl
HETATM   30  C24 UNK     1      14.906  11.009  34.986  1.00  0.00     0.090 A 
HETATM   31  C23 UNK     1      14.717   9.658  34.693  1.00  0.00     0.041 A 
HETATM   32  C21 UNK     1      15.773   8.901  34.185  1.00  0.00     0.032 A 
BRANCH  30  33
HETATM   33  O4  UNK     1      13.857  11.726  35.479  1.00  0.00    -0.354 OA
HETATM   34  C25 UNK     1      13.655  11.690  36.891  1.00  0.00     0.210 C 
ENDBRANCH  30  33
ENDBRANCH  24  26
ENDBRANCH  21  22
ENDBRANCH   2  21
TORSDOF 7
ENDMDL
MODEL 4
REMARK VINA RESULT:      -8.9      3.136      5.837
REMARK  7 active torsions:
REMARK  status: ('A' for Active; 'I' for Inactive)
REMARK    1  A    between atoms: C24_32  and  O4_5 
REMARK    2  A    between atoms: C5_13  and  N1_6 
REMARK    3  A    between atoms: C6_14  and  N2_7 
REMARK    4  A    between atoms: C18_26  and  N3_8 
REMARK       I    between atoms: C9_17  and  N3_8 
REMARK    5  A    between atoms: C5_13  and  C7_15 
REMARK    6  A    between atoms: C6_14  and  C9_17 
REMARK    7  A    between atoms: C13_21  and  C17_25 
ROOT
HETATM    1  N1  UNK     1      18.580   1.094  34.117  1.00  0.00     0.096 N 
HETATM    2  N2  UNK     1      19.230  -1.304  35.595  1.00  0.00     0.100 N 
HETATM    3  C1  UNK     1      18.197  -0.234  33.622  1.00  0.00     0.303 C 
HETATM    4  C2  UNK     1      18.643   1.097  35.584  1.00  0.00     0.303 C 
HETATM    5  C3  UNK     1      19.169  -1.306  34.128  1.00  0.00     0.303 C 
HETATM    6  C4  UNK     1      19.614   0.024  36.090  1.00  0.00     0.303 C 
ENDROOT
BRANCH   1   7
HETATM    7  C5  UNK     1      17.651   2.115  33.636  1.00  0.00     0.312 C 
BRANCH   7   8
HETATM    8  C7  UNK     1      18.106   2.735  32.361  1.00  0.00    -0.011 A 
HETATM    9  C10 UNK     1      18.349   1.986  31.276  1.00  0.00     0.092 A 
HETATM   10  C14 UNK     1      18.802   2.553  29.994  1.00  0.00     0.288 A 
HETATM   11  O1  UNK     1      18.972   3.928  29.946  1.00  0.00    -0.275 OA
HETATM   12  O3  UNK     1      19.013   1.837  29.022  1.00  0.00    -0.260 OA
HETATM   13  C11 UNK     1      18.725   4.740  31.071  1.00  0.00     0.090 A 
HETATM   14  C8  UNK     1      18.296   4.189  32.279  1.00  0.00     0.007 A 
HETATM   15  C15 UNK     1      18.929   6.111  30.908  1.00  0.00     0.039 A 
HETATM   16  C12 UNK     1      18.073   5.065  33.350  1.00  0.00     0.022 A 
HETATM   17  C13 UNK     1      18.274   6.442  33.202  1.00  0.00    -0.058 A 
HETATM   18  C16 UNK     1      18.702   6.964  31.983  1.00  0.00     0.010 A 
BRANCH  17  19
HETATM   19  C17 UNK     1      18.030   7.356  34.357  1.00  0.00     0.034 C 
HETATM   20  C19 UNK     1      19.323   7.951  34.909  1.00  0.00     0.010 C 
ENDBRANCH  17  19
ENDBRANCH   7   8
ENDBRANCH   1   7
BRANCH   2  21
HETATM   21  C6  UNK     1      20.158  -2.325  36.077  1.00  0.00     0.375 C 
BRANCH  21  22
HETATM   22  C9  UNK     1      19.376  -3.553  36.513  1.00  0.00     0.250 C 
HETATM   23  O2  UNK     1      18.214  -3.493  36.900  1.00  0.00    -0.271 OA
HETATM   24  N3  UNK     1      20.167  -4.694  36.395  1.00  0.00    -0.326 N 
HETATM   25  H15 UNK     1      21.118  -4.582  36.049  1.00  0.00     0.169 HD
BRANCH  24  26
HETATM   26  C18 UNK     1      19.808  -6.029  36.699  1.00  0.00     0.036 A 
HETATM   27  C20 UNK     1      20.163  -6.586  37.927  1.00  0.00     0.056 A 
HETATM   28  C22 UNK     1      19.808  -7.900  38.226  1.00  0.00     0.069 A 
HETATM   29 Cl1  UNK     1      20.261  -8.564  39.754  1.00  0.00    -0.081 Cl
HETATM   30  C24 UNK     1      19.098  -8.660  37.296  1.00  0.00     0.090 A 
HETATM   31  C23 UNK     1      18.743  -8.103  36.067  1.00  0.00     0.041 A 
HETATM   32  C21 UNK     1      19.098  -6.787  35.769  1.00  0.00     0.032 A 
BRANCH  30  33
HETATM   33  O4  UNK     1      18.738  -9.947  37.562  1.00  0.00    -0.354 OA
HETATM   34  C25 UNK     1      19.716 -10.957  37.319  1.00  0.00     0.210 C 
ENDBRANCH  30  33
ENDBRANCH  24  26
ENDBRANCH  21  22
ENDBRANCH   2  21
TORSDOF 7
ENDMDL
MODEL 5
REMARK VINA RESULT:      -8.9      7.349     10.849
REMARK  7 active torsions:
REMARK  status: ('A' for Active; 'I' for Inactive)
REMARK    1  A    between atoms: C24_32  and  O4_5 
REMARK    2  A    between atoms: C5_13  and  N1_6 
REMARK    3  A    between atoms: C6_14  and  N2_7 
REMARK    4  A    between atoms: C18_26  and  N3_8 
REMARK       I    between atoms: C9_17  and  N3_8 
REMARK    5  A    between atoms: C5_13  and  C7_15 
REMARK    6  A    between atoms: C6_14  and  C9_17 
REMARK    7  A    between atoms: C13_21  and  C17_25 
ROOT
HETATM    1  N1  UNK     1      19.861  -4.063  37.203  1.00  0.00     0.096 N 
HETATM    2  N2  UNK     1      19.502  -6.903  37.609  1.00  0.00     0.100 N 
HETATM    3  C1  UNK     1      20.836  -4.854  37.964  1.00  0.00     0.303 C 
HETATM    4  C2  UNK     1      19.197  -4.898  36.195  1.00  0.00     0.303 C 
HETATM    5  C3  UNK     1      20.164  -6.066  38.618  1.00  0.00     0.303 C 
HETATM    6  C4  UNK     1      18.526  -6.111  36.849  1.00  0.00     0.303 C 
ENDROOT
BRANCH   1   7
HETATM    7  C5  UNK     1      20.504  -2.909  36.578  1.00  0.00     0.312 C 
BRANCH   7   8
HETATM    8  C7  UNK     1      19.517  -1.886  36.135  1.00  0.00    -0.011 A 
HETATM    9  C10 UNK     1      18.737  -1.247  37.020  1.00  0.00     0.092 A 
HETATM   10  C14 UNK     1      17.747  -0.230  36.629  1.00  0.00     0.288 A 
HETATM   11  O1  UNK     1      17.645   0.055  35.277  1.00  0.00    -0.275 OA
HETATM   12  O3  UNK     1      17.052   0.335  37.467  1.00  0.00    -0.260 OA
HETATM   13  C11 UNK     1      18.451  -0.601  34.323  1.00  0.00     0.090 A 
HETATM   14  C8  UNK     1      19.386  -1.563  34.708  1.00  0.00     0.007 A 
HETATM   15  C15 UNK     1      18.263  -0.235  32.990  1.00  0.00     0.039 A 
HETATM   16  C12 UNK     1      20.147  -2.168  33.700  1.00  0.00     0.022 A 
HETATM   17  C13 UNK     1      19.970  -1.812  32.358  1.00  0.00    -0.058 A 
HETATM   18  C16 UNK     1      19.029  -0.847  32.003  1.00  0.00     0.010 A 
BRANCH  17  19
HETATM   19  C17 UNK     1      20.793  -2.470  31.301  1.00  0.00     0.034 C 
HETATM   20  C19 UNK     1      20.361  -2.065  29.894  1.00  0.00     0.010 C 
ENDBRANCH  17  19
ENDBRANCH   7   8
ENDBRANCH   1   7
BRANCH   2  21
HETATM   21  C6  UNK     1      18.860  -8.058  38.233  1.00  0.00     0.375 C 
BRANCH  21  22
HETATM   22  C9  UNK     1      19.677  -9.306  37.946  1.00  0.00     0.250 C 
HETATM   23  O2  UNK     1      19.372 -10.410  38.383  1.00  0.00    -0.271 OA
HETATM   24  N3  UNK     1      20.768  -8.992  37.138  1.00  0.00    -0.326 N 
HETATM   25  H15 UNK     1      20.884  -8.024  36.847  1.00  0.00     0.169 HD
BRANCH  24  26
HETATM   26  C18 UNK     1      21.763  -9.872  36.649  1.00  0.00     0.036 A 
HETATM   27  C20 UNK     1      23.112  -9.592  36.867  1.00  0.00     0.056 A 
HETATM   28  C22 UNK     1      24.091 -10.460  36.387  1.00  0.00     0.069 A 
HETATM   29 Cl1  UNK     1      25.753 -10.088  36.670  1.00  0.00    -0.081 Cl
HETATM   30  C24 UNK     1      23.723 -11.609  35.688  1.00  0.00     0.090 A 
HETATM   31  C23 UNK     1      22.374 -11.890  35.470  1.00  0.00     0.041 A 
HETATM   32  C21 UNK     1      21.394 -11.022  35.951  1.00  0.00     0.032 A 
BRANCH  30  33
HETATM   33  O4  UNK     1      24.659 -12.476  35.207  1.00  0.00    -0.354 OA
HETATM   34  C25 UNK     1      24.740 -13.755  35.834  1.00  0.00     0.210 C 
ENDBRANCH  30  33
ENDBRANCH  24  26
ENDBRANCH  21  22
ENDBRANCH   2  21
TORSDOF 7
ENDMDL
MODEL 6
REMARK VINA RESULT:      -8.8     11.577     16.251
REMARK  7 active torsions:
REMARK  status: ('A' for Active; 'I' for Inactive)
REMARK    1  A    between atoms: C24_32  and  O4_5 
REMARK    2  A    between atoms: C5_13  and  N1_6 
REMARK    3  A    between atoms: C6_14  and  N2_7 
REMARK    4  A    between atoms: C18_26  and  N3_8 
REMARK       I    between atoms: C9_17  and  N3_8 
REMARK    5  A    between atoms: C5_13  and  C7_15 
REMARK    6  A    between atoms: C6_14  and  C9_17 
REMARK    7  A    between atoms: C13_21  and  C17_25 
ROOT
HETATM    1  N1  UNK     1      28.974  -8.436  36.072  1.00  0.00     0.096 N 
HETATM    2  N2  UNK     1      27.392  -9.287  38.337  1.00  0.00     0.100 N 
HETATM    3  C1  UNK     1      29.549  -8.505  37.421  1.00  0.00     0.303 C 
HETATM    4  C2  UNK     1      27.898  -9.422  35.921  1.00  0.00     0.303 C 
HETATM    5  C3  UNK     1      28.467  -8.298  38.487  1.00  0.00     0.303 C 
HETATM    6  C4  UNK     1      26.816  -9.216  36.988  1.00  0.00     0.303 C 
ENDROOT
BRANCH   1   7
HETATM    7  C5  UNK     1      30.007  -8.635  35.057  1.00  0.00     0.312 C 
BRANCH   7   8
HETATM    8  C7  UNK     1      30.471  -7.350  34.466  1.00  0.00    -0.011 A 
HETATM    9  C10 UNK     1      31.471  -6.653  35.024  1.00  0.00     0.092 A 
HETATM   10  C14 UNK     1      31.964  -5.378  34.477  1.00  0.00     0.288 A 
HETATM   11  O1  UNK     1      31.342  -4.909  33.331  1.00  0.00    -0.275 OA
HETATM   12  O3  UNK     1      32.883  -4.768  35.014  1.00  0.00    -0.260 OA
HETATM   13  C11 UNK     1      30.287  -5.619  32.722  1.00  0.00     0.090 A 
HETATM   14  C8  UNK     1      29.830  -6.827  33.252  1.00  0.00     0.007 A 
HETATM   15  C15 UNK     1      29.735  -5.053  31.573  1.00  0.00     0.039 A 
HETATM   16  C12 UNK     1      28.778  -7.471  32.588  1.00  0.00     0.022 A 
HETATM   17  C13 UNK     1      28.213  -6.915  31.434  1.00  0.00    -0.058 A 
HETATM   18  C16 UNK     1      28.691  -5.708  30.927  1.00  0.00     0.010 A 
BRANCH  17  19
HETATM   19  C17 UNK     1      27.094  -7.619  30.743  1.00  0.00     0.034 C 
HETATM   20  C19 UNK     1      26.096  -6.647  30.118  1.00  0.00     0.010 C 
ENDBRANCH  17  19
ENDBRANCH   7   8
ENDBRANCH   1   7
BRANCH   2  21
HETATM   21  C6  UNK     1      26.360  -9.089  39.353  1.00  0.00     0.375 C 
BRANCH  21  22
HETATM   22  C9  UNK     1      25.364  -8.050  38.866  1.00  0.00     0.250 C 
HETATM   23  O2  UNK     1      25.692  -6.904  38.579  1.00  0.00    -0.271 OA
HETATM   24  N3  UNK     1      24.086  -8.602  38.801  1.00  0.00    -0.326 N 
HETATM   25  H15 UNK     1      23.974  -9.578  39.067  1.00  0.00     0.169 HD
BRANCH  24  26
HETATM   26  C18 UNK     1      22.889  -7.964  38.396  1.00  0.00     0.036 A 
HETATM   27  C20 UNK     1      22.375  -8.190  37.119  1.00  0.00     0.056 A 
HETATM   28  C22 UNK     1      21.195  -7.562  36.722  1.00  0.00     0.069 A 
HETATM   29 Cl1  UNK     1      20.581  -7.859  35.137  1.00  0.00    -0.081 Cl
HETATM   30  C24 UNK     1      20.529  -6.707  37.600  1.00  0.00     0.090 A 
HETATM   31  C23 UNK     1      21.045  -6.480  38.877  1.00  0.00     0.041 A 
HETATM   32  C21 UNK     1      22.224  -7.110  39.275  1.00  0.00     0.032 A 
BRANCH  30  33
HETATM   33  O4  UNK     1      19.375  -6.080  37.238  1.00  0.00    -0.354 OA
HETATM   34  C25 UNK     1      19.496  -4.780  36.663  1.00  0.00     0.210 C 
ENDBRANCH  30  33
ENDBRANCH  24  26
ENDBRANCH  21  22
ENDBRANCH   2  21
TORSDOF 7
ENDMDL
MODEL 7
REMARK VINA RESULT:      -8.7     16.664     20.263
REMARK  7 active torsions:
REMARK  status: ('A' for Active; 'I' for Inactive)
REMARK    1  A    between atoms: C24_32  and  O4_5 
REMARK    2  A    between atoms: C5_13  and  N1_6 
REMARK    3  A    between atoms: C6_14  and  N2_7 
REMARK    4  A    between atoms: C18_26  and  N3_8 
REMARK       I    between atoms: C9_17  and  N3_8 
REMARK    5  A    between atoms: C5_13  and  C7_15 
REMARK    6  A    between atoms: C6_14  and  C9_17 
REMARK    7  A    between atoms: C13_21  and  C17_25 
ROOT
HETATM    1  N1  UNK     1      32.372  -5.699  35.884  1.00  0.00     0.096 N 
HETATM    2  N2  UNK     1      35.009  -6.353  34.895  1.00  0.00     0.100 N 
HETATM    3  C1  UNK     1      33.410  -4.670  35.742  1.00  0.00     0.303 C 
HETATM    4  C2  UNK     1      32.572  -6.770  34.900  1.00  0.00     0.303 C 
HETATM    5  C3  UNK     1      34.808  -5.284  35.881  1.00  0.00     0.303 C 
HETATM    6  C4  UNK     1      33.971  -7.382  35.038  1.00  0.00     0.303 C 
ENDROOT
BRANCH   1   7
HETATM    7  C5  UNK     1      31.040  -5.113  35.749  1.00  0.00     0.312 C 
BRANCH   7   8
HETATM    8  C7  UNK     1      30.239  -5.242  36.998  1.00  0.00    -0.011 A 
HETATM    9  C10 UNK     1      30.314  -4.318  37.966  1.00  0.00     0.092 A 
HETATM   10  C14 UNK     1      29.543  -4.402  39.218  1.00  0.00     0.288 A 
HETATM   11  O1  UNK     1      28.711  -5.501  39.365  1.00  0.00    -0.275 OA
HETATM   12  O3  UNK     1      29.636  -3.536  40.081  1.00  0.00    -0.260 OA
HETATM   13  C11 UNK     1      28.612  -6.489  38.364  1.00  0.00     0.090 A 
HETATM   14  C8  UNK     1      29.349  -6.396  37.183  1.00  0.00     0.007 A 
HETATM   15  C15 UNK     1      27.744  -7.552  38.620  1.00  0.00     0.039 A 
HETATM   16  C12 UNK     1      29.194  -7.419  36.239  1.00  0.00     0.022 A 
HETATM   17  C13 UNK     1      28.328  -8.491  36.480  1.00  0.00    -0.058 A 
HETATM   18  C16 UNK     1      27.604  -8.558  37.669  1.00  0.00     0.010 A 
BRANCH  17  19
HETATM   19  C17 UNK     1      28.179  -9.570  35.460  1.00  0.00     0.034 C 
HETATM   20  C19 UNK     1      29.514  -9.963  34.832  1.00  0.00     0.010 C 
ENDBRANCH  17  19
ENDBRANCH   7   8
ENDBRANCH   1   7
BRANCH   2  21
HETATM   21  C6  UNK     1      36.342  -6.938  35.028  1.00  0.00     0.375 C 
BRANCH  21  22
HETATM   22  C9  UNK     1      36.660  -7.758  33.790  1.00  0.00     0.250 C 
HETATM   23  O2  UNK     1      36.636  -7.283  32.659  1.00  0.00    -0.271 OA
HETATM   24  N3  UNK     1      36.972  -9.068  34.147  1.00  0.00    -0.326 N 
HETATM   25  H15 UNK     1      36.956  -9.310  35.135  1.00  0.00     0.169 HD
BRANCH  24  26
HETATM   26  C18 UNK     1      37.325 -10.136  33.288  1.00  0.00     0.036 A 
HETATM   27  C20 UNK     1      38.563 -10.138  32.647  1.00  0.00     0.056 A 
HETATM   28  C22 UNK     1      38.910 -11.192  31.802  1.00  0.00     0.069 A 
HETATM   29 Cl1  UNK     1      40.448 -11.168  31.020  1.00  0.00    -0.081 Cl
HETATM   30  C24 UNK     1      38.018 -12.245  31.598  1.00  0.00     0.090 A 
HETATM   31  C23 UNK     1      36.779 -12.243  32.239  1.00  0.00     0.041 A 
HETATM   32  C21 UNK     1      36.433 -11.189  33.085  1.00  0.00     0.032 A 
BRANCH  30  33
HETATM   33  O4  UNK     1      38.331 -13.287  30.778  1.00  0.00    -0.354 OA
HETATM   34  C25 UNK     1      37.842 -13.228  29.439  1.00  0.00     0.210 C 
ENDBRANCH  30  33
ENDBRANCH  24  26
ENDBRANCH  21  22
ENDBRANCH   2  21
TORSDOF 7
ENDMDL
MODEL 8
REMARK VINA RESULT:      -8.7     11.595     15.842
REMARK  7 active torsions:
REMARK  status: ('A' for Active; 'I' for Inactive)
REMARK    1  A    between atoms: C24_32  and  O4_5 
REMARK    2  A    between atoms: C5_13  and  N1_6 
REMARK    3  A    between atoms: C6_14  and  N2_7 
REMARK    4  A    between atoms: C18_26  and  N3_8 
REMARK       I    between atoms: C9_17  and  N3_8 
REMARK    5  A    between atoms: C5_13  and  C7_15 
REMARK    6  A    between atoms: C6_14  and  C9_17 
REMARK    7  A    between atoms: C13_21  and  C17_25 
ROOT
HETATM    1  N1  UNK     1      23.764  -9.260  37.228  1.00  0.00     0.096 N 
HETATM    2  N2  UNK     1      26.246  -8.320  38.376  1.00  0.00     0.100 N 
HETATM    3  C1  UNK     1      23.824  -8.011  37.999  1.00  0.00     0.303 C 
HETATM    4  C2  UNK     1      25.052  -9.522  36.575  1.00  0.00     0.303 C 
HETATM    5  C3  UNK     1      24.957  -8.060  39.029  1.00  0.00     0.303 C 
HETATM    6  C4  UNK     1      26.186  -9.570  37.606  1.00  0.00     0.303 C 
ENDROOT
BRANCH   1   7
HETATM    7  C5  UNK     1      22.684  -9.211  36.245  1.00  0.00     0.312 C 
BRANCH   7   8
HETATM    8  C7  UNK     1      21.342  -9.366  36.873  1.00  0.00    -0.011 A 
HETATM    9  C10 UNK     1      20.960 -10.535  37.407  1.00  0.00     0.092 A 
HETATM   10  C14 UNK     1      19.644 -10.736  38.038  1.00  0.00     0.288 A 
HETATM   11  O1  UNK     1      18.790  -9.645  38.062  1.00  0.00    -0.275 OA
HETATM   12  O3  UNK     1      19.329 -11.820  38.518  1.00  0.00    -0.260 OA
HETATM   13  C11 UNK     1      19.165  -8.404  37.507  1.00  0.00     0.090 A 
HETATM   14  C8  UNK     1      20.415  -8.227  36.913  1.00  0.00     0.007 A 
HETATM   15  C15 UNK     1      18.226  -7.375  37.588  1.00  0.00     0.039 A 
HETATM   16  C12 UNK     1      20.711  -6.964  36.385  1.00  0.00     0.022 A 
HETATM   17  C13 UNK     1      19.779  -5.922  36.457  1.00  0.00    -0.058 A 
HETATM   18  C16 UNK     1      18.538  -6.127  37.058  1.00  0.00     0.010 A 
BRANCH  17  19
HETATM   19  C17 UNK     1      20.116  -4.584  35.888  1.00  0.00     0.034 C 
HETATM   20  C19 UNK     1      20.254  -3.513  36.967  1.00  0.00     0.010 C 
ENDBRANCH  17  19
ENDBRANCH   7   8
ENDBRANCH   1   7
BRANCH   2  21
HETATM   21  C6  UNK     1      27.326  -8.368  39.358  1.00  0.00     0.375 C 
BRANCH  21  22
HETATM   22  C9  UNK     1      28.298  -7.230  39.096  1.00  0.00     0.250 C 
HETATM   23  O2  UNK     1      28.195  -6.135  39.639  1.00  0.00    -0.271 OA
HETATM   24  N3  UNK     1      29.275  -7.631  38.187  1.00  0.00    -0.326 N 
HETATM   25  H15 UNK     1      29.231  -8.582  37.827  1.00  0.00     0.169 HD
BRANCH  24  26
HETATM   26  C18 UNK     1      30.356  -6.866  37.687  1.00  0.00     0.036 A 
HETATM   27  C20 UNK     1      30.378  -6.480  36.348  1.00  0.00     0.056 A 
HETATM   28  C22 UNK     1      31.443  -5.726  35.856  1.00  0.00     0.069 A 
HETATM   29 Cl1  UNK     1      31.445  -5.261  34.194  1.00  0.00    -0.081 Cl
HETATM   30  C24 UNK     1      32.488  -5.358  36.705  1.00  0.00     0.090 A 
HETATM   31  C23 UNK     1      32.466  -5.745  38.045  1.00  0.00     0.041 A 
HETATM   32  C21 UNK     1      31.400  -6.499  38.536  1.00  0.00     0.032 A 
BRANCH  30  33
HETATM   33  O4  UNK     1      33.541  -4.621  36.252  1.00  0.00    -0.354 OA
HETATM   34  C25 UNK     1      34.695  -5.339  35.820  1.00  0.00     0.210 C 
ENDBRANCH  30  33
ENDBRANCH  24  26
ENDBRANCH  21  22
ENDBRANCH   2  21
TORSDOF 7
ENDMDL
MODEL 9
REMARK VINA RESULT:      -8.6      6.951     10.840
REMARK  7 active torsions:
REMARK  status: ('A' for Active; 'I' for Inactive)
REMARK    1  A    between atoms: C24_32  and  O4_5 
REMARK    2  A    between atoms: C5_13  and  N1_6 
REMARK    3  A    between atoms: C6_14  and  N2_7 
REMARK    4  A    between atoms: C18_26  and  N3_8 
REMARK       I    between atoms: C9_17  and  N3_8 
REMARK    5  A    between atoms: C5_13  and  C7_15 
REMARK    6  A    between atoms: C6_14  and  C9_17 
REMARK    7  A    between atoms: C13_21  and  C17_25 
ROOT
HETATM    1  N1  UNK     1      20.364  -4.496  36.853  1.00  0.00     0.096 N 
HETATM    2  N2  UNK     1      20.659  -7.160  37.937  1.00  0.00     0.100 N 
HETATM    3  C1  UNK     1      19.248  -5.450  36.847  1.00  0.00     0.303 C 
HETATM    4  C2  UNK     1      21.261  -4.763  37.984  1.00  0.00     0.303 C 
HETATM    5  C3  UNK     1      19.764  -6.893  36.805  1.00  0.00     0.303 C 
HETATM    6  C4  UNK     1      21.776  -6.206  37.943  1.00  0.00     0.303 C 
ENDROOT
BRANCH   1   7
HETATM    7  C5  UNK     1      19.871  -3.121  36.895  1.00  0.00     0.312 C 
BRANCH   7   8
HETATM    8  C7  UNK     1      19.798  -2.508  35.540  1.00  0.00    -0.011 A 
HETATM    9  C10 UNK     1      20.460  -3.040  34.503  1.00  0.00     0.092 A 
HETATM   10  C14 UNK     1      20.419  -2.469  33.146  1.00  0.00     0.288 A 
HETATM   11  O1  UNK     1      19.649  -1.330  32.971  1.00  0.00    -0.275 OA
HETATM   12  O3  UNK     1      21.038  -2.984  32.220  1.00  0.00    -0.260 OA
HETATM   13  C11 UNK     1      18.942  -0.748  34.043  1.00  0.00     0.090 A 
HETATM   14  C8  UNK     1      18.990  -1.300  35.324  1.00  0.00     0.007 A 
HETATM   15  C15 UNK     1      18.199   0.397  33.752  1.00  0.00     0.039 A 
HETATM   16  C12 UNK     1      18.259  -0.662  36.334  1.00  0.00     0.022 A 
HETATM   17  C13 UNK     1      17.510   0.488  36.059  1.00  0.00    -0.058 A 
HETATM   18  C16 UNK     1      17.479   1.016  34.769  1.00  0.00     0.010 A 
BRANCH  17  19
HETATM   19  C17 UNK     1      16.739   1.151  37.151  1.00  0.00     0.034 C 
HETATM   20  C19 UNK     1      17.560   1.307  38.428  1.00  0.00     0.010 C 
ENDBRANCH  17  19
ENDBRANCH   7   8
ENDBRANCH   1   7
BRANCH   2  21
HETATM   21  C6  UNK     1      21.151  -8.536  37.897  1.00  0.00     0.375 C 
BRANCH  21  22
HETATM   22  C9  UNK     1      22.505  -8.568  37.210  1.00  0.00     0.250 C 
HETATM   23  O2  UNK     1      22.630  -8.487  35.992  1.00  0.00    -0.271 OA
HETATM   24  N3  UNK     1      23.522  -8.692  38.154  1.00  0.00    -0.326 N 
HETATM   25  H15 UNK     1      23.258  -8.741  39.136  1.00  0.00     0.169 HD
BRANCH  24  26
HETATM   26  C18 UNK     1      24.916  -8.757  37.919  1.00  0.00     0.036 A 
HETATM   27  C20 UNK     1      25.783  -7.920  38.622  1.00  0.00     0.056 A 
HETATM   28  C22 UNK     1      27.156  -7.985  38.390  1.00  0.00     0.069 A 
HETATM   29 Cl1  UNK     1      28.205  -6.937  39.273  1.00  0.00    -0.081 Cl
HETATM   30  C24 UNK     1      27.664  -8.887  37.456  1.00  0.00     0.090 A 
HETATM   31  C23 UNK     1      26.797  -9.725  36.752  1.00  0.00     0.041 A 
HETATM   32  C21 UNK     1      25.423  -9.660  36.985  1.00  0.00     0.032 A 
BRANCH  30  33
HETATM   33  O4  UNK     1      29.002  -8.973  37.210  1.00  0.00    -0.354 OA
HETATM   34  C25 UNK     1      29.395  -9.345  35.889  1.00  0.00     0.210 C 
ENDBRANCH  30  33
ENDBRANCH  24  26
ENDBRANCH  21  22
ENDBRANCH   2  21
TORSDOF 7
ENDMDL
MODEL 10
REMARK VINA RESULT:      -8.6      4.178     12.326
REMARK  7 active torsions:
REMARK  status: ('A' for Active; 'I' for Inactive)
REMARK    1  A    between atoms: C24_32  and  O4_5 
REMARK    2  A    between atoms: C5_13  and  N1_6 
REMARK    3  A    between atoms: C6_14  and  N2_7 
REMARK    4  A    between atoms: C18_26  and  N3_8 
REMARK       I    between atoms: C9_17  and  N3_8 
REMARK    5  A    between atoms: C5_13  and  C7_15 
REMARK    6  A    between atoms: C6_14  and  C9_17 
REMARK    7  A    between atoms: C13_21  and  C17_25 
ROOT
HETATM    1  N1  UNK     1      20.153  -2.707  36.597  1.00  0.00     0.096 N 
HETATM    2  N2  UNK     1      17.902  -0.927  36.242  1.00  0.00     0.100 N 
HETATM    3  C1  UNK     1      18.980  -2.775  37.478  1.00  0.00     0.303 C 
HETATM    4  C2  UNK     1      19.767  -2.223  35.266  1.00  0.00     0.303 C 
HETATM    5  C3  UNK     1      18.289  -1.410  37.573  1.00  0.00     0.303 C 
HETATM    6  C4  UNK     1      19.075  -0.859  35.361  1.00  0.00     0.303 C 
ENDROOT
BRANCH   1   7
HETATM    7  C5  UNK     1      20.809  -4.009  36.506  1.00  0.00     0.312 C 
BRANCH   7   8
HETATM    8  C7  UNK     1      19.898  -5.126  36.882  1.00  0.00    -0.011 A 
HETATM    9  C10 UNK     1      18.649  -5.193  36.399  1.00  0.00     0.092 A 
HETATM   10  C14 UNK     1      17.713  -6.276  36.743  1.00  0.00     0.288 A 
HETATM   11  O1  UNK     1      18.180  -7.254  37.606  1.00  0.00    -0.275 OA
HETATM   12  O3  UNK     1      16.577  -6.305  36.281  1.00  0.00    -0.260 OA
HETATM   13  C11 UNK     1      19.488  -7.210  38.130  1.00  0.00     0.090 A 
HETATM   14  C8  UNK     1      20.365  -6.178  37.796  1.00  0.00     0.007 A 
HETATM   15  C15 UNK     1      19.851  -8.248  38.990  1.00  0.00     0.039 A 
HETATM   16  C12 UNK     1      21.647  -6.206  38.359  1.00  0.00     0.022 A 
HETATM   17  C13 UNK     1      22.027  -7.239  39.223  1.00  0.00    -0.058 A 
HETATM   18  C16 UNK     1      21.130  -8.259  39.539  1.00  0.00     0.010 A 
BRANCH  17  19
HETATM   19  C17 UNK     1      23.398  -7.250  39.811  1.00  0.00     0.034 C 
HETATM   20  C19 UNK     1      24.418  -7.917  38.892  1.00  0.00     0.010 C 
ENDBRANCH  17  19
ENDBRANCH   7   8
ENDBRANCH   1   7
BRANCH   2  21
HETATM   21  C6  UNK     1      17.244   0.375  36.332  1.00  0.00     0.375 C 
BRANCH  21  22
HETATM   22  C9  UNK     1      17.063   0.948  34.937  1.00  0.00     0.250 C 
HETATM   23  O2  UNK     1      16.154   0.597  34.192  1.00  0.00    -0.271 OA
HETATM   24  N3  UNK     1      18.052   1.893  34.673  1.00  0.00    -0.326 N 
HETATM   25  H15 UNK     1      18.738   2.082  35.401  1.00  0.00     0.169 HD
BRANCH  24  26
HETATM   26  C18 UNK     1      18.229   2.651  33.491  1.00  0.00     0.036 A 
HETATM   27  C20 UNK     1      18.432   2.005  32.271  1.00  0.00     0.056 A 
HETATM   28  C22 UNK     1      18.605   2.752  31.107  1.00  0.00     0.069 A 
HETATM   29 Cl1  UNK     1      18.854   1.928  29.611  1.00  0.00    -0.081 Cl
HETATM   30  C24 UNK     1      18.577   4.146  31.161  1.00  0.00     0.090 A 
HETATM   31  C23 UNK     1      18.375   4.792  32.381  1.00  0.00     0.041 A 
HETATM   32  C21 UNK     1      18.200   4.044  33.546  1.00  0.00     0.032 A 
BRANCH  30  33
HETATM   33  O4  UNK     1      18.743   4.901  30.039  1.00  0.00    -0.354 OA
HETATM   34  C25 UNK     1      19.768   5.893  30.072  1.00  0.00     0.210 C 
ENDBRANCH  30  33
ENDBRANCH  24  26
ENDBRANCH  21  22
ENDBRANCH   2  21
TORSDOF 7
ENDMDL
