MODEL 1
REMARK VINA RESULT:      -9.4      0.000      0.000
REMARK  8 active torsions:
REMARK  status: ('A' for Active; 'I' for Inactive)
REMARK    1  A    between atoms: C2_8  and  O1_1 
REMARK    2  A    between atoms: C4_10  and  O1_1 
REMARK    3  A    between atoms: C17_23  and  O2_2 
REMARK    4  A    between atoms: C8_14  and  O2_2 
REMARK    5  A    between atoms: C14_20  and  N1_5 
REMARK    6  A    between atoms: C1_7  and  C6_12 
REMARK    7  A    between atoms: C4_10  and  C8_14 
REMARK    8  A    between atoms: C5_11  and  C7_13 
ROOT
HETATM    1  N2  UNK     1      21.542  -1.679  35.526  1.00  0.00    -0.191 NA
HETATM    2  C6  UNK     1      18.609  -2.975  36.794  1.00  0.00     0.035 C 
HETATM    3  C7  UNK     1      19.828  -3.429  36.395  1.00  0.00     0.055 C 
HETATM    4  C22 UNK     1      20.770  -2.453  35.915  1.00  0.00     0.100 C 
ENDROOT
BRANCH   3   5
HETATM    5  C5  UNK     1      20.222  -4.829  36.433  1.00  0.00    -0.015 A 
HETATM    6  C12 UNK     1      19.886  -5.677  35.377  1.00  0.00     0.015 A 
HETATM    7  C15 UNK     1      20.266  -7.020  35.413  1.00  0.00     0.037 A 
HETATM    8  C14 UNK     1      20.981  -7.513  36.505  1.00  0.00     0.102 A 
HETATM    9  C16 UNK     1      21.316  -6.664  37.560  1.00  0.00     0.037 A 
HETATM   10  C13 UNK     1      20.936  -5.323  37.524  1.00  0.00     0.015 A 
BRANCH   8  11
HETATM   11  N1  UNK     1      21.367  -8.878  36.543  1.00  0.00    -0.116 N 
HETATM   12  O3  UNK     1      21.594  -9.476  35.464  1.00  0.00    -0.532 OA
HETATM   13  O4  UNK     1      21.470  -9.451  37.655  1.00  0.00    -0.532 OA
ENDBRANCH   8  11
ENDBRANCH   3   5
BRANCH   2  14
HETATM   14  C1  UNK     1      18.171  -1.572  36.779  1.00  0.00    -0.032 A 
HETATM   15  C3  UNK     1      17.853  -0.970  35.571  1.00  0.00     0.048 A 
HETATM   16  C2  UNK     1      17.439   0.362  35.557  1.00  0.00     0.069 A 
HETATM   17  C10 UNK     1      17.346   1.076  36.752  1.00  0.00     0.037 A 
HETATM   18  C11 UNK     1      17.668   0.458  37.961  1.00  0.00     0.004 A 
HETATM   19  C9  UNK     1      18.084  -0.874  37.974  1.00  0.00     0.011 A 
BRANCH  16  20
HETATM   20  O1  UNK     1      17.123   0.965  34.378  1.00  0.00    -0.349 OA
BRANCH  20  21
HETATM   21  C4  UNK     1      17.983   2.013  33.935  1.00  0.00     0.202 C 
BRANCH  21  22
HETATM   22  C8  UNK     1      18.476   1.692  32.537  1.00  0.00     0.202 C 
BRANCH  22  23
HETATM   23  O2  UNK     1      18.896   0.334  32.495  1.00  0.00    -0.349 OA
BRANCH  23  24
HETATM   24  C17 UNK     1      19.402  -0.118  31.304  1.00  0.00     0.068 A 
HETATM   25  C18 UNK     1      19.381   0.710  30.188  1.00  0.00     0.037 A 
HETATM   26  C20 UNK     1      19.895   0.250  28.975  1.00  0.00     0.003 A 
HETATM   27  C23 UNK     1      20.426  -1.037  28.888  1.00  0.00     0.000 A 
HETATM   28  C21 UNK     1      20.444  -1.862  30.012  1.00  0.00     0.003 A 
HETATM   29  C19 UNK     1      19.930  -1.402  31.224  1.00  0.00     0.037 A 
ENDBRANCH  23  24
ENDBRANCH  22  23
ENDBRANCH  21  22
ENDBRANCH  20  21
ENDBRANCH  16  20
ENDBRANCH   2  14
TORSDOF 8
ENDMDL
MODEL 2
REMARK VINA RESULT:      -9.2      5.128      8.476
REMARK  8 active torsions:
REMARK  status: ('A' for Active; 'I' for Inactive)
REMARK    1  A    between atoms: C2_8  and  O1_1 
REMARK    2  A    between atoms: C4_10  and  O1_1 
REMARK    3  A    between atoms: C17_23  and  O2_2 
REMARK    4  A    between atoms: C8_14  and  O2_2 
REMARK    5  A    between atoms: C14_20  and  N1_5 
REMARK    6  A    between atoms: C1_7  and  C6_12 
REMARK    7  A    between atoms: C4_10  and  C8_14 
REMARK    8  A    between atoms: C5_11  and  C7_13 
ROOT
HETATM    1  N2  UNK     1      18.269   2.025  30.812  1.00  0.00    -0.191 NA
HETATM    2  C6  UNK     1      18.162   3.982  33.648  1.00  0.00     0.035 C 
HETATM    3  C7  UNK     1      18.208   2.660  33.332  1.00  0.00     0.055 C 
HETATM    4  C22 UNK     1      18.242   2.318  31.935  1.00  0.00     0.100 C 
ENDROOT
BRANCH   3   5
HETATM    5  C5  UNK     1      18.230   1.592  34.319  1.00  0.00    -0.015 A 
HETATM    6  C12 UNK     1      18.323   0.263  33.906  1.00  0.00     0.015 A 
HETATM    7  C15 UNK     1      18.347  -0.762  34.854  1.00  0.00     0.037 A 
HETATM    8  C14 UNK     1      18.276  -0.456  36.213  1.00  0.00     0.102 A 
HETATM    9  C16 UNK     1      18.183   0.873  36.625  1.00  0.00     0.037 A 
HETATM   10  C13 UNK     1      18.160   1.897  35.678  1.00  0.00     0.015 A 
BRANCH   8  11
HETATM   11  N1  UNK     1      18.299  -1.498  37.177  1.00  0.00    -0.116 N 
HETATM   12  O3  UNK     1      18.549  -1.215  38.373  1.00  0.00    -0.532 OA
HETATM   13  O4  UNK     1      18.068  -2.674  36.806  1.00  0.00    -0.532 OA
ENDBRANCH   8  11
ENDBRANCH   3   5
BRANCH   2  14
HETATM   14  C1  UNK     1      18.145   5.093  32.686  1.00  0.00    -0.032 A 
HETATM   15  C3  UNK     1      16.980   5.826  32.511  1.00  0.00     0.048 A 
HETATM   16  C2  UNK     1      16.965   6.879  31.596  1.00  0.00     0.069 A 
HETATM   17  C10 UNK     1      18.114   7.187  30.868  1.00  0.00     0.037 A 
HETATM   18  C11 UNK     1      19.279   6.443  31.054  1.00  0.00     0.004 A 
HETATM   19  C9  UNK     1      19.294   5.389  31.968  1.00  0.00     0.011 A 
BRANCH  16  20
HETATM   20  O1  UNK     1      15.828   7.607  31.415  1.00  0.00    -0.349 OA
BRANCH  20  21
HETATM   21  C4  UNK     1      14.895   7.631  32.493  1.00  0.00     0.202 C 
BRANCH  21  22
HETATM   22  C8  UNK     1      14.932   8.998  33.149  1.00  0.00     0.202 C 
BRANCH  22  23
HETATM   23  O2  UNK     1      15.541   8.883  34.428  1.00  0.00    -0.349 OA
BRANCH  23  24
HETATM   24  C17 UNK     1      16.911   8.852  34.459  1.00  0.00     0.068 A 
HETATM   25  C18 UNK     1      17.562   7.800  35.092  1.00  0.00     0.037 A 
HETATM   26  C20 UNK     1      18.956   7.769  35.125  1.00  0.00     0.003 A 
HETATM   27  C23 UNK     1      19.690   8.792  34.523  1.00  0.00     0.000 A 
HETATM   28  C21 UNK     1      19.030   9.844  33.889  1.00  0.00     0.003 A 
HETATM   29  C19 UNK     1      17.636   9.875  33.857  1.00  0.00     0.037 A 
ENDBRANCH  23  24
ENDBRANCH  22  23
ENDBRANCH  21  22
ENDBRANCH  20  21
ENDBRANCH  16  20
ENDBRANCH   2  14
TORSDOF 8
ENDMDL
MODEL 3
REMARK VINA RESULT:      -9.0      4.721     10.708
REMARK  8 active torsions:
REMARK  status: ('A' for Active; 'I' for Inactive)
REMARK    1  A    between atoms: C2_8  and  O1_1 
REMARK    2  A    between atoms: C4_10  and  O1_1 
REMARK    3  A    between atoms: C17_23  and  O2_2 
REMARK    4  A    between atoms: C8_14  and  O2_2 
REMARK    5  A    between atoms: C14_20  and  N1_5 
REMARK    6  A    between atoms: C1_7  and  C6_12 
REMARK    7  A    between atoms: C4_10  and  C8_14 
REMARK    8  A    between atoms: C5_11  and  C7_13 
ROOT
HETATM    1  N2  UNK     1      17.669   2.353  33.466  1.00  0.00    -0.191 NA
HETATM    2  C6  UNK     1      18.804   3.917  30.611  1.00  0.00     0.035 C 
HETATM    3  C7  UNK     1      18.330   4.267  31.837  1.00  0.00     0.055 C 
HETATM    4  C22 UNK     1      17.967   3.201  32.732  1.00  0.00     0.100 C 
ENDROOT
BRANCH   3   5
HETATM    5  C5  UNK     1      18.179   5.644  32.283  1.00  0.00    -0.015 A 
HETATM    6  C12 UNK     1      19.264   6.317  32.845  1.00  0.00     0.015 A 
HETATM    7  C15 UNK     1      19.120   7.638  33.272  1.00  0.00     0.037 A 
HETATM    8  C14 UNK     1      17.890   8.285  33.136  1.00  0.00     0.102 A 
HETATM    9  C16 UNK     1      16.807   7.610  32.574  1.00  0.00     0.037 A 
HETATM   10  C13 UNK     1      16.951   6.290  32.148  1.00  0.00     0.015 A 
BRANCH   8  11
HETATM   11  N1  UNK     1      17.743   9.627  33.570  1.00  0.00    -0.116 N 
HETATM   12  O3  UNK     1      16.613  10.169  33.503  1.00  0.00    -0.532 OA
HETATM   13  O4  UNK     1      18.747  10.238  34.011  1.00  0.00    -0.532 OA
ENDBRANCH   8  11
ENDBRANCH   3   5
BRANCH   2  14
HETATM   14  C1  UNK     1      18.979   2.543  30.121  1.00  0.00    -0.032 A 
HETATM   15  C3  UNK     1      19.792   1.666  30.824  1.00  0.00     0.048 A 
HETATM   16  C2  UNK     1      19.958   0.361  30.357  1.00  0.00     0.069 A 
HETATM   17  C10 UNK     1      19.309  -0.050  29.193  1.00  0.00     0.037 A 
HETATM   18  C11 UNK     1      18.494   0.841  28.496  1.00  0.00     0.004 A 
HETATM   19  C9  UNK     1      18.329   2.145  28.962  1.00  0.00     0.011 A 
BRANCH  16  20
HETATM   20  O1  UNK     1      20.752  -0.510  31.039  1.00  0.00    -0.349 OA
BRANCH  20  21
HETATM   21  C4  UNK     1      20.135  -1.693  31.542  1.00  0.00     0.202 C 
BRANCH  21  22
HETATM   22  C8  UNK     1      18.947  -1.303  32.401  1.00  0.00     0.202 C 
BRANCH  22  23
HETATM   23  O2  UNK     1      19.351  -1.273  33.764  1.00  0.00    -0.349 OA
BRANCH  23  24
HETATM   24  C17 UNK     1      18.443  -0.783  34.666  1.00  0.00     0.068 A 
HETATM   25  C18 UNK     1      17.083  -0.892  34.402  1.00  0.00     0.037 A 
HETATM   26  C20 UNK     1      16.158  -0.392  35.319  1.00  0.00     0.003 A 
HETATM   27  C23 UNK     1      16.601   0.213  36.495  1.00  0.00     0.000 A 
HETATM   28  C21 UNK     1      17.967   0.318  36.753  1.00  0.00     0.003 A 
HETATM   29  C19 UNK     1      18.891  -0.181  35.836  1.00  0.00     0.037 A 
ENDBRANCH  23  24
ENDBRANCH  22  23
ENDBRANCH  21  22
ENDBRANCH  20  21
ENDBRANCH  16  20
ENDBRANCH   2  14
TORSDOF 8
ENDMDL
MODEL 4
REMARK VINA RESULT:      -8.9      1.906      2.929
REMARK  8 active torsions:
REMARK  status: ('A' for Active; 'I' for Inactive)
REMARK    1  A    between atoms: C2_8  and  O1_1 
REMARK    2  A    between atoms: C4_10  and  O1_1 
REMARK    3  A    between atoms: C17_23  and  O2_2 
REMARK    4  A    between atoms: C8_14  and  O2_2 
REMARK    5  A    between atoms: C14_20  and  N1_5 
REMARK    6  A    between atoms: C1_7  and  C6_12 
REMARK    7  A    between atoms: C4_10  and  C8_14 
REMARK    8  A    between atoms: C5_11  and  C7_13 
ROOT
HETATM    1  N2  UNK     1      21.586  -1.706  35.618  1.00  0.00    -0.191 NA
HETATM    2  C6  UNK     1      18.590  -2.986  36.746  1.00  0.00     0.035 C 
HETATM    3  C7  UNK     1      19.825  -3.446  36.409  1.00  0.00     0.055 C 
HETATM    4  C22 UNK     1      20.794  -2.476  35.972  1.00  0.00     0.100 C 
ENDROOT
BRANCH   3   5
HETATM    5  C5  UNK     1      20.211  -4.848  36.471  1.00  0.00    -0.015 A 
HETATM    6  C12 UNK     1      19.821  -5.724  35.458  1.00  0.00     0.015 A 
HETATM    7  C15 UNK     1      20.193  -7.068  35.516  1.00  0.00     0.037 A 
HETATM    8  C14 UNK     1      20.954  -7.534  36.589  1.00  0.00     0.102 A 
HETATM    9  C16 UNK     1      21.342  -6.657  37.602  1.00  0.00     0.037 A 
HETATM   10  C13 UNK     1      20.970  -5.314  37.543  1.00  0.00     0.015 A 
BRANCH   8  11
HETATM   11  N1  UNK     1      21.331  -8.901  36.650  1.00  0.00    -0.116 N 
HETATM   12  O3  UNK     1      20.926  -9.685  35.759  1.00  0.00    -0.532 OA
HETATM   13  O4  UNK     1      22.062  -9.289  37.595  1.00  0.00    -0.532 OA
ENDBRANCH   8  11
ENDBRANCH   3   5
BRANCH   2  14
HETATM   14  C1  UNK     1      18.159  -1.581  36.705  1.00  0.00    -0.032 A 
HETATM   15  C3  UNK     1      17.875  -0.991  35.483  1.00  0.00     0.048 A 
HETATM   16  C2  UNK     1      17.467   0.343  35.444  1.00  0.00     0.069 A 
HETATM   17  C10 UNK     1      17.348   1.070  36.629  1.00  0.00     0.037 A 
HETATM   18  C11 UNK     1      17.637   0.464  37.851  1.00  0.00     0.004 A 
HETATM   19  C9  UNK     1      18.046  -0.869  37.889  1.00  0.00     0.011 A 
BRANCH  16  20
HETATM   20  O1  UNK     1      17.184   0.934  34.251  1.00  0.00    -0.349 OA
BRANCH  20  21
HETATM   21  C4  UNK     1      18.038   1.998  33.835  1.00  0.00     0.202 C 
BRANCH  21  22
HETATM   22  C8  UNK     1      18.428   1.781  32.385  1.00  0.00     0.202 C 
BRANCH  22  23
HETATM   23  O2  UNK     1      17.678   2.669  31.566  1.00  0.00    -0.349 OA
BRANCH  23  24
HETATM   24  C17 UNK     1      18.194   3.925  31.383  1.00  0.00     0.068 A 
HETATM   25  C18 UNK     1      19.010   4.181  30.287  1.00  0.00     0.037 A 
HETATM   26  C20 UNK     1      19.537   5.459  30.101  1.00  0.00     0.003 A 
HETATM   27  C23 UNK     1      19.244   6.473  31.013  1.00  0.00     0.000 A 
HETATM   28  C21 UNK     1      18.425   6.209  32.111  1.00  0.00     0.003 A 
HETATM   29  C19 UNK     1      17.899   4.931  32.297  1.00  0.00     0.037 A 
ENDBRANCH  23  24
ENDBRANCH  22  23
ENDBRANCH  21  22
ENDBRANCH  20  21
ENDBRANCH  16  20
ENDBRANCH   2  14
TORSDOF 8
ENDMDL
MODEL 5
REMARK VINA RESULT:      -8.7      6.832     12.692
REMARK  8 active torsions:
REMARK  status: ('A' for Active; 'I' for Inactive)
REMARK    1  A    between atoms: C2_8  and  O1_1 
REMARK    2  A    between atoms: C4_10  and  O1_1 
REMARK    3  A    between atoms: C17_23  and  O2_2 
REMARK    4  A    between atoms: C8_14  and  O2_2 
REMARK    5  A    between atoms: C14_20  and  N1_5 
REMARK    6  A    between atoms: C1_7  and  C6_12 
REMARK    7  A    between atoms: C4_10  and  C8_14 
REMARK    8  A    between atoms: C5_11  and  C7_13 
ROOT
HETATM    1  N2  UNK     1      14.589   6.840  31.438  1.00  0.00    -0.191 NA
HETATM    2  C6  UNK     1      17.685   7.410  32.844  1.00  0.00     0.035 C 
HETATM    3  C7  UNK     1      16.441   7.956  32.881  1.00  0.00     0.055 C 
HETATM    4  C22 UNK     1      15.422   7.332  32.079  1.00  0.00     0.100 C 
ENDROOT
BRANCH   3   5
HETATM    5  C5  UNK     1      16.091   9.119  33.682  1.00  0.00    -0.015 A 
HETATM    6  C12 UNK     1      14.835   9.199  34.285  1.00  0.00     0.015 A 
HETATM    7  C15 UNK     1      14.501  10.314  35.055  1.00  0.00     0.037 A 
HETATM    8  C14 UNK     1      15.422  11.348  35.221  1.00  0.00     0.102 A 
HETATM    9  C16 UNK     1      16.677  11.268  34.618  1.00  0.00     0.037 A 
HETATM   10  C13 UNK     1      17.011  10.154  33.848  1.00  0.00     0.015 A 
BRANCH   8  11
HETATM   11  N1  UNK     1      15.082  12.482  36.003  1.00  0.00    -0.116 N 
HETATM   12  O3  UNK     1      14.048  13.133  35.716  1.00  0.00    -0.532 OA
HETATM   13  O4  UNK     1      15.825  12.805  36.962  1.00  0.00    -0.532 OA
ENDBRANCH   8  11
ENDBRANCH   3   5
BRANCH   2  14
HETATM   14  C1  UNK     1      18.081   6.234  32.056  1.00  0.00    -0.032 A 
HETATM   15  C3  UNK     1      17.742   4.966  32.504  1.00  0.00     0.048 A 
HETATM   16  C2  UNK     1      18.119   3.851  31.755  1.00  0.00     0.069 A 
HETATM   17  C10 UNK     1      18.831   4.017  30.568  1.00  0.00     0.037 A 
HETATM   18  C11 UNK     1      19.165   5.297  30.127  1.00  0.00     0.004 A 
HETATM   19  C9  UNK     1      18.789   6.412  30.877  1.00  0.00     0.011 A 
BRANCH  16  20
HETATM   20  O1  UNK     1      17.792   2.601  32.184  1.00  0.00    -0.349 OA
BRANCH  20  21
HETATM   21  C4  UNK     1      18.574   1.518  31.684  1.00  0.00     0.202 C 
BRANCH  21  22
HETATM   22  C8  UNK     1      18.907   0.579  32.828  1.00  0.00     0.202 C 
BRANCH  22  23
HETATM   23  O2  UNK     1      17.697   0.104  33.404  1.00  0.00    -0.349 OA
BRANCH  23  24
HETATM   24  C17 UNK     1      17.410   0.530  34.675  1.00  0.00     0.068 A 
HETATM   25  C18 UNK     1      16.156   0.279  35.219  1.00  0.00     0.037 A 
HETATM   26  C20 UNK     1      15.863   0.714  36.511  1.00  0.00     0.003 A 
HETATM   27  C23 UNK     1      16.828   1.398  37.252  1.00  0.00     0.000 A 
HETATM   28  C21 UNK     1      18.084   1.646  36.700  1.00  0.00     0.003 A 
HETATM   29  C19 UNK     1      18.376   1.211  35.408  1.00  0.00     0.037 A 
ENDBRANCH  23  24
ENDBRANCH  22  23
ENDBRANCH  21  22
ENDBRANCH  20  21
ENDBRANCH  16  20
ENDBRANCH   2  14
TORSDOF 8
ENDMDL
MODEL 6
REMARK VINA RESULT:      -8.5      5.321      8.752
REMARK  8 active torsions:
REMARK  status: ('A' for Active; 'I' for Inactive)
REMARK    1  A    between atoms: C2_8  and  O1_1 
REMARK    2  A    between atoms: C4_10  and  O1_1 
REMARK    3  A    between atoms: C17_23  and  O2_2 
REMARK    4  A    between atoms: C8_14  and  O2_2 
REMARK    5  A    between atoms: C14_20  and  N1_5 
REMARK    6  A    between atoms: C1_7  and  C6_12 
REMARK    7  A    between atoms: C4_10  and  C8_14 
REMARK    8  A    between atoms: C5_11  and  C7_13 
ROOT
HETATM    1  N2  UNK     1      17.750   2.333  28.241  1.00  0.00    -0.191 NA
HETATM    2  C6  UNK     1      19.175   2.816  31.343  1.00  0.00     0.035 C 
HETATM    3  C7  UNK     1      19.033   1.809  30.440  1.00  0.00     0.055 C 
HETATM    4  C22 UNK     1      18.322   2.108  29.226  1.00  0.00     0.100 C 
ENDROOT
BRANCH   3   5
HETATM    5  C5  UNK     1      19.562   0.468  30.635  1.00  0.00    -0.015 A 
HETATM    6  C12 UNK     1      19.254  -0.241  31.796  1.00  0.00     0.015 A 
HETATM    7  C15 UNK     1      19.759  -1.529  31.982  1.00  0.00     0.037 A 
HETATM    8  C14 UNK     1      20.572  -2.106  31.006  1.00  0.00     0.102 A 
HETATM    9  C16 UNK     1      20.879  -1.396  29.845  1.00  0.00     0.037 A 
HETATM   10  C13 UNK     1      20.374  -0.109  29.660  1.00  0.00     0.015 A 
BRANCH   8  11
HETATM   11  N1  UNK     1      21.087  -3.415  31.195  1.00  0.00    -0.116 N 
HETATM   12  O3  UNK     1      21.198  -3.863  32.361  1.00  0.00    -0.532 OA
HETATM   13  O4  UNK     1      21.417  -4.089  30.189  1.00  0.00    -0.532 OA
ENDBRANCH   8  11
ENDBRANCH   3   5
BRANCH   2  14
HETATM   14  C1  UNK     1      18.664   4.186  31.186  1.00  0.00    -0.032 A 
HETATM   15  C3  UNK     1      17.644   4.633  32.012  1.00  0.00     0.048 A 
HETATM   16  C2  UNK     1      17.159   5.932  31.861  1.00  0.00     0.069 A 
HETATM   17  C10 UNK     1      17.701   6.769  30.886  1.00  0.00     0.037 A 
HETATM   18  C11 UNK     1      18.727   6.308  30.062  1.00  0.00     0.004 A 
HETATM   19  C9  UNK     1      19.211   5.008  30.212  1.00  0.00     0.011 A 
BRANCH  16  20
HETATM   20  O1  UNK     1      16.158   6.383  32.667  1.00  0.00    -0.349 OA
BRANCH  20  21
HETATM   21  C4  UNK     1      15.607   7.662  32.361  1.00  0.00     0.202 C 
BRANCH  21  22
HETATM   22  C8  UNK     1      15.497   8.472  33.639  1.00  0.00     0.202 C 
BRANCH  22  23
HETATM   23  O2  UNK     1      16.322   9.625  33.530  1.00  0.00    -0.349 OA
BRANCH  23  24
HETATM   24  C17 UNK     1      17.632   9.485  33.909  1.00  0.00     0.068 A 
HETATM   25  C18 UNK     1      18.094   8.248  34.344  1.00  0.00     0.037 A 
HETATM   26  C20 UNK     1      19.426   8.106  34.732  1.00  0.00     0.003 A 
HETATM   27  C23 UNK     1      20.288   9.202  34.681  1.00  0.00     0.000 A 
HETATM   28  C21 UNK     1      19.817  10.439  34.243  1.00  0.00     0.003 A 
HETATM   29  C19 UNK     1      18.485  10.582  33.856  1.00  0.00     0.037 A 
ENDBRANCH  23  24
ENDBRANCH  22  23
ENDBRANCH  21  22
ENDBRANCH  20  21
ENDBRANCH  16  20
ENDBRANCH   2  14
TORSDOF 8
ENDMDL
MODEL 7
REMARK VINA RESULT:      -8.5      4.704      9.399
REMARK  8 active torsions:
REMARK  status: ('A' for Active; 'I' for Inactive)
REMARK    1  A    between atoms: C2_8  and  O1_1 
REMARK    2  A    between atoms: C4_10  and  O1_1 
REMARK    3  A    between atoms: C17_23  and  O2_2 
REMARK    4  A    between atoms: C8_14  and  O2_2 
REMARK    5  A    between atoms: C14_20  and  N1_5 
REMARK    6  A    between atoms: C1_7  and  C6_12 
REMARK    7  A    between atoms: C4_10  and  C8_14 
REMARK    8  A    between atoms: C5_11  and  C7_13 
ROOT
HETATM    1  N2  UNK     1      17.549   2.920  31.539  1.00  0.00    -0.191 NA
HETATM    2  C6  UNK     1      18.282   3.128  34.902  1.00  0.00     0.035 C 
HETATM    3  C7  UNK     1      18.235   3.954  33.823  1.00  0.00     0.055 C 
HETATM    4  C22 UNK     1      17.854   3.373  32.563  1.00  0.00     0.100 C 
ENDROOT
BRANCH   3   5
HETATM    5  C5  UNK     1      18.539   5.376  33.880  1.00  0.00    -0.015 A 
HETATM    6  C12 UNK     1      17.546   6.288  34.235  1.00  0.00     0.015 A 
HETATM    7  C15 UNK     1      17.838   7.652  34.291  1.00  0.00     0.037 A 
HETATM    8  C14 UNK     1      19.125   8.102  33.991  1.00  0.00     0.102 A 
HETATM    9  C16 UNK     1      20.117   7.189  33.635  1.00  0.00     0.037 A 
HETATM   10  C13 UNK     1      19.825   5.826  33.579  1.00  0.00     0.015 A 
BRANCH   8  11
HETATM   11  N1  UNK     1      19.423   9.488  34.046  1.00  0.00    -0.116 N 
HETATM   12  O3  UNK     1      20.529   9.855  34.511  1.00  0.00    -0.532 OA
HETATM   13  O4  UNK     1      18.571  10.311  33.629  1.00  0.00    -0.532 OA
ENDBRANCH   8  11
ENDBRANCH   3   5
BRANCH   2  14
HETATM   14  C1  UNK     1      17.977   1.690  34.893  1.00  0.00    -0.032 A 
HETATM   15  C3  UNK     1      18.581   0.870  33.951  1.00  0.00     0.048 A 
HETATM   16  C2  UNK     1      18.289  -0.494  33.942  1.00  0.00     0.069 A 
HETATM   17  C10 UNK     1      17.398  -1.023  34.876  1.00  0.00     0.037 A 
HETATM   18  C11 UNK     1      16.798  -0.188  35.818  1.00  0.00     0.004 A 
HETATM   19  C9  UNK     1      17.088   1.177  35.826  1.00  0.00     0.011 A 
BRANCH  16  20
HETATM   20  O1  UNK     1      18.876  -1.310  33.023  1.00  0.00    -0.349 OA
BRANCH  20  21
HETATM   21  C4  UNK     1      19.986  -2.089  33.463  1.00  0.00     0.202 C 
BRANCH  21  22
HETATM   22  C8  UNK     1      20.948  -2.278  32.305  1.00  0.00     0.202 C 
BRANCH  22  23
HETATM   23  O2  UNK     1      21.273  -1.006  31.761  1.00  0.00    -0.349 OA
BRANCH  23  24
HETATM   24  C17 UNK     1      20.585  -0.619  30.640  1.00  0.00     0.068 A 
HETATM   25  C18 UNK     1      20.033   0.655  30.576  1.00  0.00     0.037 A 
HETATM   26  C20 UNK     1      19.331   1.048  29.437  1.00  0.00     0.003 A 
HETATM   27  C23 UNK     1      19.187   0.163  28.368  1.00  0.00     0.000 A 
HETATM   28  C21 UNK     1      19.744  -1.113  28.439  1.00  0.00     0.003 A 
HETATM   29  C19 UNK     1      20.445  -1.506  29.578  1.00  0.00     0.037 A 
ENDBRANCH  23  24
ENDBRANCH  22  23
ENDBRANCH  21  22
ENDBRANCH  20  21
ENDBRANCH  16  20
ENDBRANCH   2  14
TORSDOF 8
ENDMDL
MODEL 8
REMARK VINA RESULT:      -8.5     11.376     13.957
REMARK  8 active torsions:
REMARK  status: ('A' for Active; 'I' for Inactive)
REMARK    1  A    between atoms: C2_8  and  O1_1 
REMARK    2  A    between atoms: C4_10  and  O1_1 
REMARK    3  A    between atoms: C17_23  and  O2_2 
REMARK    4  A    between atoms: C8_14  and  O2_2 
REMARK    5  A    between atoms: C14_20  and  N1_5 
REMARK    6  A    between atoms: C1_7  and  C6_12 
REMARK    7  A    between atoms: C4_10  and  C8_14 
REMARK    8  A    between atoms: C5_11  and  C7_13 
ROOT
HETATM    1  N2  UNK     1      34.526  -4.134  34.342  1.00  0.00    -0.191 NA
HETATM    2  C6  UNK     1      32.417  -6.857  34.191  1.00  0.00     0.035 C 
HETATM    3  C7  UNK     1      32.536  -5.707  34.907  1.00  0.00     0.055 C 
HETATM    4  C22 UNK     1      33.640  -4.842  34.588  1.00  0.00     0.100 C 
ENDROOT
BRANCH   3   5
HETATM    5  C5  UNK     1      31.613  -5.311  35.961  1.00  0.00    -0.015 A 
HETATM    6  C12 UNK     1      30.574  -6.164  36.334  1.00  0.00     0.015 A 
HETATM    7  C15 UNK     1      29.690  -5.785  37.346  1.00  0.00     0.037 A 
HETATM    8  C14 UNK     1      29.847  -4.553  37.983  1.00  0.00     0.102 A 
HETATM    9  C16 UNK     1      30.886  -3.702  37.608  1.00  0.00     0.037 A 
HETATM   10  C13 UNK     1      31.769  -4.080  36.597  1.00  0.00     0.015 A 
BRANCH   8  11
HETATM   11  N1  UNK     1      28.948  -4.167  39.011  1.00  0.00    -0.116 N 
HETATM   12  O3  UNK     1      29.407  -3.650  40.058  1.00  0.00    -0.532 OA
HETATM   13  O4  UNK     1      27.718  -4.352  38.845  1.00  0.00    -0.532 OA
ENDBRANCH   8  11
ENDBRANCH   3   5
BRANCH   2  14
HETATM   14  C1  UNK     1      33.320  -7.293  33.116  1.00  0.00    -0.032 A 
HETATM   15  C3  UNK     1      32.886  -7.246  31.799  1.00  0.00     0.048 A 
HETATM   16  C2  UNK     1      33.744  -7.661  30.780  1.00  0.00     0.069 A 
HETATM   17  C10 UNK     1      35.024  -8.118  31.090  1.00  0.00     0.037 A 
HETATM   18  C11 UNK     1      35.449  -8.160  32.418  1.00  0.00     0.004 A 
HETATM   19  C9  UNK     1      34.591  -7.745  33.437  1.00  0.00     0.011 A 
BRANCH  16  20
HETATM   20  O1  UNK     1      33.330  -7.620  29.483  1.00  0.00    -0.349 OA
BRANCH  20  21
HETATM   21  C4  UNK     1      32.076  -8.228  29.183  1.00  0.00     0.202 C 
BRANCH  21  22
HETATM   22  C8  UNK     1      31.142  -7.179  28.611  1.00  0.00     0.202 C 
BRANCH  22  23
HETATM   23  O2  UNK     1      29.837  -7.384  29.136  1.00  0.00    -0.349 OA
BRANCH  23  24
HETATM   24  C17 UNK     1      29.584  -6.867  30.380  1.00  0.00     0.068 A 
HETATM   25  C18 UNK     1      29.817  -5.519  30.626  1.00  0.00     0.037 A 
HETATM   26  C20 UNK     1      29.561  -4.993  31.892  1.00  0.00     0.003 A 
HETATM   27  C23 UNK     1      29.073  -5.820  32.905  1.00  0.00     0.000 A 
HETATM   28  C21 UNK     1      28.841  -7.171  32.650  1.00  0.00     0.003 A 
HETATM   29  C19 UNK     1      29.097  -7.697  31.385  1.00  0.00     0.037 A 
ENDBRANCH  23  24
ENDBRANCH  22  23
ENDBRANCH  21  22
ENDBRANCH  20  21
ENDBRANCH  16  20
ENDBRANCH   2  14
TORSDOF 8
ENDMDL
MODEL 9
REMARK VINA RESULT:      -8.4     10.514     13.395
REMARK  8 active torsions:
REMARK  status: ('A' for Active; 'I' for Inactive)
REMARK    1  A    between atoms: C2_8  and  O1_1 
REMARK    2  A    between atoms: C4_10  and  O1_1 
REMARK    3  A    between atoms: C17_23  and  O2_2 
REMARK    4  A    between atoms: C8_14  and  O2_2 
REMARK    5  A    between atoms: C14_20  and  N1_5 
REMARK    6  A    between atoms: C1_7  and  C6_12 
REMARK    7  A    between atoms: C4_10  and  C8_14 
REMARK    8  A    between atoms: C5_11  and  C7_13 
ROOT
HETATM    1  N2  UNK     1      31.659 -10.300  36.081  1.00  0.00    -0.191 NA
HETATM    2  C6  UNK     1      29.933  -8.240  33.922  1.00  0.00     0.035 C 
HETATM    3  C7  UNK     1      30.239  -8.289  35.246  1.00  0.00     0.055 C 
HETATM    4  C22 UNK     1      31.025  -9.406  35.699  1.00  0.00     0.100 C 
ENDROOT
BRANCH   3   5
HETATM    5  C5  UNK     1      29.822  -7.283  36.211  1.00  0.00    -0.015 A 
HETATM    6  C12 UNK     1      30.454  -6.040  36.238  1.00  0.00     0.015 A 
HETATM    7  C15 UNK     1      30.053  -5.074  37.162  1.00  0.00     0.037 A 
HETATM    8  C14 UNK     1      29.022  -5.353  38.059  1.00  0.00     0.102 A 
HETATM    9  C16 UNK     1      28.391  -6.596  38.031  1.00  0.00     0.037 A 
HETATM   10  C13 UNK     1      28.791  -7.562  37.107  1.00  0.00     0.015 A 
BRANCH   8  11
HETATM   11  N1  UNK     1      28.614  -4.371  39.000  1.00  0.00    -0.116 N 
HETATM   12  O3  UNK     1      29.468  -3.882  39.778  1.00  0.00    -0.532 OA
HETATM   13  O4  UNK     1      27.410  -4.019  39.028  1.00  0.00    -0.532 OA
ENDBRANCH   8  11
ENDBRANCH   3   5
BRANCH   2  14
HETATM   14  C1  UNK     1      30.336  -9.228  32.912  1.00  0.00    -0.032 A 
HETATM   15  C3  UNK     1      31.428  -8.965  32.097  1.00  0.00     0.048 A 
HETATM   16  C2  UNK     1      31.809  -9.904  31.138  1.00  0.00     0.069 A 
HETATM   17  C10 UNK     1      31.095 -11.095  31.006  1.00  0.00     0.037 A 
HETATM   18  C11 UNK     1      30.000 -11.348  31.831  1.00  0.00     0.004 A 
HETATM   19  C9  UNK     1      29.618 -10.409  32.789  1.00  0.00     0.011 A 
BRANCH  16  20
HETATM   20  O1  UNK     1      32.879  -9.658  30.333  1.00  0.00    -0.349 OA
BRANCH  20  21
HETATM   21  C4  UNK     1      32.866  -8.441  29.591  1.00  0.00     0.202 C 
BRANCH  21  22
HETATM   22  C8  UNK     1      31.872  -8.567  28.452  1.00  0.00     0.202 C 
BRANCH  22  23
HETATM   23  O2  UNK     1      30.955  -7.483  28.515  1.00  0.00    -0.349 OA
BRANCH  23  24
HETATM   24  C17 UNK     1      29.774  -7.711  29.173  1.00  0.00     0.068 A 
HETATM   25  C18 UNK     1      29.290  -6.764  30.068  1.00  0.00     0.037 A 
HETATM   26  C20 UNK     1      28.090  -6.997  30.739  1.00  0.00     0.003 A 
HETATM   27  C23 UNK     1      27.381  -8.176  30.509  1.00  0.00     0.000 A 
HETATM   28  C21 UNK     1      27.872  -9.121  29.609  1.00  0.00     0.003 A 
HETATM   29  C19 UNK     1      29.072  -8.889  28.939  1.00  0.00     0.037 A 
ENDBRANCH  23  24
ENDBRANCH  22  23
ENDBRANCH  21  22
ENDBRANCH  20  21
ENDBRANCH  16  20
ENDBRANCH   2  14
TORSDOF 8
ENDMDL
MODEL 10
REMARK VINA RESULT:      -8.4      5.949      9.358
REMARK  8 active torsions:
REMARK  status: ('A' for Active; 'I' for Inactive)
REMARK    1  A    between atoms: C2_8  and  O1_1 
REMARK    2  A    between atoms: C4_10  and  O1_1 
REMARK    3  A    between atoms: C17_23  and  O2_2 
REMARK    4  A    between atoms: C8_14  and  O2_2 
REMARK    5  A    between atoms: C14_20  and  N1_5 
REMARK    6  A    between atoms: C1_7  and  C6_12 
REMARK    7  A    between atoms: C4_10  and  C8_14 
REMARK    8  A    between atoms: C5_11  and  C7_13 
ROOT
HETATM    1  N2  UNK     1      24.758  -9.566  36.909  1.00  0.00    -0.191 NA
HETATM    2  C6  UNK     1      24.854  -6.995  39.205  1.00  0.00     0.035 C 
HETATM    3  C7  UNK     1      25.729  -7.709  38.447  1.00  0.00     0.055 C 
HETATM    4  C22 UNK     1      25.183  -8.735  37.598  1.00  0.00     0.100 C 
ENDROOT
BRANCH   3   5
HETATM    5  C5  UNK     1      27.167  -7.486  38.446  1.00  0.00    -0.015 A 
HETATM    6  C12 UNK     1      27.686  -6.278  38.913  1.00  0.00     0.015 A 
HETATM    7  C15 UNK     1      29.066  -6.066  38.914  1.00  0.00     0.037 A 
HETATM    8  C14 UNK     1      29.925  -7.062  38.447  1.00  0.00     0.102 A 
HETATM    9  C16 UNK     1      29.404  -8.269  37.981  1.00  0.00     0.037 A 
HETATM   10  C13 UNK     1      28.026  -8.481  37.980  1.00  0.00     0.015 A 
BRANCH   8  11
HETATM   11  N1  UNK     1      31.327  -6.846  38.448  1.00  0.00    -0.116 N 
HETATM   12  O3  UNK     1      31.762  -5.671  38.382  1.00  0.00    -0.532 OA
HETATM   13  O4  UNK     1      32.095  -7.837  38.514  1.00  0.00    -0.532 OA
ENDBRANCH   8  11
ENDBRANCH   3   5
BRANCH   2  14
HETATM   14  C1  UNK     1      23.396  -7.181  39.232  1.00  0.00    -0.032 A 
HETATM   15  C3  UNK     1      22.575  -6.222  38.657  1.00  0.00     0.048 A 
HETATM   16  C2  UNK     1      21.191  -6.399  38.685  1.00  0.00     0.069 A 
HETATM   17  C10 UNK     1      20.645  -7.532  39.288  1.00  0.00     0.037 A 
HETATM   18  C11 UNK     1      21.482  -8.489  39.862  1.00  0.00     0.004 A 
HETATM   19  C9  UNK     1      22.865  -8.312  39.835  1.00  0.00     0.011 A 
BRANCH  16  20
HETATM   20  O1  UNK     1      20.374  -5.466  38.124  1.00  0.00    -0.349 OA
BRANCH  20  21
HETATM   21  C4  UNK     1      20.423  -5.331  36.705  1.00  0.00     0.202 C 
BRANCH  21  22
HETATM   22  C8  UNK     1      19.277  -6.115  36.094  1.00  0.00     0.202 C 
BRANCH  22  23
HETATM   23  O2  UNK     1      19.808  -7.169  35.300  1.00  0.00    -0.349 OA
BRANCH  23  24
HETATM   24  C17 UNK     1      19.975  -8.382  35.916  1.00  0.00     0.068 A 
HETATM   25  C18 UNK     1      18.933  -8.926  36.658  1.00  0.00     0.037 A 
HETATM   26  C20 UNK     1      19.103 -10.160  37.287  1.00  0.00     0.003 A 
HETATM   27  C23 UNK     1      20.315 -10.841  37.167  1.00  0.00     0.000 A 
HETATM   28  C21 UNK     1      21.355 -10.289  36.421  1.00  0.00     0.003 A 
HETATM   29  C19 UNK     1      21.185  -9.055  35.793  1.00  0.00     0.037 A 
ENDBRANCH  23  24
ENDBRANCH  22  23
ENDBRANCH  21  22
ENDBRANCH  20  21
ENDBRANCH  16  20
ENDBRANCH   2  14
TORSDOF 8
ENDMDL
