MODEL 1
REMARK VINA RESULT:      -9.3      0.000      0.000
REMARK  6 active torsions:
REMARK  status: ('A' for Active; 'I' for Inactive)
REMARK    1  A    between atoms: C13_20  and  O3_4 
REMARK    2  A    between atoms: C11_18  and  N1_6 
REMARK    3  A    between atoms: C1_8  and  C2_9 
REMARK    4  A    between atoms: C6_13  and  C8_15 
REMARK    5  A    between atoms: C14_21  and  C8_15 
REMARK    6  A    between atoms: C14_21  and  C18_25 
ROOT
HETATM    1  O1  UNK     1      31.897  -4.723  36.121  1.00  0.00    -0.291 OA
HETATM    2  O2  UNK     1      33.147  -8.700  36.465  1.00  0.00    -0.274 OA
HETATM    3  O4  UNK     1      31.901  -8.931  38.361  1.00  0.00    -0.259 OA
HETATM    4  N2  UNK     1      29.310  -3.520  40.002  1.00  0.00    -0.191 NA
HETATM    5  C1  UNK     1      30.802  -6.272  38.275  1.00  0.00     0.109 C 
HETATM    6  C3  UNK     1      31.797  -6.821  37.271  1.00  0.00     0.066 A 
HETATM    7  C4  UNK     1      32.264  -6.047  36.279  1.00  0.00     0.104 A 
HETATM    8  C5  UNK     1      30.625  -4.762  38.145  1.00  0.00     0.086 C 
HETATM    9  C10 UNK     1      33.200  -6.572  35.287  1.00  0.00     0.033 A 
HETATM   10  C11 UNK     1      31.153  -4.076  37.106  1.00  0.00     0.159 C 
HETATM   11  C12 UNK     1      32.266  -8.222  37.429  1.00  0.00     0.298 A 
HETATM   12  C16 UNK     1      33.613  -7.895  35.408  1.00  0.00     0.092 A 
HETATM   13  C17 UNK     1      33.701  -5.819  34.219  1.00  0.00     0.017 A 
HETATM   14  C19 UNK     1      34.499  -8.481  34.505  1.00  0.00     0.038 A 
HETATM   15  C20 UNK     1      29.899  -4.076  39.170  1.00  0.00     0.100 C 
HETATM   16  C21 UNK     1      34.591  -6.391  33.305  1.00  0.00     0.001 A 
HETATM   17  C22 UNK     1      34.989  -7.720  33.448  1.00  0.00     0.003 A 
ENDROOT
BRANCH   5  18
HETATM   18  C2  UNK     1      29.476  -6.961  38.131  1.00  0.00    -0.043 A 
HETATM   19  C7  UNK     1      29.083  -7.445  36.889  1.00  0.00     0.018 A 
HETATM   20  C6  UNK     1      27.851  -8.085  36.756  1.00  0.00    -0.024 A 
HETATM   21  C13 UNK     1      27.020  -8.236  37.865  1.00  0.00     0.074 A 
HETATM   22  C15 UNK     1      27.421  -7.747  39.109  1.00  0.00     0.038 A 
HETATM   23  C9  UNK     1      28.653  -7.106  39.242  1.00  0.00     0.011 A 
BRANCH  20  24
HETATM   24  C8  UNK     1      27.439  -8.603  35.418  1.00  0.00     0.046 C 
BRANCH  24  25
HETATM   25  C14 UNK     1      28.613  -8.842  34.449  1.00  0.00     0.043 C 
BRANCH  25  26
HETATM   26  C18 UNK     1      28.940  -7.637  33.603  1.00  0.00    -0.058 A 
HETATM   27  C23 UNK     1      27.912  -6.836  33.131  1.00  0.00     0.009 A 
HETATM   28  C26 UNK     1      28.215  -5.723  32.348  1.00  0.00     0.024 A 
HETATM   29  C28 UNK     1      29.544  -5.423  32.047  1.00  0.00     0.034 A 
HETATM   30  C27 UNK     1      30.569  -6.237  32.528  1.00  0.00     0.024 A 
HETATM   31 Cl1  UNK     1      29.917  -4.050  31.079  1.00  0.00    -0.084 Cl
HETATM   32  C24 UNK     1      30.266  -7.351  33.311  1.00  0.00     0.009 A 
ENDBRANCH  25  26
ENDBRANCH  24  25
ENDBRANCH  20  24
BRANCH  21  33
HETATM   33  O3  UNK     1      25.813  -8.858  37.753  1.00  0.00    -0.355 OA
HETATM   34  C25 UNK     1      24.715  -8.272  38.449  1.00  0.00     0.210 C 
ENDBRANCH  21  33
ENDBRANCH   5  18
BRANCH  10  35
HETATM   35  N1  UNK     1      31.029  -2.728  36.905  1.00  0.00    -0.379 N 
HETATM   36  H11 UNK     1      31.008  -2.115  37.709  1.00  0.00     0.158 HD
HETATM   37  H12 UNK     1      30.970  -2.345  35.970  1.00  0.00     0.158 HD
ENDBRANCH  10  35
TORSDOF 6
ENDMDL
MODEL 2
REMARK VINA RESULT:      -9.2      0.814      1.237
REMARK  6 active torsions:
REMARK  status: ('A' for Active; 'I' for Inactive)
REMARK    1  A    between atoms: C13_20  and  O3_4 
REMARK    2  A    between atoms: C11_18  and  N1_6 
REMARK    3  A    between atoms: C1_8  and  C2_9 
REMARK    4  A    between atoms: C6_13  and  C8_15 
REMARK    5  A    between atoms: C14_21  and  C8_15 
REMARK    6  A    between atoms: C14_21  and  C18_25 
ROOT
HETATM    1  O1  UNK     1      31.749  -4.930  36.005  1.00  0.00    -0.291 OA
HETATM    2  O2  UNK     1      32.903  -8.933  36.391  1.00  0.00    -0.274 OA
HETATM    3  O4  UNK     1      31.759  -9.077  38.358  1.00  0.00    -0.259 OA
HETATM    4  N2  UNK     1      29.421  -3.548  39.989  1.00  0.00    -0.191 NA
HETATM    5  C1  UNK     1      30.734  -6.388  38.260  1.00  0.00     0.109 C 
HETATM    6  C3  UNK     1      31.654  -6.993  37.217  1.00  0.00     0.066 A 
HETATM    7  C4  UNK     1      32.086  -6.260  36.180  1.00  0.00     0.104 A 
HETATM    8  C5  UNK     1      30.593  -4.877  38.097  1.00  0.00     0.086 C 
HETATM    9  C10 UNK     1      32.950  -6.839  35.153  1.00  0.00     0.033 A 
HETATM   10  C11 UNK     1      31.081  -4.236  37.012  1.00  0.00     0.159 C 
HETATM   11  C12 UNK     1      32.092  -8.403  37.389  1.00  0.00     0.298 A 
HETATM   12  C16 UNK     1      33.331  -8.171  35.288  1.00  0.00     0.092 A 
HETATM   13  C17 UNK     1      33.412  -6.130  34.038  1.00  0.00     0.017 A 
HETATM   14  C19 UNK     1      34.148  -8.807  34.353  1.00  0.00     0.038 A 
HETATM   15  C20 UNK     1      29.946  -4.144  39.142  1.00  0.00     0.100 C 
HETATM   16  C21 UNK     1      34.232  -6.753  33.092  1.00  0.00     0.001 A 
HETATM   17  C22 UNK     1      34.599  -8.089  33.250  1.00  0.00     0.003 A 
ENDROOT
BRANCH   5  18
HETATM   18  C2  UNK     1      29.382  -7.040  38.209  1.00  0.00    -0.043 A 
HETATM   19  C7  UNK     1      28.973  -7.686  37.049  1.00  0.00     0.018 A 
HETATM   20  C6  UNK     1      27.718  -8.292  37.001  1.00  0.00    -0.024 A 
HETATM   21  C13 UNK     1      26.880  -8.247  38.115  1.00  0.00     0.074 A 
HETATM   22  C15 UNK     1      27.298  -7.597  39.277  1.00  0.00     0.038 A 
HETATM   23  C9  UNK     1      28.553  -6.991  39.323  1.00  0.00     0.011 A 
BRANCH  20  24
HETATM   24  C8  UNK     1      27.287  -8.985  35.751  1.00  0.00     0.046 C 
BRANCH  24  25
HETATM   25  C14 UNK     1      28.418  -9.752  35.039  1.00  0.00     0.043 C 
BRANCH  25  26
HETATM   26  C18 UNK     1      29.079  -8.956  33.941  1.00  0.00    -0.058 A 
HETATM   27  C23 UNK     1      30.335  -9.330  33.490  1.00  0.00     0.009 A 
HETATM   28  C26 UNK     1      30.946  -8.593  32.476  1.00  0.00     0.024 A 
HETATM   29  C28 UNK     1      30.291  -7.492  31.923  1.00  0.00     0.034 A 
HETATM   30  C27 UNK     1      29.027  -7.127  32.386  1.00  0.00     0.024 A 
HETATM   31 Cl1  UNK     1      31.045  -6.582  30.672  1.00  0.00    -0.084 Cl
HETATM   32  C24 UNK     1      28.416  -7.863  33.401  1.00  0.00     0.009 A 
ENDBRANCH  25  26
ENDBRANCH  24  25
ENDBRANCH  20  24
BRANCH  21  33
HETATM   33  O3  UNK     1      25.650  -8.833  38.087  1.00  0.00    -0.355 OA
HETATM   34  C25 UNK     1      24.580  -8.124  38.707  1.00  0.00     0.210 C 
ENDBRANCH  21  33
ENDBRANCH   5  18
BRANCH  10  35
HETATM   35  N1  UNK     1      30.985  -2.891  36.781  1.00  0.00    -0.379 N 
HETATM   36  H11 UNK     1      30.819  -2.568  35.837  1.00  0.00     0.158 HD
HETATM   37  H12 UNK     1      31.067  -2.225  37.539  1.00  0.00     0.158 HD
ENDBRANCH  10  35
TORSDOF 6
ENDMDL
MODEL 3
REMARK VINA RESULT:      -9.0      2.781      7.062
REMARK  6 active torsions:
REMARK  status: ('A' for Active; 'I' for Inactive)
REMARK    1  A    between atoms: C13_20  and  O3_4 
REMARK    2  A    between atoms: C11_18  and  N1_6 
REMARK    3  A    between atoms: C1_8  and  C2_9 
REMARK    4  A    between atoms: C6_13  and  C8_15 
REMARK    5  A    between atoms: C14_21  and  C8_15 
REMARK    6  A    between atoms: C14_21  and  C18_25 
ROOT
HETATM    1  O1  UNK     1      29.092  -6.380  34.248  1.00  0.00    -0.291 OA
HETATM    2  O2  UNK     1      30.448  -9.743  36.334  1.00  0.00    -0.274 OA
HETATM    3  O4  UNK     1      31.755 -10.322  34.558  1.00  0.00    -0.259 OA
HETATM    4  N2  UNK     1      30.813  -6.489  29.750  1.00  0.00    -0.191 NA
HETATM    5  C1  UNK     1      31.073  -8.019  32.971  1.00  0.00     0.109 C 
HETATM    6  C3  UNK     1      30.505  -8.311  34.346  1.00  0.00     0.066 A 
HETATM    7  C4  UNK     1      29.587  -7.498  34.893  1.00  0.00     0.104 A 
HETATM    8  C5  UNK     1      30.318  -6.898  32.262  1.00  0.00     0.086 C 
HETATM    9  C10 UNK     1      29.053  -7.751  36.229  1.00  0.00     0.033 A 
HETATM   10  C11 UNK     1      29.399  -6.146  32.908  1.00  0.00     0.159 C 
HETATM   11  C12 UNK     1      30.962  -9.532  35.059  1.00  0.00     0.298 A 
HETATM   12  C16 UNK     1      29.508  -8.873  36.917  1.00  0.00     0.092 A 
HETATM   13  C17 UNK     1      28.113  -6.927  36.858  1.00  0.00     0.017 A 
HETATM   14  C19 UNK     1      29.058  -9.189  38.199  1.00  0.00     0.038 A 
HETATM   15  C20 UNK     1      30.592  -6.672  30.875  1.00  0.00     0.100 C 
HETATM   16  C21 UNK     1      27.652  -7.230  38.143  1.00  0.00     0.001 A 
HETATM   17  C22 UNK     1      28.124  -8.359  38.812  1.00  0.00     0.003 A 
ENDROOT
BRANCH   5  18
HETATM   18  C2  UNK     1      32.532  -7.678  33.066  1.00  0.00    -0.043 A 
HETATM   19  C7  UNK     1      32.945  -6.648  33.903  1.00  0.00     0.018 A 
HETATM   20  C6  UNK     1      34.300  -6.332  33.992  1.00  0.00    -0.024 A 
HETATM   21  C13 UNK     1      35.233  -7.048  33.243  1.00  0.00     0.074 A 
HETATM   22  C15 UNK     1      34.811  -8.080  32.405  1.00  0.00     0.038 A 
HETATM   23  C9  UNK     1      33.456  -8.396  32.316  1.00  0.00     0.011 A 
BRANCH  20  24
HETATM   24  C8  UNK     1      34.734  -5.225  34.895  1.00  0.00     0.046 C 
BRANCH  24  25
HETATM   25  C14 UNK     1      34.607  -5.554  36.395  1.00  0.00     0.043 C 
BRANCH  25  26
HETATM   26  C18 UNK     1      33.258  -5.201  36.970  1.00  0.00    -0.058 A 
HETATM   27  C23 UNK     1      32.595  -4.074  36.510  1.00  0.00     0.009 A 
HETATM   28  C26 UNK     1      31.348  -3.747  37.042  1.00  0.00     0.024 A 
HETATM   29  C28 UNK     1      30.778  -4.554  38.027  1.00  0.00     0.034 A 
HETATM   30  C27 UNK     1      31.455  -5.685  38.481  1.00  0.00     0.024 A 
HETATM   31 Cl1  UNK     1      29.240  -4.150  38.685  1.00  0.00    -0.084 Cl
HETATM   32  C24 UNK     1      32.703  -6.012  37.949  1.00  0.00     0.009 A 
ENDBRANCH  25  26
ENDBRANCH  24  25
ENDBRANCH  20  24
BRANCH  21  33
HETATM   33  O3  UNK     1      36.561  -6.752  33.317  1.00  0.00    -0.355 OA
HETATM   34  C25 UNK     1      37.349  -7.531  34.215  1.00  0.00     0.210 C 
ENDBRANCH  21  33
ENDBRANCH   5  18
BRANCH  10  35
HETATM   35  N1  UNK     1      28.691  -5.116  32.354  1.00  0.00    -0.379 N 
HETATM   36  H11 UNK     1      27.913  -4.726  32.868  1.00  0.00     0.158 HD
HETATM   37  H12 UNK     1      28.943  -4.738  31.449  1.00  0.00     0.158 HD
ENDBRANCH  10  35
TORSDOF 6
ENDMDL
MODEL 4
REMARK VINA RESULT:      -8.9      2.050      2.559
REMARK  6 active torsions:
REMARK  status: ('A' for Active; 'I' for Inactive)
REMARK    1  A    between atoms: C13_20  and  O3_4 
REMARK    2  A    between atoms: C11_18  and  N1_6 
REMARK    3  A    between atoms: C1_8  and  C2_9 
REMARK    4  A    between atoms: C6_13  and  C8_15 
REMARK    5  A    between atoms: C14_21  and  C8_15 
REMARK    6  A    between atoms: C14_21  and  C18_25 
ROOT
HETATM    1  O1  UNK     1      31.804  -4.796  36.081  1.00  0.00    -0.291 OA
HETATM    2  O2  UNK     1      33.080  -8.754  36.531  1.00  0.00    -0.274 OA
HETATM    3  O4  UNK     1      31.881  -8.924  38.463  1.00  0.00    -0.259 OA
HETATM    4  N2  UNK     1      29.305  -3.469  39.980  1.00  0.00    -0.191 NA
HETATM    5  C1  UNK     1      30.768  -6.273  38.313  1.00  0.00     0.109 C 
HETATM    6  C3  UNK     1      31.741  -6.853  37.304  1.00  0.00     0.066 A 
HETATM    7  C4  UNK     1      32.180  -6.112  36.275  1.00  0.00     0.104 A 
HETATM    8  C5  UNK     1      30.581  -4.769  38.135  1.00  0.00     0.086 C 
HETATM    9  C10 UNK     1      33.095  -6.667  35.280  1.00  0.00     0.033 A 
HETATM   10  C11 UNK     1      31.081  -4.118  37.060  1.00  0.00     0.159 C 
HETATM   11  C12 UNK     1      32.221  -8.246  37.499  1.00  0.00     0.298 A 
HETATM   12  C16 UNK     1      33.517  -7.984  35.437  1.00  0.00     0.092 A 
HETATM   13  C17 UNK     1      33.567  -5.949  34.175  1.00  0.00     0.017 A 
HETATM   14  C19 UNK     1      34.384  -8.597  34.533  1.00  0.00     0.038 A 
HETATM   15  C20 UNK     1      29.876  -4.052  39.154  1.00  0.00     0.100 C 
HETATM   16  C21 UNK     1      34.438  -6.550  33.260  1.00  0.00     0.001 A 
HETATM   17  C22 UNK     1      34.845  -7.872  33.439  1.00  0.00     0.003 A 
ENDROOT
BRANCH   5  18
HETATM   18  C2  UNK     1      29.442  -6.972  38.225  1.00  0.00    -0.043 A 
HETATM   19  C7  UNK     1      29.082  -7.618  37.049  1.00  0.00     0.018 A 
HETATM   20  C6  UNK     1      27.850  -8.267  36.966  1.00  0.00    -0.024 A 
HETATM   21  C13 UNK     1      26.987  -8.264  38.061  1.00  0.00     0.074 A 
HETATM   22  C15 UNK     1      27.355  -7.613  39.239  1.00  0.00     0.038 A 
HETATM   23  C9  UNK     1      28.587  -6.964  39.320  1.00  0.00     0.011 A 
BRANCH  20  24
HETATM   24  C8  UNK     1      27.472  -8.961  35.700  1.00  0.00     0.046 C 
BRANCH  24  25
HETATM   25  C14 UNK     1      28.378  -8.614  34.502  1.00  0.00     0.043 C 
BRANCH  25  26
HETATM   26  C18 UNK     1      29.309  -9.737  34.115  1.00  0.00    -0.058 A 
HETATM   27  C23 UNK     1      29.119 -10.394  32.910  1.00  0.00     0.009 A 
HETATM   28  C26 UNK     1      29.979 -11.432  32.554  1.00  0.00     0.024 A 
HETATM   29  C28 UNK     1      31.021 -11.799  33.407  1.00  0.00     0.034 A 
HETATM   30  C27 UNK     1      31.200 -11.129  34.616  1.00  0.00     0.024 A 
HETATM   31 Cl1  UNK     1      32.081 -13.081  32.967  1.00  0.00    -0.084 Cl
HETATM   32  C24 UNK     1      30.339 -10.091  34.973  1.00  0.00     0.009 A 
ENDBRANCH  25  26
ENDBRANCH  24  25
ENDBRANCH  20  24
BRANCH  21  33
HETATM   33  O3  UNK     1      25.779  -8.893  37.999  1.00  0.00    -0.355 OA
HETATM   34  C25 UNK     1      24.669  -8.224  38.593  1.00  0.00     0.210 C 
ENDBRANCH  21  33
ENDBRANCH   5  18
BRANCH  10  35
HETATM   35  N1  UNK     1      30.946  -2.778  36.817  1.00  0.00    -0.379 N 
HETATM   36  H11 UNK     1      31.733  -2.169  36.993  1.00  0.00     0.158 HD
HETATM   37  H12 UNK     1      30.080  -2.400  36.456  1.00  0.00     0.158 HD
ENDBRANCH  10  35
TORSDOF 6
ENDMDL
MODEL 5
REMARK VINA RESULT:      -8.8      3.867      6.403
REMARK  6 active torsions:
REMARK  status: ('A' for Active; 'I' for Inactive)
REMARK    1  A    between atoms: C13_20  and  O3_4 
REMARK    2  A    between atoms: C11_18  and  N1_6 
REMARK    3  A    between atoms: C1_8  and  C2_9 
REMARK    4  A    between atoms: C6_13  and  C8_15 
REMARK    5  A    between atoms: C14_21  and  C8_15 
REMARK    6  A    between atoms: C14_21  and  C18_25 
ROOT
HETATM    1  O1  UNK     1      34.698  -7.223  35.542  1.00  0.00    -0.291 OA
HETATM    2  O2  UNK     1      30.975  -5.504  34.710  1.00  0.00    -0.274 OA
HETATM    3  O4  UNK     1      31.151  -6.168  32.536  1.00  0.00    -0.259 OA
HETATM    4  N2  UNK     1      36.683  -8.796  31.445  1.00  0.00    -0.191 NA
HETATM    5  C1  UNK     1      33.664  -7.530  32.882  1.00  0.00     0.109 C 
HETATM    6  C3  UNK     1      32.934  -6.786  33.983  1.00  0.00     0.066 A 
HETATM    7  C4  UNK     1      33.467  -6.686  35.211  1.00  0.00     0.104 A 
HETATM    8  C5  UNK     1      35.090  -7.898  33.282  1.00  0.00     0.086 C 
HETATM    9  C10 UNK     1      32.761  -5.997  36.288  1.00  0.00     0.033 A 
HETATM   10  C11 UNK     1      35.529  -7.742  34.552  1.00  0.00     0.159 C 
HETATM   11  C12 UNK     1      31.632  -6.143  33.664  1.00  0.00     0.298 A 
HETATM   12  C16 UNK     1      31.524  -5.427  36.004  1.00  0.00     0.092 A 
HETATM   13  C17 UNK     1      33.258  -5.883  37.592  1.00  0.00     0.017 A 
HETATM   14  C19 UNK     1      30.777  -4.755  36.972  1.00  0.00     0.038 A 
HETATM   15  C20 UNK     1      35.969  -8.394  32.267  1.00  0.00     0.100 C 
HETATM   16  C21 UNK     1      32.521  -5.212  38.574  1.00  0.00     0.001 A 
HETATM   17  C22 UNK     1      31.283  -4.650  38.264  1.00  0.00     0.003 A 
ENDROOT
BRANCH   5  18
HETATM   18  C2  UNK     1      32.905  -8.765  32.490  1.00  0.00    -0.043 A 
HETATM   19  C7  UNK     1      32.636  -9.010  31.149  1.00  0.00     0.018 A 
HETATM   20  C6  UNK     1      31.930 -10.156  30.784  1.00  0.00    -0.024 A 
HETATM   21  C13 UNK     1      31.498 -11.049  31.764  1.00  0.00     0.074 A 
HETATM   22  C15 UNK     1      31.771 -10.796  33.108  1.00  0.00     0.038 A 
HETATM   23  C9  UNK     1      32.476  -9.649  33.472  1.00  0.00     0.011 A 
BRANCH  20  24
HETATM   24  C8  UNK     1      31.648 -10.412  29.341  1.00  0.00     0.046 C 
BRANCH  24  25
HETATM   25  C14 UNK     1      31.176  -9.168  28.564  1.00  0.00     0.043 C 
BRANCH  25  26
HETATM   26  C18 UNK     1      29.893  -8.583  29.101  1.00  0.00    -0.058 A 
HETATM   27  C23 UNK     1      28.769  -9.388  29.204  1.00  0.00     0.009 A 
HETATM   28  C26 UNK     1      27.582  -8.847  29.699  1.00  0.00     0.024 A 
HETATM   29  C28 UNK     1      27.536  -7.507  30.086  1.00  0.00     0.034 A 
HETATM   30  C27 UNK     1      28.673  -6.709  29.977  1.00  0.00     0.024 A 
HETATM   31 Cl1  UNK     1      26.071  -6.839  30.696  1.00  0.00    -0.084 Cl
HETATM   32  C24 UNK     1      29.860  -7.250  29.482  1.00  0.00     0.009 A 
ENDBRANCH  25  26
ENDBRANCH  24  25
ENDBRANCH  20  24
BRANCH  21  33
HETATM   33  O3  UNK     1      30.807 -12.174  31.426  1.00  0.00    -0.355 OA
HETATM   34  C25 UNK     1      30.914 -13.290  32.307  1.00  0.00     0.210 C 
ENDBRANCH  21  33
ENDBRANCH   5  18
BRANCH  10  35
HETATM   35  N1  UNK     1      36.783  -8.060  34.997  1.00  0.00    -0.379 N 
HETATM   36  H11 UNK     1      37.517  -7.368  34.922  1.00  0.00     0.158 HD
HETATM   37  H12 UNK     1      36.977  -8.965  35.405  1.00  0.00     0.158 HD
ENDBRANCH  10  35
TORSDOF 6
ENDMDL
MODEL 6
REMARK VINA RESULT:      -8.8      2.836      7.131
REMARK  6 active torsions:
REMARK  status: ('A' for Active; 'I' for Inactive)
REMARK    1  A    between atoms: C13_20  and  O3_4 
REMARK    2  A    between atoms: C11_18  and  N1_6 
REMARK    3  A    between atoms: C1_8  and  C2_9 
REMARK    4  A    between atoms: C6_13  and  C8_15 
REMARK    5  A    between atoms: C14_21  and  C8_15 
REMARK    6  A    between atoms: C14_21  and  C18_25 
ROOT
HETATM    1  O1  UNK     1      29.580  -6.157  34.067  1.00  0.00    -0.291 OA
HETATM    2  O2  UNK     1      30.412  -9.762  36.020  1.00  0.00    -0.274 OA
HETATM    3  O4  UNK     1      31.434 -10.548  34.140  1.00  0.00    -0.259 OA
HETATM    4  N2  UNK     1      30.883  -6.507  29.443  1.00  0.00    -0.191 NA
HETATM    5  C1  UNK     1      31.093  -8.124  32.624  1.00  0.00     0.109 C 
HETATM    6  C3  UNK     1      30.589  -8.328  34.041  1.00  0.00     0.066 A 
HETATM    7  C4  UNK     1      29.896  -7.363  34.664  1.00  0.00     0.104 A 
HETATM    8  C5  UNK     1      30.519  -6.863  31.985  1.00  0.00     0.086 C 
HETATM    9  C10 UNK     1      29.431  -7.535  36.039  1.00  0.00     0.033 A 
HETATM   10  C11 UNK     1      29.819  -5.960  32.708  1.00  0.00     0.159 C 
HETATM   11  C12 UNK     1      30.854  -9.629  34.708  1.00  0.00     0.298 A 
HETATM   12  C16 UNK     1      29.710  -8.737  36.682  1.00  0.00     0.092 A 
HETATM   13  C17 UNK     1      28.724  -6.556  36.746  1.00  0.00     0.017 A 
HETATM   14  C19 UNK     1      29.309  -8.986  37.995  1.00  0.00     0.038 A 
HETATM   15  C20 UNK     1      30.720  -6.667  30.581  1.00  0.00     0.100 C 
HETATM   16  C21 UNK     1      28.315  -6.790  38.063  1.00  0.00     0.001 A 
HETATM   17  C22 UNK     1      28.608  -8.003  38.686  1.00  0.00     0.003 A 
ENDROOT
BRANCH   5  18
HETATM   18  C2  UNK     1      32.593  -8.077  32.602  1.00  0.00    -0.043 A 
HETATM   19  C7  UNK     1      33.262  -7.108  33.339  1.00  0.00     0.018 A 
HETATM   20  C6  UNK     1      34.656  -7.063  33.318  1.00  0.00    -0.024 A 
HETATM   21  C13 UNK     1      35.371  -7.989  32.559  1.00  0.00     0.074 A 
HETATM   22  C15 UNK     1      34.692  -8.959  31.821  1.00  0.00     0.038 A 
HETATM   23  C9  UNK     1      33.298  -9.002  31.842  1.00  0.00     0.011 A 
BRANCH  20  24
HETATM   24  C8  UNK     1      35.366  -6.020  34.115  1.00  0.00     0.046 C 
BRANCH  24  25
HETATM   25  C14 UNK     1      35.228  -6.194  35.640  1.00  0.00     0.043 C 
BRANCH  25  26
HETATM   26  C18 UNK     1      33.980  -5.557  36.201  1.00  0.00    -0.058 A 
HETATM   27  C23 UNK     1      33.286  -6.198  37.215  1.00  0.00     0.009 A 
HETATM   28  C26 UNK     1      32.132  -5.610  37.733  1.00  0.00     0.024 A 
HETATM   29  C28 UNK     1      31.688  -4.386  37.231  1.00  0.00     0.034 A 
HETATM   30  C27 UNK     1      32.396  -3.752  36.211  1.00  0.00     0.024 A 
HETATM   31 Cl1  UNK     1      30.264  -3.662  37.869  1.00  0.00    -0.084 Cl
HETATM   32  C24 UNK     1      33.550  -4.341  35.692  1.00  0.00     0.009 A 
ENDBRANCH  25  26
ENDBRANCH  24  25
ENDBRANCH  20  24
BRANCH  21  33
HETATM   33  O3  UNK     1      36.733  -7.961  32.526  1.00  0.00    -0.355 OA
HETATM   34  C25 UNK     1      37.418  -9.096  33.051  1.00  0.00     0.210 C 
ENDBRANCH  21  33
ENDBRANCH   5  18
BRANCH  10  35
HETATM   35  N1  UNK     1      29.285  -4.800  32.218  1.00  0.00    -0.379 N 
HETATM   36  H11 UNK     1      29.218  -4.678  31.217  1.00  0.00     0.158 HD
HETATM   37  H12 UNK     1      28.951  -4.076  32.843  1.00  0.00     0.158 HD
ENDBRANCH  10  35
TORSDOF 6
ENDMDL
MODEL 7
REMARK VINA RESULT:      -8.8      2.516      5.948
REMARK  6 active torsions:
REMARK  status: ('A' for Active; 'I' for Inactive)
REMARK    1  A    between atoms: C13_20  and  O3_4 
REMARK    2  A    between atoms: C11_18  and  N1_6 
REMARK    3  A    between atoms: C1_8  and  C2_9 
REMARK    4  A    between atoms: C6_13  and  C8_15 
REMARK    5  A    between atoms: C14_21  and  C8_15 
REMARK    6  A    between atoms: C14_21  and  C18_25 
ROOT
HETATM    1  O1  UNK     1      30.691  -6.377  38.129  1.00  0.00    -0.291 OA
HETATM    2  O2  UNK     1      27.466  -7.504  35.714  1.00  0.00    -0.274 OA
HETATM    3  O4  UNK     1      28.519  -6.627  33.892  1.00  0.00    -0.259 OA
HETATM    4  N2  UNK     1      33.813  -3.795  35.522  1.00  0.00    -0.191 NA
HETATM    5  C1  UNK     1      30.905  -5.864  35.313  1.00  0.00     0.109 C 
HETATM    6  C3  UNK     1      29.696  -6.516  35.956  1.00  0.00     0.066 A 
HETATM    7  C4  UNK     1      29.662  -6.738  37.279  1.00  0.00     0.104 A 
HETATM    8  C5  UNK     1      31.884  -5.317  36.348  1.00  0.00     0.086 C 
HETATM    9  C10 UNK     1      28.516  -7.391  37.907  1.00  0.00     0.033 A 
HETATM   10  C11 UNK     1      31.746  -5.593  37.664  1.00  0.00     0.159 C 
HETATM   11  C12 UNK     1      28.539  -6.872  35.094  1.00  0.00     0.298 A 
HETATM   12  C16 UNK     1      27.446  -7.762  37.098  1.00  0.00     0.092 A 
HETATM   13  C17 UNK     1      28.436  -7.668  39.276  1.00  0.00     0.017 A 
HETATM   14  C19 UNK     1      26.314  -8.396  37.611  1.00  0.00     0.038 A 
HETATM   15  C20 UNK     1      32.949  -4.477  35.892  1.00  0.00     0.100 C 
HETATM   16  C21 UNK     1      27.308  -8.302  39.806  1.00  0.00     0.001 A 
HETATM   17  C22 UNK     1      26.249  -8.665  38.974  1.00  0.00     0.003 A 
ENDROOT
BRANCH   5  18
HETATM   18  C2  UNK     1      31.604  -6.835  34.405  1.00  0.00    -0.043 A 
HETATM   19  C7  UNK     1      31.586  -6.627  33.031  1.00  0.00     0.018 A 
HETATM   20  C6  UNK     1      32.234  -7.529  32.187  1.00  0.00    -0.024 A 
HETATM   21  C13 UNK     1      32.897  -8.632  32.724  1.00  0.00     0.074 A 
HETATM   22  C15 UNK     1      32.911  -8.834  34.104  1.00  0.00     0.038 A 
HETATM   23  C9  UNK     1      32.261  -7.932  34.948  1.00  0.00     0.011 A 
BRANCH  20  24
HETATM   24  C8  UNK     1      32.210  -7.297  30.713  1.00  0.00     0.046 C 
BRANCH  24  25
HETATM   25  C14 UNK     1      31.234  -8.212  29.950  1.00  0.00     0.043 C 
BRANCH  25  26
HETATM   26  C18 UNK     1      29.790  -7.802  30.104  1.00  0.00    -0.058 A 
HETATM   27  C23 UNK     1      29.459  -6.457  30.084  1.00  0.00     0.009 A 
HETATM   28  C26 UNK     1      28.124  -6.078  30.228  1.00  0.00     0.024 A 
HETATM   29  C28 UNK     1      27.137  -7.050  30.387  1.00  0.00     0.034 A 
HETATM   30  C27 UNK     1      27.484  -8.400  30.405  1.00  0.00     0.024 A 
HETATM   31 Cl1  UNK     1      25.490  -6.583  30.565  1.00  0.00    -0.084 Cl
HETATM   32  C24 UNK     1      28.819  -8.780  30.262  1.00  0.00     0.009 A 
ENDBRANCH  25  26
ENDBRANCH  24  25
ENDBRANCH  20  24
BRANCH  21  33
HETATM   33  O3  UNK     1      33.536  -9.523  31.916  1.00  0.00    -0.355 OA
HETATM   34  C25 UNK     1      33.923 -10.766  32.499  1.00  0.00     0.210 C 
ENDBRANCH  21  33
ENDBRANCH   5  18
BRANCH  10  35
HETATM   35  N1  UNK     1      32.585  -5.157  38.654  1.00  0.00    -0.379 N 
HETATM   36  H11 UNK     1      32.541  -5.602  39.561  1.00  0.00     0.158 HD
HETATM   37  H12 UNK     1      33.246  -4.411  38.484  1.00  0.00     0.158 HD
ENDBRANCH  10  35
TORSDOF 6
ENDMDL
MODEL 8
REMARK VINA RESULT:      -8.6      3.598      5.580
REMARK  6 active torsions:
REMARK  status: ('A' for Active; 'I' for Inactive)
REMARK    1  A    between atoms: C13_20  and  O3_4 
REMARK    2  A    between atoms: C11_18  and  N1_6 
REMARK    3  A    between atoms: C1_8  and  C2_9 
REMARK    4  A    between atoms: C6_13  and  C8_15 
REMARK    5  A    between atoms: C14_21  and  C8_15 
REMARK    6  A    between atoms: C14_21  and  C18_25 
ROOT
HETATM    1  O1  UNK     1      29.141 -10.401  31.945  1.00  0.00    -0.291 OA
HETATM    2  O2  UNK     1      31.901 -11.438  34.913  1.00  0.00    -0.274 OA
HETATM    3  O4  UNK     1      31.593  -9.412  35.912  1.00  0.00    -0.259 OA
HETATM    4  N2  UNK     1      27.815  -5.807  32.531  1.00  0.00    -0.191 NA
HETATM    5  C1  UNK     1      29.574  -8.516  34.065  1.00  0.00     0.109 C 
HETATM    6  C3  UNK     1      30.288  -9.850  33.973  1.00  0.00     0.066 A 
HETATM    7  C4  UNK     1      30.033 -10.693  32.960  1.00  0.00     0.104 A 
HETATM    8  C5  UNK     1      28.779  -8.199  32.802  1.00  0.00     0.086 C 
HETATM    9  C10 UNK     1      30.692 -11.994  32.876  1.00  0.00     0.033 A 
HETATM   10  C11 UNK     1      28.595  -9.124  31.833  1.00  0.00     0.159 C 
HETATM   11  C12 UNK     1      31.298 -10.189  35.010  1.00  0.00     0.298 A 
HETATM   12  C16 UNK     1      31.610 -12.332  33.866  1.00  0.00     0.092 A 
HETATM   13  C17 UNK     1      30.448 -12.922  31.857  1.00  0.00     0.017 A 
HETATM   14  C19 UNK     1      32.282 -13.555  33.868  1.00  0.00     0.038 A 
HETATM   15  C20 UNK     1      28.247  -6.878  32.652  1.00  0.00     0.100 C 
HETATM   16  C21 UNK     1      31.114 -14.152  31.844  1.00  0.00     0.001 A 
HETATM   17  C22 UNK     1      32.029 -14.468  32.849  1.00  0.00     0.003 A 
ENDROOT
BRANCH   5  18
HETATM   18  C2  UNK     1      28.670  -8.485  35.264  1.00  0.00    -0.043 A 
HETATM   19  C7  UNK     1      28.673  -7.374  36.099  1.00  0.00     0.018 A 
HETATM   20  C6  UNK     1      27.834  -7.345  37.213  1.00  0.00    -0.024 A 
HETATM   21  C13 UNK     1      26.998  -8.428  37.483  1.00  0.00     0.074 A 
HETATM   22  C15 UNK     1      27.002  -9.540  36.641  1.00  0.00     0.038 A 
HETATM   23  C9  UNK     1      27.841  -9.569  35.528  1.00  0.00     0.011 A 
BRANCH  20  24
HETATM   24  C8  UNK     1      27.842  -6.147  38.103  1.00  0.00     0.046 C 
BRANCH  24  25
HETATM   25  C14 UNK     1      29.078  -6.055  39.018  1.00  0.00     0.043 C 
BRANCH  25  26
HETATM   26  C18 UNK     1      30.341  -5.689  38.277  1.00  0.00    -0.058 A 
HETATM   27  C23 UNK     1      30.403  -4.487  37.591  1.00  0.00     0.009 A 
HETATM   28  C26 UNK     1      31.570  -4.149  36.905  1.00  0.00     0.024 A 
HETATM   29  C28 UNK     1      32.661  -5.019  36.917  1.00  0.00     0.034 A 
HETATM   30  C27 UNK     1      32.585  -6.225  37.611  1.00  0.00     0.024 A 
HETATM   31 Cl1  UNK     1      34.100  -4.603  36.070  1.00  0.00    -0.084 Cl
HETATM   32  C24 UNK     1      31.417  -6.563  38.297  1.00  0.00     0.009 A 
ENDBRANCH  25  26
ENDBRANCH  24  25
ENDBRANCH  20  24
BRANCH  21  33
HETATM   33  O3  UNK     1      26.172  -8.418  38.567  1.00  0.00    -0.355 OA
HETATM   34  C25 UNK     1      26.522  -9.269  39.657  1.00  0.00     0.210 C 
ENDBRANCH  21  33
ENDBRANCH   5  18
BRANCH  10  35
HETATM   35  N1  UNK     1      27.886  -8.928  30.680  1.00  0.00    -0.379 N 
HETATM   36  H11 UNK     1      28.380  -8.641  29.846  1.00  0.00     0.158 HD
HETATM   37  H12 UNK     1      26.885  -9.077  30.653  1.00  0.00     0.158 HD
ENDBRANCH  10  35
TORSDOF 6
ENDMDL
MODEL 9
REMARK VINA RESULT:      -8.6      4.679      7.151
REMARK  6 active torsions:
REMARK  status: ('A' for Active; 'I' for Inactive)
REMARK    1  A    between atoms: C13_20  and  O3_4 
REMARK    2  A    between atoms: C11_18  and  N1_6 
REMARK    3  A    between atoms: C1_8  and  C2_9 
REMARK    4  A    between atoms: C6_13  and  C8_15 
REMARK    5  A    between atoms: C14_21  and  C8_15 
REMARK    6  A    between atoms: C14_21  and  C18_25 
ROOT
HETATM    1  O1  UNK     1      32.237  -9.843  29.673  1.00  0.00    -0.291 OA
HETATM    2  O2  UNK     1      33.094 -11.826  33.256  1.00  0.00    -0.274 OA
HETATM    3  O4  UNK     1      34.561 -10.175  33.822  1.00  0.00    -0.259 OA
HETATM    4  N2  UNK     1      35.161  -6.043  29.211  1.00  0.00    -0.191 NA
HETATM    5  C1  UNK     1      34.052  -8.563  31.491  1.00  0.00     0.109 C 
HETATM    6  C3  UNK     1      33.398  -9.904  31.766  1.00  0.00     0.066 A 
HETATM    7  C4  UNK     1      32.549 -10.445  30.879  1.00  0.00     0.104 A 
HETATM    8  C5  UNK     1      33.812  -8.087  30.062  1.00  0.00     0.086 C 
HETATM    9  C10 UNK     1      31.890 -11.722  31.144  1.00  0.00     0.033 A 
HETATM   10  C11 UNK     1      32.939  -8.719  29.244  1.00  0.00     0.159 C 
HETATM   11  C12 UNK     1      33.744 -10.619  33.023  1.00  0.00     0.298 A 
HETATM   12  C16 UNK     1      32.181 -12.376  32.337  1.00  0.00     0.092 A 
HETATM   13  C17 UNK     1      30.980 -12.321  30.266  1.00  0.00     0.017 A 
HETATM   14  C19 UNK     1      31.594 -13.596  32.676  1.00  0.00     0.038 A 
HETATM   15  C20 UNK     1      34.557  -6.959  29.592  1.00  0.00     0.100 C 
HETATM   16  C21 UNK     1      30.383 -13.544  30.591  1.00  0.00     0.001 A 
HETATM   17  C22 UNK     1      30.690 -14.179  31.794  1.00  0.00     0.003 A 
ENDROOT
BRANCH   5  18
HETATM   18  C2  UNK     1      33.564  -7.532  32.467  1.00  0.00    -0.043 A 
HETATM   19  C7  UNK     1      32.203  -7.273  32.572  1.00  0.00     0.018 A 
HETATM   20  C6  UNK     1      31.749  -6.315  33.478  1.00  0.00    -0.024 A 
HETATM   21  C13 UNK     1      32.661  -5.621  34.273  1.00  0.00     0.074 A 
HETATM   22  C15 UNK     1      34.026  -5.886  34.162  1.00  0.00     0.038 A 
HETATM   23  C9  UNK     1      34.479  -6.844  33.255  1.00  0.00     0.011 A 
BRANCH  20  24
HETATM   24  C8  UNK     1      30.285  -6.045  33.585  1.00  0.00     0.046 C 
BRANCH  24  25
HETATM   25  C14 UNK     1      29.650  -5.514  32.286  1.00  0.00     0.043 C 
BRANCH  25  26
HETATM   26  C18 UNK     1      29.206  -6.611  31.349  1.00  0.00    -0.058 A 
HETATM   27  C23 UNK     1      28.247  -7.518  31.769  1.00  0.00     0.009 A 
HETATM   28  C26 UNK     1      27.839  -8.533  30.903  1.00  0.00     0.024 A 
HETATM   29  C28 UNK     1      28.393  -8.625  29.626  1.00  0.00     0.034 A 
HETATM   30  C27 UNK     1      29.357  -7.705  29.216  1.00  0.00     0.024 A 
HETATM   31 Cl1  UNK     1      27.890  -9.877  28.558  1.00  0.00    -0.084 Cl
HETATM   32  C24 UNK     1      29.767  -6.691  30.083  1.00  0.00     0.009 A 
ENDBRANCH  25  26
ENDBRANCH  24  25
ENDBRANCH  20  24
BRANCH  21  33
HETATM   33  O3  UNK     1      32.237  -4.681  35.163  1.00  0.00    -0.355 OA
HETATM   34  C25 UNK     1      33.191  -3.708  35.583  1.00  0.00     0.210 C 
ENDBRANCH  21  33
ENDBRANCH   5  18
BRANCH  10  35
HETATM   35  N1  UNK     1      32.655  -8.350  27.958  1.00  0.00    -0.379 N 
HETATM   36  H11 UNK     1      33.189  -8.759  27.204  1.00  0.00     0.158 HD
HETATM   37  H12 UNK     1      31.916  -7.688  27.758  1.00  0.00     0.158 HD
ENDBRANCH  10  35
TORSDOF 6
ENDMDL
MODEL 10
REMARK VINA RESULT:      -8.5      3.184      6.470
REMARK  6 active torsions:
REMARK  status: ('A' for Active; 'I' for Inactive)
REMARK    1  A    between atoms: C13_20  and  O3_4 
REMARK    2  A    between atoms: C11_18  and  N1_6 
REMARK    3  A    between atoms: C1_8  and  C2_9 
REMARK    4  A    between atoms: C6_13  and  C8_15 
REMARK    5  A    between atoms: C14_21  and  C8_15 
REMARK    6  A    between atoms: C14_21  and  C18_25 
ROOT
HETATM    1  O1  UNK     1      31.363  -8.307  36.350  1.00  0.00    -0.291 OA
HETATM    2  O2  UNK     1      31.955  -4.176  36.049  1.00  0.00    -0.274 OA
HETATM    3  O4  UNK     1      33.436  -4.509  34.348  1.00  0.00    -0.259 OA
HETATM    4  N2  UNK     1      34.420 -10.577  33.399  1.00  0.00    -0.191 NA
HETATM    5  C1  UNK     1      33.108  -7.368  34.273  1.00  0.00     0.109 C 
HETATM    6  C3  UNK     1      32.401  -6.450  35.251  1.00  0.00     0.066 A 
HETATM    7  C4  UNK     1      31.588  -6.951  36.194  1.00  0.00     0.104 A 
HETATM    8  C5  UNK     1      32.965  -8.838  34.656  1.00  0.00     0.086 C 
HETATM    9  C10 UNK     1      30.878  -6.076  37.123  1.00  0.00     0.033 A 
HETATM   10  C11 UNK     1      32.122  -9.233  35.637  1.00  0.00     0.159 C 
HETATM   11  C12 UNK     1      32.653  -4.988  35.161  1.00  0.00     0.298 A 
HETATM   12  C16 UNK     1      31.080  -4.703  37.018  1.00  0.00     0.092 A 
HETATM   13  C17 UNK     1      30.001  -6.541  38.110  1.00  0.00     0.017 A 
HETATM   14  C19 UNK     1      30.440  -3.793  37.859  1.00  0.00     0.038 A 
HETATM   15  C20 UNK     1      33.769  -9.798  33.962  1.00  0.00     0.100 C 
HETATM   16  C21 UNK     1      29.352  -5.641  38.961  1.00  0.00     0.001 A 
HETATM   17  C22 UNK     1      29.570  -4.270  38.835  1.00  0.00     0.003 A 
ENDROOT
BRANCH   5  18
HETATM   18  C2  UNK     1      32.596  -7.146  32.879  1.00  0.00    -0.043 A 
HETATM   19  C7  UNK     1      31.324  -6.622  32.689  1.00  0.00     0.018 A 
HETATM   20  C6  UNK     1      30.848  -6.416  31.394  1.00  0.00    -0.024 A 
HETATM   21  C13 UNK     1      31.649  -6.736  30.299  1.00  0.00     0.074 A 
HETATM   22  C15 UNK     1      32.925  -7.262  30.497  1.00  0.00     0.038 A 
HETATM   23  C9  UNK     1      33.400  -7.469  31.792  1.00  0.00     0.011 A 
BRANCH  20  24
HETATM   24  C8  UNK     1      29.480  -5.851  31.200  1.00  0.00     0.046 C 
BRANCH  24  25
HETATM   25  C14 UNK     1      28.346  -6.878  31.382  1.00  0.00     0.043 C 
BRANCH  25  26
HETATM   26  C18 UNK     1      28.314  -7.493  32.759  1.00  0.00    -0.058 A 
HETATM   27  C23 UNK     1      28.588  -8.843  32.908  1.00  0.00     0.009 A 
HETATM   28  C26 UNK     1      28.557  -9.412  34.181  1.00  0.00     0.024 A 
HETATM   29  C28 UNK     1      28.255  -8.621  35.290  1.00  0.00     0.034 A 
HETATM   30  C27 UNK     1      27.982  -7.264  35.126  1.00  0.00     0.024 A 
HETATM   31 Cl1  UNK     1      28.216  -9.323  36.861  1.00  0.00    -0.084 Cl
HETATM   32  C24 UNK     1      28.012  -6.696  33.852  1.00  0.00     0.009 A 
ENDBRANCH  25  26
ENDBRANCH  24  25
ENDBRANCH  20  24
BRANCH  21  33
HETATM   33  O3  UNK     1      31.200  -6.542  29.027  1.00  0.00    -0.355 OA
HETATM   34  C25 UNK     1      30.858  -7.705  28.275  1.00  0.00     0.210 C 
ENDBRANCH  21  33
ENDBRANCH   5  18
BRANCH  10  35
HETATM   35  N1  UNK     1      31.922 -10.528  36.032  1.00  0.00    -0.379 N 
HETATM   36  H11 UNK     1      31.007 -10.939  35.911  1.00  0.00     0.158 HD
HETATM   37  H12 UNK     1      32.677 -11.073  36.429  1.00  0.00     0.158 HD
ENDBRANCH  10  35
TORSDOF 6
ENDMDL
