MODEL 1
REMARK VINA RESULT:      -8.5      0.000      0.000
REMARK  5 active torsions:
REMARK  status: ('A' for Active; 'I' for Inactive)
REMARK    1  A    between atoms: C1_8  and  N1_6 
REMARK       I    between atoms: C2_9  and  N1_6 
REMARK    2  A    between atoms: C4_11  and  N1_6 
REMARK    3  A    between atoms: C16_23  and  N2_7 
REMARK    4  A    between atoms: C1_8  and  C5_12 
REMARK    5  A    between atoms: C2_9  and  C3_10 
ROOT
HETATM    1  O2  UNK     1      32.603  -7.575  34.041  1.00  0.00    -0.267 OA
HETATM    2  N1  UNK     1      30.910  -8.641  32.799  1.00  0.00    -0.309 N 
HETATM    3  C2  UNK     1      31.498  -8.126  33.972  1.00  0.00     0.264 C 
ENDROOT
BRANCH   3   4
HETATM    4  C3  UNK     1      30.733  -8.263  35.219  1.00  0.00     0.108 A 
HETATM    5  C7  UNK     1      29.932  -7.238  35.536  1.00  0.00     0.037 A 
HETATM    6  C6  UNK     1      29.135  -7.281  36.752  1.00  0.00     0.001 A 
HETATM    7  C10 UNK     1      28.286  -6.235  37.122  1.00  0.00     0.050 A 
HETATM    8  C8  UNK     1      29.219  -8.401  37.573  1.00  0.00     0.089 A 
HETATM    9  C16 UNK     1      27.539  -6.325  38.301  1.00  0.00     0.103 A 
HETATM   10  C17 UNK     1      27.637  -7.457  39.114  1.00  0.00     0.039 A 
HETATM   11  C15 UNK     1      28.481  -8.505  38.751  1.00  0.00     0.041 A 
HETATM   12  O1  UNK     1      30.062  -9.476  37.233  1.00  0.00    -0.274 OA
HETATM   13  C9  UNK     1      30.839  -9.464  36.077  1.00  0.00     0.304 A 
HETATM   14  O3  UNK     1      31.570 -10.405  35.788  1.00  0.00    -0.259 OA
BRANCH   9  15
HETATM   15  N2  UNK     1      26.678  -5.260  38.675  1.00  0.00    -0.116 N 
HETATM   16  O4  UNK     1      27.180  -4.161  39.013  1.00  0.00    -0.532 OA
HETATM   17  O5  UNK     1      25.437  -5.448  38.659  1.00  0.00    -0.532 OA
ENDBRANCH   9  15
ENDBRANCH   3   4
BRANCH   2  18
HETATM   18  C1  UNK     1      29.584  -9.280  32.828  1.00  0.00     0.171 C 
BRANCH  18  19
HETATM   19  C5  UNK     1      28.624  -8.483  31.999  1.00  0.00    -0.040 A 
HETATM   20  C13 UNK     1      28.184  -8.984  30.777  1.00  0.00     0.009 A 
HETATM   21  C20 UNK     1      27.290  -8.242  30.006  1.00  0.00     0.001 A 
HETATM   22  C23 UNK     1      26.840  -7.003  30.460  1.00  0.00     0.000 A 
HETATM   23  C21 UNK     1      27.283  -6.505  31.685  1.00  0.00     0.001 A 
HETATM   24  C14 UNK     1      28.177  -7.247  32.457  1.00  0.00     0.009 A 
ENDBRANCH  18  19
ENDBRANCH   2  18
BRANCH   2  25
HETATM   25  C4  UNK     1      31.625  -8.539  31.538  1.00  0.00     0.037 A 
HETATM   26  C11 UNK     1      31.651  -7.322  30.915  1.00  0.00     0.030 A 
HETATM   27  C18 UNK     1      32.336  -7.223  29.704  1.00  0.00     0.002 A 
HETATM   28  C22 UNK     1      32.969  -8.345  29.167  1.00  0.00     0.000 A 
HETATM   29  C19 UNK     1      32.914  -9.565  29.841  1.00  0.00     0.002 A 
HETATM   30  C12 UNK     1      32.228  -9.665  31.051  1.00  0.00     0.030 A 
ENDBRANCH   2  25
TORSDOF 5
ENDMDL
MODEL 2
REMARK VINA RESULT:      -8.2      3.727      7.882
REMARK  5 active torsions:
REMARK  status: ('A' for Active; 'I' for Inactive)
REMARK    1  A    between atoms: C1_8  and  N1_6 
REMARK       I    between atoms: C2_9  and  N1_6 
REMARK    2  A    between atoms: C4_11  and  N1_6 
REMARK    3  A    between atoms: C16_23  and  N2_7 
REMARK    4  A    between atoms: C1_8  and  C5_12 
REMARK    5  A    between atoms: C2_9  and  C3_10 
ROOT
HETATM    1  O2  UNK     1      31.613 -10.245  36.629  1.00  0.00    -0.267 OA
HETATM    2  N1  UNK     1      30.248  -8.346  36.355  1.00  0.00    -0.309 N 
HETATM    3  C2  UNK     1      31.446  -9.082  36.242  1.00  0.00     0.264 C 
ENDROOT
BRANCH   3   4
HETATM    4  C3  UNK     1      32.590  -8.406  35.618  1.00  0.00     0.108 A 
HETATM    5  C7  UNK     1      32.646  -8.451  34.281  1.00  0.00     0.037 A 
HETATM    6  C6  UNK     1      33.742  -7.810  33.572  1.00  0.00     0.001 A 
HETATM    7  C10 UNK     1      33.840  -7.831  32.179  1.00  0.00     0.050 A 
HETATM    8  C8  UNK     1      34.725  -7.153  34.304  1.00  0.00     0.089 A 
HETATM    9  C16 UNK     1      34.913  -7.199  31.543  1.00  0.00     0.103 A 
HETATM   10  C17 UNK     1      35.892  -6.545  32.295  1.00  0.00     0.039 A 
HETATM   11  C15 UNK     1      35.801  -6.519  33.686  1.00  0.00     0.041 A 
HETATM   12  O1  UNK     1      34.661  -7.109  35.710  1.00  0.00    -0.274 OA
HETATM   13  C9  UNK     1      33.625  -7.713  36.418  1.00  0.00     0.304 A 
HETATM   14  O3  UNK     1      33.576  -7.669  37.642  1.00  0.00    -0.259 OA
BRANCH   9  15
HETATM   15  N2  UNK     1      35.011  -7.223  30.127  1.00  0.00    -0.116 N 
HETATM   16  O4  UNK     1      35.493  -6.227  29.533  1.00  0.00    -0.532 OA
HETATM   17  O5  UNK     1      34.610  -8.238  29.507  1.00  0.00    -0.532 OA
ENDBRANCH   9  15
ENDBRANCH   3   4
BRANCH   2  18
HETATM   18  C1  UNK     1      30.155  -6.962  35.859  1.00  0.00     0.171 C 
BRANCH  18  19
HETATM   19  C5  UNK     1      29.974  -6.026  37.014  1.00  0.00    -0.040 A 
HETATM   20  C13 UNK     1      28.701  -5.810  37.536  1.00  0.00     0.009 A 
HETATM   21  C20 UNK     1      28.533  -4.939  38.611  1.00  0.00     0.001 A 
HETATM   22  C23 UNK     1      29.637  -4.288  39.161  1.00  0.00     0.000 A 
HETATM   23  C21 UNK     1      30.910  -4.507  38.634  1.00  0.00     0.001 A 
HETATM   24  C14 UNK     1      31.078  -5.378  37.559  1.00  0.00     0.009 A 
ENDBRANCH  18  19
ENDBRANCH   2  18
BRANCH   2  25
HETATM   25  C4  UNK     1      29.085  -8.963  36.970  1.00  0.00     0.037 A 
HETATM   26  C11 UNK     1      29.128  -9.206  38.315  1.00  0.00     0.030 A 
HETATM   27  C18 UNK     1      28.012  -9.798  38.907  1.00  0.00     0.002 A 
HETATM   28  C22 UNK     1      26.899 -10.121  38.129  1.00  0.00     0.000 A 
HETATM   29  C19 UNK     1      26.904  -9.853  36.761  1.00  0.00     0.002 A 
HETATM   30  C12 UNK     1      28.019  -9.261  36.168  1.00  0.00     0.030 A 
ENDBRANCH   2  25
TORSDOF 5
ENDMDL
MODEL 3
REMARK VINA RESULT:      -8.2      3.059      7.935
REMARK  5 active torsions:
REMARK  status: ('A' for Active; 'I' for Inactive)
REMARK    1  A    between atoms: C1_8  and  N1_6 
REMARK       I    between atoms: C2_9  and  N1_6 
REMARK    2  A    between atoms: C4_11  and  N1_6 
REMARK    3  A    between atoms: C16_23  and  N2_7 
REMARK    4  A    between atoms: C1_8  and  C5_12 
REMARK    5  A    between atoms: C2_9  and  C3_10 
ROOT
HETATM    1  O2  UNK     1      28.188  -6.506  34.790  1.00  0.00    -0.267 OA
HETATM    2  N1  UNK     1      30.006  -7.244  36.091  1.00  0.00    -0.309 N 
HETATM    3  C2  UNK     1      29.141  -7.271  34.978  1.00  0.00     0.264 C 
ENDROOT
BRANCH   3   4
HETATM    4  C3  UNK     1      29.395  -8.299  33.960  1.00  0.00     0.108 A 
HETATM    5  C7  UNK     1      30.114  -7.915  32.898  1.00  0.00     0.037 A 
HETATM    6  C6  UNK     1      30.416  -8.863  31.837  1.00  0.00     0.001 A 
HETATM    7  C10 UNK     1      31.163  -8.506  30.712  1.00  0.00     0.050 A 
HETATM    8  C8  UNK     1      29.947 -10.168  31.946  1.00  0.00     0.089 A 
HETATM    9  C16 UNK     1      31.427  -9.454  29.718  1.00  0.00     0.103 A 
HETATM   10  C17 UNK     1      30.948 -10.760  29.845  1.00  0.00     0.039 A 
HETATM   11  C15 UNK     1      30.203 -11.124  30.965  1.00  0.00     0.041 A 
HETATM   12  O1  UNK     1      29.192 -10.566  33.066  1.00  0.00    -0.274 OA
HETATM   13  C9  UNK     1      28.885  -9.682  34.097  1.00  0.00     0.304 A 
HETATM   14  O3  UNK     1      28.228 -10.037  35.069  1.00  0.00    -0.259 OA
BRANCH   9  15
HETATM   15  N2  UNK     1      32.186  -9.089  28.576  1.00  0.00    -0.116 N 
HETATM   16  O4  UNK     1      31.610  -9.007  27.463  1.00  0.00    -0.532 OA
HETATM   17  O5  UNK     1      33.413  -8.859  28.708  1.00  0.00    -0.532 OA
ENDBRANCH   9  15
ENDBRANCH   3   4
BRANCH   2  18
HETATM   18  C1  UNK     1      31.116  -8.203  36.218  1.00  0.00     0.171 C 
BRANCH  18  19
HETATM   19  C5  UNK     1      32.416  -7.461  36.293  1.00  0.00    -0.040 A 
HETATM   20  C13 UNK     1      32.916  -6.828  35.159  1.00  0.00     0.009 A 
HETATM   21  C20 UNK     1      34.125  -6.136  35.229  1.00  0.00     0.001 A 
HETATM   22  C23 UNK     1      34.827  -6.080  36.433  1.00  0.00     0.000 A 
HETATM   23  C21 UNK     1      34.321  -6.716  37.567  1.00  0.00     0.001 A 
HETATM   24  C14 UNK     1      33.112  -7.408  37.496  1.00  0.00     0.009 A 
ENDBRANCH  18  19
ENDBRANCH   2  18
BRANCH   2  25
HETATM   25  C4  UNK     1      29.799  -6.252  37.133  1.00  0.00     0.037 A 
HETATM   26  C11 UNK     1      29.121  -6.637  38.256  1.00  0.00     0.030 A 
HETATM   27  C18 UNK     1      28.921  -5.687  39.257  1.00  0.00     0.002 A 
HETATM   28  C22 UNK     1      29.410  -4.389  39.093  1.00  0.00     0.000 A 
HETATM   29  C19 UNK     1      30.095  -4.044  37.928  1.00  0.00     0.002 A 
HETATM   30  C12 UNK     1      30.294  -4.995  36.928  1.00  0.00     0.030 A 
ENDBRANCH   2  25
TORSDOF 5
ENDMDL
MODEL 4
REMARK VINA RESULT:      -8.0      2.064      3.183
REMARK  5 active torsions:
REMARK  status: ('A' for Active; 'I' for Inactive)
REMARK    1  A    between atoms: C1_8  and  N1_6 
REMARK       I    between atoms: C2_9  and  N1_6 
REMARK    2  A    between atoms: C4_11  and  N1_6 
REMARK    3  A    between atoms: C16_23  and  N2_7 
REMARK    4  A    between atoms: C1_8  and  C5_12 
REMARK    5  A    between atoms: C2_9  and  C3_10 
ROOT
HETATM    1  O2  UNK     1      28.675 -10.171  33.476  1.00  0.00    -0.267 OA
HETATM    2  N1  UNK     1      30.162  -8.914  32.153  1.00  0.00    -0.309 N 
HETATM    3  C2  UNK     1      29.605  -9.363  33.367  1.00  0.00     0.264 C 
ENDROOT
BRANCH   3   4
HETATM    4  C3  UNK     1      30.175  -8.818  34.606  1.00  0.00     0.108 A 
HETATM    5  C7  UNK     1      29.470  -7.853  35.208  1.00  0.00     0.037 A 
HETATM    6  C6  UNK     1      29.954  -7.251  36.440  1.00  0.00     0.001 A 
HETATM    7  C10 UNK     1      29.250  -6.241  37.102  1.00  0.00     0.050 A 
HETATM    8  C8  UNK     1      31.156  -7.695  36.979  1.00  0.00     0.089 A 
HETATM    9  C16 UNK     1      29.758  -5.695  38.285  1.00  0.00     0.103 A 
HETATM   10  C17 UNK     1      30.968  -6.154  38.811  1.00  0.00     0.039 A 
HETATM   11  C15 UNK     1      31.675  -7.161  38.157  1.00  0.00     0.041 A 
HETATM   12  O1  UNK     1      31.894  -8.712  36.342  1.00  0.00    -0.274 OA
HETATM   13  C9  UNK     1      31.458  -9.306  35.161  1.00  0.00     0.304 A 
HETATM   14  O3  UNK     1      32.105 -10.192  34.614  1.00  0.00    -0.259 OA
BRANCH   9  15
HETATM   15  N2  UNK     1      29.041  -4.669  38.955  1.00  0.00    -0.116 N 
HETATM   16  O4  UNK     1      27.816  -4.528  38.717  1.00  0.00    -0.532 OA
HETATM   17  O5  UNK     1      29.651  -3.930  39.765  1.00  0.00    -0.532 OA
ENDBRANCH   9  15
ENDBRANCH   3   4
BRANCH   2  18
HETATM   18  C1  UNK     1      31.273  -7.947  32.135  1.00  0.00     0.171 C 
BRANCH  18  19
HETATM   19  C5  UNK     1      30.794  -6.643  31.571  1.00  0.00    -0.040 A 
HETATM   20  C13 UNK     1      30.070  -5.768  32.373  1.00  0.00     0.009 A 
HETATM   21  C20 UNK     1      29.625  -4.555  31.849  1.00  0.00     0.001 A 
HETATM   22  C23 UNK     1      29.908  -4.223  30.524  1.00  0.00     0.000 A 
HETATM   23  C21 UNK     1      30.635  -5.104  29.723  1.00  0.00     0.001 A 
HETATM   24  C14 UNK     1      31.079  -6.317  30.248  1.00  0.00     0.009 A 
ENDBRANCH  18  19
ENDBRANCH   2  18
BRANCH   2  25
HETATM   25  C4  UNK     1      29.633  -9.415  30.895  1.00  0.00     0.037 A 
HETATM   26  C11 UNK     1      30.348 -10.378  30.240  1.00  0.00     0.030 A 
HETATM   27  C18 UNK     1      29.841 -10.860  29.033  1.00  0.00     0.002 A 
HETATM   28  C22 UNK     1      28.639 -10.359  28.532  1.00  0.00     0.000 A 
HETATM   29  C19 UNK     1      27.946  -9.376  29.238  1.00  0.00     0.002 A 
HETATM   30  C12 UNK     1      28.453  -8.894  30.445  1.00  0.00     0.030 A 
ENDBRANCH   2  25
TORSDOF 5
ENDMDL
MODEL 5
REMARK VINA RESULT:      -8.0      3.109      8.266
REMARK  5 active torsions:
REMARK  status: ('A' for Active; 'I' for Inactive)
REMARK    1  A    between atoms: C1_8  and  N1_6 
REMARK       I    between atoms: C2_9  and  N1_6 
REMARK    2  A    between atoms: C4_11  and  N1_6 
REMARK    3  A    between atoms: C16_23  and  N2_7 
REMARK    4  A    between atoms: C1_8  and  C5_12 
REMARK    5  A    between atoms: C2_9  and  C3_10 
ROOT
HETATM    1  O2  UNK     1      28.856  -6.185  34.077  1.00  0.00    -0.267 OA
HETATM    2  N1  UNK     1      30.477  -7.143  35.491  1.00  0.00    -0.309 N 
HETATM    3  C2  UNK     1      29.843  -6.908  34.253  1.00  0.00     0.264 C 
ENDROOT
BRANCH   3   4
HETATM    4  C3  UNK     1      30.404  -7.586  33.077  1.00  0.00     0.108 A 
HETATM    5  C7  UNK     1      31.491  -7.027  32.534  1.00  0.00     0.037 A 
HETATM    6  C6  UNK     1      32.118  -7.626  31.366  1.00  0.00     0.001 A 
HETATM    7  C10 UNK     1      33.254  -7.076  30.767  1.00  0.00     0.050 A 
HETATM    8  C8  UNK     1      31.569  -8.784  30.828  1.00  0.00     0.089 A 
HETATM    9  C16 UNK     1      33.819  -7.690  29.645  1.00  0.00     0.103 A 
HETATM   10  C17 UNK     1      33.254  -8.853  29.118  1.00  0.00     0.039 A 
HETATM   11  C15 UNK     1      32.121  -9.408  29.710  1.00  0.00     0.041 A 
HETATM   12  O1  UNK     1      30.424  -9.369  31.404  1.00  0.00    -0.274 OA
HETATM   13  C9  UNK     1      29.802  -8.819  32.521  1.00  0.00     0.304 A 
HETATM   14  O3  UNK     1      28.807  -9.335  33.017  1.00  0.00    -0.259 OA
BRANCH   9  15
HETATM   15  N2  UNK     1      34.974  -7.129  29.038  1.00  0.00    -0.116 N 
HETATM   16  O4  UNK     1      35.434  -7.660  27.998  1.00  0.00    -0.532 OA
HETATM   17  O5  UNK     1      35.504  -6.117  29.559  1.00  0.00    -0.532 OA
ENDBRANCH   9  15
ENDBRANCH   3   4
BRANCH   2  18
HETATM   18  C1  UNK     1      31.652  -8.024  35.591  1.00  0.00     0.171 C 
BRANCH  18  19
HETATM   19  C5  UNK     1      32.851  -7.219  35.994  1.00  0.00    -0.040 A 
HETATM   20  C13 UNK     1      33.380  -7.362  37.273  1.00  0.00     0.009 A 
HETATM   21  C20 UNK     1      34.496  -6.613  37.647  1.00  0.00     0.001 A 
HETATM   22  C23 UNK     1      35.077  -5.727  36.741  1.00  0.00     0.000 A 
HETATM   23  C21 UNK     1      34.542  -5.588  35.460  1.00  0.00     0.001 A 
HETATM   24  C14 UNK     1      33.426  -6.336  35.085  1.00  0.00     0.009 A 
ENDBRANCH  18  19
ENDBRANCH   2  18
BRANCH   2  25
HETATM   25  C4  UNK     1      29.962  -6.503  36.690  1.00  0.00     0.037 A 
HETATM   26  C11 UNK     1      30.248  -5.179  36.881  1.00  0.00     0.030 A 
HETATM   27  C18 UNK     1      29.754  -4.564  38.031  1.00  0.00     0.002 A 
HETATM   28  C22 UNK     1      28.993  -5.298  38.942  1.00  0.00     0.000 A 
HETATM   29  C19 UNK     1      28.728  -6.646  38.703  1.00  0.00     0.002 A 
HETATM   30  C12 UNK     1      29.222  -7.261  37.553  1.00  0.00     0.030 A 
ENDBRANCH   2  25
TORSDOF 5
ENDMDL
MODEL 6
REMARK VINA RESULT:      -7.9      2.495      4.133
REMARK  5 active torsions:
REMARK  status: ('A' for Active; 'I' for Inactive)
REMARK    1  A    between atoms: C1_8  and  N1_6 
REMARK       I    between atoms: C2_9  and  N1_6 
REMARK    2  A    between atoms: C4_11  and  N1_6 
REMARK    3  A    between atoms: C16_23  and  N2_7 
REMARK    4  A    between atoms: C1_8  and  C5_12 
REMARK    5  A    between atoms: C2_9  and  C3_10 
ROOT
HETATM    1  O2  UNK     1      30.692  -6.092  31.532  1.00  0.00    -0.267 OA
HETATM    2  N1  UNK     1      30.121  -8.237  32.318  1.00  0.00    -0.309 N 
HETATM    3  C2  UNK     1      30.644  -6.934  32.437  1.00  0.00     0.264 C 
ENDROOT
BRANCH   3   4
HETATM    4  C3  UNK     1      31.183  -6.547  33.748  1.00  0.00     0.108 A 
HETATM    5  C7  UNK     1      30.284  -6.206  34.679  1.00  0.00     0.037 A 
HETATM    6  C6  UNK     1      30.722  -5.808  36.008  1.00  0.00     0.001 A 
HETATM    7  C10 UNK     1      29.819  -5.445  37.010  1.00  0.00     0.050 A 
HETATM    8  C8  UNK     1      32.083  -5.790  36.291  1.00  0.00     0.089 A 
HETATM    9  C16 UNK     1      30.290  -5.070  38.273  1.00  0.00     0.103 A 
HETATM   10  C17 UNK     1      31.661  -5.057  38.539  1.00  0.00     0.039 A 
HETATM   11  C15 UNK     1      32.568  -5.419  37.544  1.00  0.00     0.041 A 
HETATM   12  O1  UNK     1      33.024  -6.150  35.307  1.00  0.00    -0.274 OA
HETATM   13  C9  UNK     1      32.637  -6.534  34.026  1.00  0.00     0.304 A 
HETATM   14  O3  UNK     1      33.462  -6.848  33.175  1.00  0.00    -0.259 OA
BRANCH   9  15
HETATM   15  N2  UNK     1      29.370  -4.701  39.289  1.00  0.00    -0.116 N 
HETATM   16  O4  UNK     1      29.577  -3.651  39.945  1.00  0.00    -0.532 OA
HETATM   17  O5  UNK     1      28.377  -5.437  39.507  1.00  0.00    -0.532 OA
ENDBRANCH   9  15
ENDBRANCH   3   4
BRANCH   2  18
HETATM   18  C1  UNK     1      30.112  -9.163  33.463  1.00  0.00     0.171 C 
BRANCH  18  19
HETATM   19  C5  UNK     1      30.916 -10.382  33.130  1.00  0.00    -0.040 A 
HETATM   20  C13 UNK     1      32.306 -10.316  33.136  1.00  0.00     0.009 A 
HETATM   21  C20 UNK     1      33.055 -11.452  32.826  1.00  0.00     0.001 A 
HETATM   22  C23 UNK     1      32.410 -12.647  32.513  1.00  0.00     0.000 A 
HETATM   23  C21 UNK     1      31.016 -12.708  32.507  1.00  0.00     0.001 A 
HETATM   24  C14 UNK     1      30.268 -11.573  32.817  1.00  0.00     0.009 A 
ENDBRANCH  18  19
ENDBRANCH   2  18
BRANCH   2  25
HETATM   25  C4  UNK     1      29.580  -8.676  31.042  1.00  0.00     0.037 A 
HETATM   26  C11 UNK     1      30.463  -9.081  30.079  1.00  0.00     0.030 A 
HETATM   27  C18 UNK     1      29.945  -9.503  28.855  1.00  0.00     0.002 A 
HETATM   28  C22 UNK     1      28.566  -9.503  28.644  1.00  0.00     0.000 A 
HETATM   29  C19 UNK     1      27.706  -9.080  29.657  1.00  0.00     0.002 A 
HETATM   30  C12 UNK     1      28.223  -8.659  30.882  1.00  0.00     0.030 A 
ENDBRANCH   2  25
TORSDOF 5
ENDMDL
MODEL 7
REMARK VINA RESULT:      -7.9      1.807      2.704
REMARK  5 active torsions:
REMARK  status: ('A' for Active; 'I' for Inactive)
REMARK    1  A    between atoms: C1_8  and  N1_6 
REMARK       I    between atoms: C2_9  and  N1_6 
REMARK    2  A    between atoms: C4_11  and  N1_6 
REMARK    3  A    between atoms: C16_23  and  N2_7 
REMARK    4  A    between atoms: C1_8  and  C5_12 
REMARK    5  A    between atoms: C2_9  and  C3_10 
ROOT
HETATM    1  O2  UNK     1      32.934  -8.076  34.041  1.00  0.00    -0.267 OA
HETATM    2  N1  UNK     1      31.677  -6.820  32.497  1.00  0.00    -0.309 N 
HETATM    3  C2  UNK     1      32.152  -7.154  33.782  1.00  0.00     0.264 C 
ENDROOT
BRANCH   3   4
HETATM    4  C3  UNK     1      31.672  -6.339  34.905  1.00  0.00     0.108 A 
HETATM    5  C7  UNK     1      30.487  -6.686  35.422  1.00  0.00     0.037 A 
HETATM    6  C6  UNK     1      29.928  -5.938  36.538  1.00  0.00     0.001 A 
HETATM    7  C10 UNK     1      28.695  -6.265  37.109  1.00  0.00     0.050 A 
HETATM    8  C8  UNK     1      30.644  -4.863  37.054  1.00  0.00     0.089 A 
HETATM    9  C16 UNK     1      28.201  -5.515  38.181  1.00  0.00     0.103 A 
HETATM   10  C17 UNK     1      28.934  -4.438  38.686  1.00  0.00     0.039 A 
HETATM   11  C15 UNK     1      30.164  -4.107  38.122  1.00  0.00     0.041 A 
HETATM   12  O1  UNK     1      31.890  -4.504  36.506  1.00  0.00    -0.274 OA
HETATM   13  C9  UNK     1      32.451  -5.199  35.438  1.00  0.00     0.304 A 
HETATM   14  O3  UNK     1      33.537  -4.880  34.967  1.00  0.00    -0.259 OA
BRANCH   9  15
HETATM   15  N2  UNK     1      26.948  -5.849  38.759  1.00  0.00    -0.116 N 
HETATM   16  O4  UNK     1      26.664  -7.058  38.940  1.00  0.00    -0.532 OA
HETATM   17  O5  UNK     1      26.157  -4.926  39.072  1.00  0.00    -0.532 OA
ENDBRANCH   9  15
ENDBRANCH   3   4
BRANCH   2  18
HETATM   18  C1  UNK     1      30.745  -5.697  32.298  1.00  0.00     0.171 C 
BRANCH  18  19
HETATM   19  C5  UNK     1      29.465  -6.206  31.705  1.00  0.00    -0.040 A 
HETATM   20  C13 UNK     1      28.976  -5.643  30.531  1.00  0.00     0.009 A 
HETATM   21  C20 UNK     1      27.786  -6.117  29.979  1.00  0.00     0.001 A 
HETATM   22  C23 UNK     1      27.091  -7.151  30.605  1.00  0.00     0.000 A 
HETATM   23  C21 UNK     1      27.585  -7.712  31.783  1.00  0.00     0.001 A 
HETATM   24  C14 UNK     1      28.776  -7.238  32.334  1.00  0.00     0.009 A 
ENDBRANCH  18  19
ENDBRANCH   2  18
BRANCH   2  25
HETATM   25  C4  UNK     1      32.114  -7.596  31.349  1.00  0.00     0.037 A 
HETATM   26  C11 UNK     1      31.682  -8.890  31.250  1.00  0.00     0.030 A 
HETATM   27  C18 UNK     1      32.100  -9.636  30.149  1.00  0.00     0.002 A 
HETATM   28  C22 UNK     1      32.934  -9.056  29.191  1.00  0.00     0.000 A 
HETATM   29  C19 UNK     1      33.348  -7.733  29.336  1.00  0.00     0.002 A 
HETATM   30  C12 UNK     1      32.930  -6.987  30.437  1.00  0.00     0.030 A 
ENDBRANCH   2  25
TORSDOF 5
ENDMDL
MODEL 8
REMARK VINA RESULT:      -7.9      2.867      8.045
REMARK  5 active torsions:
REMARK  status: ('A' for Active; 'I' for Inactive)
REMARK    1  A    between atoms: C1_8  and  N1_6 
REMARK       I    between atoms: C2_9  and  N1_6 
REMARK    2  A    between atoms: C4_11  and  N1_6 
REMARK    3  A    between atoms: C16_23  and  N2_7 
REMARK    4  A    between atoms: C1_8  and  C5_12 
REMARK    5  A    between atoms: C2_9  and  C3_10 
ROOT
HETATM    1  O2  UNK     1      29.213 -10.107  34.472  1.00  0.00    -0.267 OA
HETATM    2  N1  UNK     1      29.149  -7.952  35.419  1.00  0.00    -0.309 N 
HETATM    3  C2  UNK     1      29.394  -8.886  34.391  1.00  0.00     0.264 C 
ENDROOT
BRANCH   3   4
HETATM    4  C3  UNK     1      29.913  -8.362  33.121  1.00  0.00     0.108 A 
HETATM    5  C7  UNK     1      31.244  -8.327  32.996  1.00  0.00     0.037 A 
HETATM    6  C6  UNK     1      31.853  -7.824  31.774  1.00  0.00     0.001 A 
HETATM    7  C10 UNK     1      33.238  -7.769  31.600  1.00  0.00     0.050 A 
HETATM    8  C8  UNK     1      31.028  -7.385  30.743  1.00  0.00     0.089 A 
HETATM    9  C16 UNK     1      33.774  -7.278  30.406  1.00  0.00     0.103 A 
HETATM   10  C17 UNK     1      32.930  -6.840  29.381  1.00  0.00     0.039 A 
HETATM   11  C15 UNK     1      31.547  -6.892  29.547  1.00  0.00     0.041 A 
HETATM   12  O1  UNK     1      29.627  -7.425  30.880  1.00  0.00    -0.274 OA
HETATM   13  C9  UNK     1      29.016  -7.900  32.038  1.00  0.00     0.304 A 
HETATM   14  O3  UNK     1      27.795  -7.933  32.149  1.00  0.00    -0.259 OA
BRANCH   9  15
HETATM   15  N2  UNK     1      35.181  -7.222  30.232  1.00  0.00    -0.116 N 
HETATM   16  O4  UNK     1      35.697  -6.177  29.766  1.00  0.00    -0.532 OA
HETATM   17  O5  UNK     1      35.873  -8.221  30.547  1.00  0.00    -0.532 OA
ENDBRANCH   9  15
ENDBRANCH   3   4
BRANCH   2  18
HETATM   18  C1  UNK     1      29.399  -6.514  35.217  1.00  0.00     0.171 C 
BRANCH  18  19
HETATM   19  C5  UNK     1      30.344  -6.016  36.267  1.00  0.00    -0.040 A 
HETATM   20  C13 UNK     1      29.871  -5.206  37.295  1.00  0.00     0.009 A 
HETATM   21  C20 UNK     1      30.751  -4.744  38.272  1.00  0.00     0.001 A 
HETATM   22  C23 UNK     1      32.100  -5.093  38.218  1.00  0.00     0.000 A 
HETATM   23  C21 UNK     1      32.570  -5.905  37.185  1.00  0.00     0.001 A 
HETATM   24  C14 UNK     1      31.690  -6.368  36.208  1.00  0.00     0.009 A 
ENDBRANCH  18  19
ENDBRANCH   2  18
BRANCH   2  25
HETATM   25  C4  UNK     1      28.642  -8.414  36.699  1.00  0.00     0.037 A 
HETATM   26  C11 UNK     1      27.339  -8.136  37.008  1.00  0.00     0.030 A 
HETATM   27  C18 UNK     1      26.850  -8.580  38.237  1.00  0.00     0.002 A 
HETATM   28  C22 UNK     1      27.685  -9.284  39.106  1.00  0.00     0.000 A 
HETATM   29  C19 UNK     1      29.007  -9.543  38.745  1.00  0.00     0.002 A 
HETATM   30  C12 UNK     1      29.496  -9.100  37.517  1.00  0.00     0.030 A 
ENDBRANCH   2  25
TORSDOF 5
ENDMDL
MODEL 9
REMARK VINA RESULT:      -7.8      3.144      7.220
REMARK  5 active torsions:
REMARK  status: ('A' for Active; 'I' for Inactive)
REMARK    1  A    between atoms: C1_8  and  N1_6 
REMARK       I    between atoms: C2_9  and  N1_6 
REMARK    2  A    between atoms: C4_11  and  N1_6 
REMARK    3  A    between atoms: C16_23  and  N2_7 
REMARK    4  A    between atoms: C1_8  and  C5_12 
REMARK    5  A    between atoms: C2_9  and  C3_10 
ROOT
HETATM    1  O2  UNK     1      31.266 -10.294  36.023  1.00  0.00    -0.267 OA
HETATM    2  N1  UNK     1      30.158  -8.225  36.201  1.00  0.00    -0.309 N 
HETATM    3  C2  UNK     1      31.250  -9.064  35.899  1.00  0.00     0.264 C 
ENDROOT
BRANCH   3   4
HETATM    4  C3  UNK     1      32.471  -8.418  35.401  1.00  0.00     0.108 A 
HETATM    5  C7  UNK     1      32.646  -8.428  34.074  1.00  0.00     0.037 A 
HETATM    6  C6  UNK     1      33.826  -7.813  33.487  1.00  0.00     0.001 A 
HETATM    7  C10 UNK     1      34.050  -7.800  32.108  1.00  0.00     0.050 A 
HETATM    8  C8  UNK     1      34.763  -7.217  34.325  1.00  0.00     0.089 A 
HETATM    9  C16 UNK     1      35.200  -7.195  31.591  1.00  0.00     0.103 A 
HETATM   10  C17 UNK     1      36.130  -6.602  32.448  1.00  0.00     0.039 A 
HETATM   11  C15 UNK     1      35.914  -6.610  33.825  1.00  0.00     0.041 A 
HETATM   12  O1  UNK     1      34.573  -7.209  35.720  1.00  0.00    -0.274 OA
HETATM   13  C9  UNK     1      33.455  -7.791  36.312  1.00  0.00     0.304 A 
HETATM   14  O3  UNK     1      33.296  -7.778  37.528  1.00  0.00    -0.259 OA
BRANCH   9  15
HETATM   15  N2  UNK     1      35.425  -7.184  30.190  1.00  0.00    -0.116 N 
HETATM   16  O4  UNK     1      35.512  -6.081  29.596  1.00  0.00    -0.532 OA
HETATM   17  O5  UNK     1      35.528  -8.276  29.581  1.00  0.00    -0.532 OA
ENDBRANCH   9  15
ENDBRANCH   3   4
BRANCH   2  18
HETATM   18  C1  UNK     1      30.243  -6.766  36.016  1.00  0.00     0.171 C 
BRANCH  18  19
HETATM   19  C5  UNK     1      29.688  -6.397  34.674  1.00  0.00    -0.040 A 
HETATM   20  C13 UNK     1      28.339  -6.604  34.403  1.00  0.00     0.009 A 
HETATM   21  C20 UNK     1      27.822  -6.260  33.155  1.00  0.00     0.001 A 
HETATM   22  C23 UNK     1      28.657  -5.710  32.183  1.00  0.00     0.000 A 
HETATM   23  C21 UNK     1      30.009  -5.504  32.459  1.00  0.00     0.001 A 
HETATM   24  C14 UNK     1      30.525  -5.849  33.707  1.00  0.00     0.009 A 
ENDBRANCH  18  19
ENDBRANCH   2  18
BRANCH   2  25
HETATM   25  C4  UNK     1      28.925  -8.809  36.703  1.00  0.00     0.037 A 
HETATM   26  C11 UNK     1      28.658  -8.687  38.039  1.00  0.00     0.030 A 
HETATM   27  C18 UNK     1      27.476  -9.246  38.522  1.00  0.00     0.002 A 
HETATM   28  C22 UNK     1      26.608  -9.905  37.649  1.00  0.00     0.000 A 
HETATM   29  C19 UNK     1      26.925 -10.004  36.294  1.00  0.00     0.002 A 
HETATM   30  C12 UNK     1      28.107  -9.444  35.811  1.00  0.00     0.030 A 
ENDBRANCH   2  25
TORSDOF 5
ENDMDL
MODEL 10
REMARK VINA RESULT:      -7.8      2.317      3.806
REMARK  5 active torsions:
REMARK  status: ('A' for Active; 'I' for Inactive)
REMARK    1  A    between atoms: C1_8  and  N1_6 
REMARK       I    between atoms: C2_9  and  N1_6 
REMARK    2  A    between atoms: C4_11  and  N1_6 
REMARK    3  A    between atoms: C16_23  and  N2_7 
REMARK    4  A    between atoms: C1_8  and  C5_12 
REMARK    5  A    between atoms: C2_9  and  C3_10 
ROOT
HETATM    1  O2  UNK     1      29.960  -6.077  31.712  1.00  0.00    -0.267 OA
HETATM    2  N1  UNK     1      30.382  -8.342  32.197  1.00  0.00    -0.309 N 
HETATM    3  C2  UNK     1      30.398  -6.958  32.462  1.00  0.00     0.264 C 
ENDROOT
BRANCH   3   4
HETATM    4  C3  UNK     1      30.990  -6.527  33.735  1.00  0.00     0.108 A 
HETATM    5  C7  UNK     1      30.130  -6.189  34.703  1.00  0.00     0.037 A 
HETATM    6  C6  UNK     1      30.622  -5.749  35.999  1.00  0.00     0.001 A 
HETATM    7  C10 UNK     1      29.760  -5.387  37.038  1.00  0.00     0.050 A 
HETATM    8  C8  UNK     1      31.995  -5.689  36.213  1.00  0.00     0.089 A 
HETATM    9  C16 UNK     1      30.282  -4.972  38.267  1.00  0.00     0.103 A 
HETATM   10  C17 UNK     1      31.664  -4.917  38.464  1.00  0.00     0.039 A 
HETATM   11  C15 UNK     1      32.530  -5.277  37.433  1.00  0.00     0.041 A 
HETATM   12  O1  UNK     1      32.895  -6.047  35.192  1.00  0.00    -0.274 OA
HETATM   13  C9  UNK     1      32.455  -6.471  33.940  1.00  0.00     0.304 A 
HETATM   14  O3  UNK     1      33.246  -6.782  33.056  1.00  0.00    -0.259 OA
BRANCH   9  15
HETATM   15  N2  UNK     1      29.405  -4.604  39.320  1.00  0.00    -0.116 N 
HETATM   16  O4  UNK     1      29.665  -3.581  40.000  1.00  0.00    -0.532 OA
HETATM   17  O5  UNK     1      28.393  -5.311  39.544  1.00  0.00    -0.532 OA
ENDBRANCH   9  15
ENDBRANCH   3   4
BRANCH   2  18
HETATM   18  C1  UNK     1      30.931  -9.309  33.163  1.00  0.00     0.171 C 
BRANCH  18  19
HETATM   19  C5  UNK     1      30.052  -9.362  34.376  1.00  0.00    -0.040 A 
HETATM   20  C13 UNK     1      28.670  -9.416  34.225  1.00  0.00     0.009 A 
HETATM   21  C20 UNK     1      27.852  -9.465  35.354  1.00  0.00     0.001 A 
HETATM   22  C23 UNK     1      28.421  -9.460  36.627  1.00  0.00     0.000 A 
HETATM   23  C21 UNK     1      29.807  -9.405  36.773  1.00  0.00     0.001 A 
HETATM   24  C14 UNK     1      30.625  -9.356  35.644  1.00  0.00     0.009 A 
ENDBRANCH  18  19
ENDBRANCH   2  18
BRANCH   2  25
HETATM   25  C4  UNK     1      29.814  -8.825  30.949  1.00  0.00     0.037 A 
HETATM   26  C11 UNK     1      28.466  -8.686  30.766  1.00  0.00     0.030 A 
HETATM   27  C18 UNK     1      27.920  -9.148  29.569  1.00  0.00     0.002 A 
HETATM   28  C22 UNK     1      28.744  -9.730  28.605  1.00  0.00     0.000 A 
HETATM   29  C19 UNK     1      30.114  -9.850  28.839  1.00  0.00     0.002 A 
HETATM   30  C12 UNK     1      30.660  -9.387  30.036  1.00  0.00     0.030 A 
ENDBRANCH   2  25
TORSDOF 5
ENDMDL
