MODEL 1
REMARK VINA RESULT:      -8.0      0.000      0.000
REMARK  3 active torsions:
REMARK  status: ('A' for Active; 'I' for Inactive)
REMARK    1  A    between atoms: C13_20  and  O3_4 
REMARK    2  A    between atoms: C1_8  and  C10_17 
REMARK    3  A    between atoms: C13_20  and  C6_13 
ROOT
HETATM    1  O1  UNK     1      32.537  -8.721  34.987  1.00  0.00    -0.293 OA
HETATM    2  N1  UNK     1      30.491  -6.289  38.499  1.00  0.00    -0.362 N 
HETATM    3  C1  UNK     1      30.067  -8.059  36.322  1.00  0.00     0.104 C 
HETATM    4  C2  UNK     1      31.428  -7.464  36.667  1.00  0.00     0.024 C 
HETATM    5  C3  UNK     1      31.572  -6.606  37.701  1.00  0.00     0.020 C 
HETATM    6  C4  UNK     1      32.881  -5.950  38.054  1.00  0.00     0.058 C 
HETATM    7  C5  UNK     1      33.858  -5.946  36.885  1.00  0.00     0.014 C 
HETATM    8  C6  UNK     1      28.999  -7.740  37.370  1.00  0.00     0.052 C 
HETATM    9  C7  UNK     1      33.983  -7.333  36.281  1.00  0.00     0.084 C 
HETATM   10  C8  UNK     1      32.632  -7.888  35.888  1.00  0.00     0.158 C 
HETATM   11  C9  UNK     1      29.237  -6.869  38.378  1.00  0.00     0.018 C 
HETATM   12  C12 UNK     1      28.241  -6.450  39.426  1.00  0.00     0.069 C 
HETATM   13  H8  UNK     1      30.640  -5.643  39.266  1.00  0.00     0.165 HD
ENDROOT
BRANCH   3  14
HETATM   14  C10 UNK     1      29.621  -7.586  34.964  1.00  0.00     0.029 A 
HETATM   15  C11 UNK     1      29.294  -8.602  33.932  1.00  0.00     0.194 A 
HETATM   16  O4  UNK     1      29.376  -9.802  34.151  1.00  0.00    -0.287 OA
HETATM   17  C15 UNK     1      28.863  -8.084  32.620  1.00  0.00     0.050 A 
HETATM   18  C16 UNK     1      28.786  -6.704  32.427  1.00  0.00     0.089 A 
HETATM   19  C17 UNK     1      28.532  -8.959  31.583  1.00  0.00     0.042 A 
HETATM   20  O2  UNK     1      29.098  -5.800  33.410  1.00  0.00    -0.321 OA
HETATM   21  C18 UNK     1      28.381  -6.192  31.194  1.00  0.00     0.040 A 
HETATM   22  C14 UNK     1      29.499  -6.297  34.626  1.00  0.00     0.154 A 
HETATM   23  C20 UNK     1      28.051  -7.065  30.156  1.00  0.00     0.026 A 
HETATM   24  C19 UNK     1      28.127  -8.445  30.350  1.00  0.00     0.035 A 
HETATM   25 Cl1  UNK     1      27.718  -9.515  29.066  1.00  0.00    -0.084 Cl
ENDBRANCH   3  14
BRANCH   8  26
HETATM   26  C13 UNK     1      27.724  -8.466  37.251  1.00  0.00     0.291 C 
HETATM   27  O5  UNK     1      26.710  -7.968  36.801  1.00  0.00    -0.260 OA
BRANCH  26  28
HETATM   28  O3  UNK     1      27.906  -9.725  37.716  1.00  0.00    -0.323 OA
HETATM   29  C21 UNK     1      27.211 -10.029  38.930  1.00  0.00     0.213 C 
ENDBRANCH  26  28
ENDBRANCH   8  26
TORSDOF 3
ENDMDL
MODEL 2
REMARK VINA RESULT:      -7.9      3.396      6.541
REMARK  3 active torsions:
REMARK  status: ('A' for Active; 'I' for Inactive)
REMARK    1  A    between atoms: C13_20  and  O3_4 
REMARK    2  A    between atoms: C1_8  and  C10_17 
REMARK    3  A    between atoms: C13_20  and  C6_13 
ROOT
HETATM    1  O1  UNK     1      32.291  -8.992  34.475  1.00  0.00    -0.293 OA
HETATM    2  N1  UNK     1      28.838  -9.920  31.367  1.00  0.00    -0.362 N 
HETATM    3  C1  UNK     1      29.935  -7.995  33.140  1.00  0.00     0.104 C 
HETATM    4  C2  UNK     1      30.481  -9.413  32.998  1.00  0.00     0.024 C 
HETATM    5  C3  UNK     1      29.906 -10.299  32.156  1.00  0.00     0.020 C 
HETATM    6  C4  UNK     1      30.372 -11.724  32.013  1.00  0.00     0.058 C 
HETATM    7  C5  UNK     1      31.176 -12.191  33.220  1.00  0.00     0.014 C 
HETATM    8  C6  UNK     1      28.854  -7.672  32.108  1.00  0.00     0.052 C 
HETATM    9  C7  UNK     1      32.271 -11.195  33.557  1.00  0.00     0.084 C 
HETATM   10  C8  UNK     1      31.710  -9.804  33.755  1.00  0.00     0.158 C 
HETATM   11  C9  UNK     1      28.340  -8.627  31.300  1.00  0.00     0.018 C 
HETATM   12  C12 UNK     1      27.242  -8.423  30.290  1.00  0.00     0.069 C 
HETATM   13  H8  UNK     1      28.436 -10.613  30.747  1.00  0.00     0.165 HD
ENDROOT
BRANCH   3  14
HETATM   14  C10 UNK     1      29.408  -7.778  34.533  1.00  0.00     0.029 A 
HETATM   15  C11 UNK     1      29.851  -6.574  35.279  1.00  0.00     0.194 A 
HETATM   16  O4  UNK     1      30.628  -5.760  34.799  1.00  0.00    -0.287 OA
HETATM   17  C15 UNK     1      29.304  -6.410  36.639  1.00  0.00     0.050 A 
HETATM   18  C16 UNK     1      28.421  -7.370  37.135  1.00  0.00     0.089 A 
HETATM   19  C17 UNK     1      29.660  -5.310  37.423  1.00  0.00     0.042 A 
HETATM   20  O2  UNK     1      28.037  -8.469  36.410  1.00  0.00    -0.321 OA
HETATM   21  C18 UNK     1      27.890  -7.235  38.419  1.00  0.00     0.040 A 
HETATM   22  C14 UNK     1      28.555  -8.608  35.145  1.00  0.00     0.154 A 
HETATM   23  C20 UNK     1      28.246  -6.137  39.203  1.00  0.00     0.026 A 
HETATM   24  C19 UNK     1      29.128  -5.177  38.706  1.00  0.00     0.035 A 
HETATM   25 Cl1  UNK     1      29.561  -3.825  39.680  1.00  0.00    -0.084 Cl
ENDBRANCH   3  14
BRANCH   8  26
HETATM   26  C13 UNK     1      28.441  -6.262  32.010  1.00  0.00     0.291 C 
HETATM   27  O5  UNK     1      27.532  -5.784  32.662  1.00  0.00    -0.260 OA
BRANCH  26  28
HETATM   28  O3  UNK     1      29.235  -5.648  31.100  1.00  0.00    -0.323 OA
HETATM   29  C21 UNK     1      29.895  -4.467  31.570  1.00  0.00     0.213 C 
ENDBRANCH  26  28
ENDBRANCH   8  26
TORSDOF 3
ENDMDL
MODEL 3
REMARK VINA RESULT:      -7.9      1.284      1.332
REMARK  3 active torsions:
REMARK  status: ('A' for Active; 'I' for Inactive)
REMARK    1  A    between atoms: C13_20  and  O3_4 
REMARK    2  A    between atoms: C1_8  and  C10_17 
REMARK    3  A    between atoms: C13_20  and  C6_13 
ROOT
HETATM    1  O1  UNK     1      32.305  -6.968  34.243  1.00  0.00    -0.293 OA
HETATM    2  N1  UNK     1      29.823  -5.369  37.948  1.00  0.00    -0.362 N 
HETATM    3  C1  UNK     1      29.961  -7.317  35.889  1.00  0.00     0.104 C 
HETATM    4  C2  UNK     1      30.961  -6.174  36.031  1.00  0.00     0.024 C 
HETATM    5  C3  UNK     1      30.836  -5.258  37.016  1.00  0.00     0.020 C 
HETATM    6  C4  UNK     1      31.764  -4.082  37.173  1.00  0.00     0.058 C 
HETATM    7  C5  UNK     1      32.503  -3.755  35.881  1.00  0.00     0.014 C 
HETATM    8  C6  UNK     1      28.988  -7.401  37.066  1.00  0.00     0.052 C 
HETATM    9  C7  UNK     1      33.146  -4.999  35.297  1.00  0.00     0.084 C 
HETATM   10  C8  UNK     1      32.133  -6.106  35.104  1.00  0.00     0.158 C 
HETATM   11  C9  UNK     1      28.939  -6.436  38.012  1.00  0.00     0.018 C 
HETATM   12  C12 UNK     1      27.986  -6.399  39.177  1.00  0.00     0.069 C 
HETATM   13  H8  UNK     1      29.765  -4.664  38.673  1.00  0.00     0.165 HD
ENDROOT
BRANCH   3  14
HETATM   14  C10 UNK     1      29.203  -7.187  34.595  1.00  0.00     0.029 A 
HETATM   15  C11 UNK     1      29.371  -8.245  33.566  1.00  0.00     0.194 A 
HETATM   16  O4  UNK     1      30.103  -9.210  33.738  1.00  0.00    -0.287 OA
HETATM   17  C15 UNK     1      28.606  -8.068  32.317  1.00  0.00     0.050 A 
HETATM   18  C16 UNK     1      27.787  -6.948  32.176  1.00  0.00     0.089 A 
HETATM   19  C17 UNK     1      28.696  -9.009  31.288  1.00  0.00     0.042 A 
HETATM   20  O2  UNK     1      27.661  -5.994  33.154  1.00  0.00    -0.321 OA
HETATM   21  C18 UNK     1      27.054  -6.761  31.004  1.00  0.00     0.040 A 
HETATM   22  C14 UNK     1      28.379  -6.172  34.311  1.00  0.00     0.154 A 
HETATM   23  C20 UNK     1      27.143  -7.699  29.974  1.00  0.00     0.026 A 
HETATM   24  C19 UNK     1      27.962  -8.819  30.116  1.00  0.00     0.035 A 
HETATM   25 Cl1  UNK     1      28.066  -9.972  28.842  1.00  0.00    -0.084 Cl
ENDBRANCH   3  14
BRANCH   8  26
HETATM   26  C13 UNK     1      28.147  -8.608  37.138  1.00  0.00     0.291 C 
HETATM   27  O5  UNK     1      27.042  -8.684  36.637  1.00  0.00    -0.260 OA
BRANCH  26  28
HETATM   28  O3  UNK     1      28.821  -9.555  37.833  1.00  0.00    -0.323 OA
HETATM   29  C21 UNK     1      28.219  -9.939  39.075  1.00  0.00     0.213 C 
ENDBRANCH  26  28
ENDBRANCH   8  26
TORSDOF 3
ENDMDL
MODEL 4
REMARK VINA RESULT:      -7.9      1.927      4.160
REMARK  3 active torsions:
REMARK  status: ('A' for Active; 'I' for Inactive)
REMARK    1  A    between atoms: C13_20  and  O3_4 
REMARK    2  A    between atoms: C1_8  and  C10_17 
REMARK    3  A    between atoms: C13_20  and  C6_13 
ROOT
HETATM    1  O1  UNK     1      30.336  -3.767  37.382  1.00  0.00    -0.293 OA
HETATM    2  N1  UNK     1      29.796  -8.380  38.317  1.00  0.00    -0.362 N 
HETATM    3  C1  UNK     1      31.231  -6.450  36.811  1.00  0.00     0.104 C 
HETATM    4  C2  UNK     1      30.066  -6.100  37.731  1.00  0.00     0.024 C 
HETATM    5  C3  UNK     1      29.399  -7.060  38.407  1.00  0.00     0.020 C 
HETATM    6  C4  UNK     1      28.211  -6.777  39.288  1.00  0.00     0.058 C 
HETATM    7  C5  UNK     1      27.550  -5.446  38.953  1.00  0.00     0.014 C 
HETATM    8  C6  UNK     1      31.651  -7.917  36.921  1.00  0.00     0.052 C 
HETATM    9  C7  UNK     1      28.578  -4.331  38.895  1.00  0.00     0.084 C 
HETATM   10  C8  UNK     1      29.698  -4.664  37.934  1.00  0.00     0.158 C 
HETATM   11  C9  UNK     1      30.921  -8.809  37.630  1.00  0.00     0.018 C 
HETATM   12  C12 UNK     1      31.219 -10.279  37.758  1.00  0.00     0.069 C 
HETATM   13  H8  UNK     1      29.271  -9.070  38.842  1.00  0.00     0.165 HD
ENDROOT
BRANCH   3  14
HETATM   14  C10 UNK     1      30.888  -6.112  35.385  1.00  0.00     0.029 A 
HETATM   15  C11 UNK     1      29.623  -6.640  34.816  1.00  0.00     0.194 A 
HETATM   16  O4  UNK     1      28.857  -7.338  35.467  1.00  0.00    -0.287 OA
HETATM   17  C15 UNK     1      29.335  -6.279  33.415  1.00  0.00     0.050 A 
HETATM   18  C16 UNK     1      30.244  -5.480  32.720  1.00  0.00     0.089 A 
HETATM   19  C17 UNK     1      28.169  -6.727  32.789  1.00  0.00     0.042 A 
HETATM   20  O2  UNK     1      31.403  -5.012  33.286  1.00  0.00    -0.321 OA
HETATM   21  C18 UNK     1      29.992  -5.125  31.395  1.00  0.00     0.040 A 
HETATM   22  C14 UNK     1      31.657  -5.357  34.591  1.00  0.00     0.154 A 
HETATM   23  C20 UNK     1      28.828  -5.573  30.767  1.00  0.00     0.026 A 
HETATM   24  C19 UNK     1      27.920  -6.371  31.462  1.00  0.00     0.035 A 
HETATM   25 Cl1  UNK     1      26.487  -6.918  30.682  1.00  0.00    -0.084 Cl
ENDBRANCH   3  14
BRANCH   8  26
HETATM   26  C13 UNK     1      32.911  -8.290  36.258  1.00  0.00     0.291 C 
HETATM   27  O5  UNK     1      32.965  -9.012  35.281  1.00  0.00    -0.260 OA
BRANCH  26  28
HETATM   28  O3  UNK     1      33.933  -7.699  36.922  1.00  0.00    -0.323 OA
HETATM   29  C21 UNK     1      34.795  -6.890  36.113  1.00  0.00     0.213 C 
ENDBRANCH  26  28
ENDBRANCH   8  26
TORSDOF 3
ENDMDL
MODEL 5
REMARK VINA RESULT:      -7.5      1.482      1.555
REMARK  3 active torsions:
REMARK  status: ('A' for Active; 'I' for Inactive)
REMARK    1  A    between atoms: C13_20  and  O3_4 
REMARK    2  A    between atoms: C1_8  and  C10_17 
REMARK    3  A    between atoms: C13_20  and  C6_13 
ROOT
HETATM    1  O1  UNK     1      32.760  -7.498  33.608  1.00  0.00    -0.293 OA
HETATM    2  N1  UNK     1      30.834  -4.965  37.118  1.00  0.00    -0.362 N 
HETATM    3  C1  UNK     1      30.454  -7.110  35.299  1.00  0.00     0.104 C 
HETATM    4  C2  UNK     1      31.693  -6.220  35.301  1.00  0.00     0.024 C 
HETATM    5  C3  UNK     1      31.814  -5.196  36.173  1.00  0.00     0.020 C 
HETATM    6  C4  UNK     1      32.991  -4.256  36.185  1.00  0.00     0.058 C 
HETATM    7  C5  UNK     1      33.741  -4.255  34.859  1.00  0.00     0.014 C 
HETATM    8  C6  UNK     1      29.527  -6.835  36.484  1.00  0.00     0.052 C 
HETATM    9  C7  UNK     1      34.063  -5.671  34.420  1.00  0.00     0.084 C 
HETATM   10  C8  UNK     1      32.818  -6.529  34.364  1.00  0.00     0.158 C 
HETATM   11  C9  UNK     1      29.732  -5.784  37.311  1.00  0.00     0.018 C 
HETATM   12  C12 UNK     1      28.852  -5.399  38.471  1.00  0.00     0.069 C 
HETATM   13  H8  UNK     1      30.962  -4.188  37.756  1.00  0.00     0.165 HD
ENDROOT
BRANCH   3  14
HETATM   14  C10 UNK     1      29.704  -6.955  34.004  1.00  0.00     0.029 A 
HETATM   15  C11 UNK     1      29.597  -8.129  33.101  1.00  0.00     0.194 A 
HETATM   16  O4  UNK     1      30.098  -9.211  33.378  1.00  0.00    -0.287 OA
HETATM   17  C15 UNK     1      28.851  -7.923  31.846  1.00  0.00     0.050 A 
HETATM   18  C16 UNK     1      28.300  -6.668  31.583  1.00  0.00     0.089 A 
HETATM   19  C17 UNK     1      28.694  -8.966  30.930  1.00  0.00     0.042 A 
HETATM   20  O2  UNK     1      28.423  -5.609  32.446  1.00  0.00    -0.321 OA
HETATM   21  C18 UNK     1      27.590  -6.449  30.402  1.00  0.00     0.040 A 
HETATM   22  C14 UNK     1      29.120  -5.817  33.611  1.00  0.00     0.154 A 
HETATM   23  C20 UNK     1      27.433  -7.491  29.486  1.00  0.00     0.026 A 
HETATM   24  C19 UNK     1      27.984  -8.745  29.749  1.00  0.00     0.035 A 
HETATM   25 Cl1  UNK     1      27.785 -10.024  28.615  1.00  0.00    -0.084 Cl
ENDBRANCH   3  14
BRANCH   8  26
HETATM   26  C13 UNK     1      28.436  -7.800  36.702  1.00  0.00     0.291 C 
HETATM   27  O5  UNK     1      27.259  -7.499  36.658  1.00  0.00    -0.260 OA
BRANCH  26  28
HETATM   28  O3  UNK     1      28.984  -9.014  36.945  1.00  0.00    -0.323 OA
HETATM   29  C21 UNK     1      28.988  -9.413  38.321  1.00  0.00     0.213 C 
ENDBRANCH  26  28
ENDBRANCH   8  26
TORSDOF 3
ENDMDL
MODEL 6
REMARK VINA RESULT:      -7.5      1.460      2.075
REMARK  3 active torsions:
REMARK  status: ('A' for Active; 'I' for Inactive)
REMARK    1  A    between atoms: C13_20  and  O3_4 
REMARK    2  A    between atoms: C1_8  and  C10_17 
REMARK    3  A    between atoms: C13_20  and  C6_13 
ROOT
HETATM    1  O1  UNK     1      32.775  -7.440  35.533  1.00  0.00    -0.293 OA
HETATM    2  N1  UNK     1      29.111  -5.440  37.773  1.00  0.00    -0.362 N 
HETATM    3  C1  UNK     1      30.104  -7.806  36.560  1.00  0.00     0.104 C 
HETATM    4  C2  UNK     1      30.866  -6.484  36.570  1.00  0.00     0.024 C 
HETATM    5  C3  UNK     1      30.338  -5.380  37.141  1.00  0.00     0.020 C 
HETATM    6  C4  UNK     1      31.023  -4.039  37.135  1.00  0.00     0.058 C 
HETATM    7  C5  UNK     1      32.073  -3.933  36.035  1.00  0.00     0.014 C 
HETATM    8  C6  UNK     1      28.838  -7.764  37.417  1.00  0.00     0.052 C 
HETATM    9  C7  UNK     1      33.010  -5.126  36.067  1.00  0.00     0.084 C 
HETATM   10  C8  UNK     1      32.246  -6.430  35.995  1.00  0.00     0.158 C 
HETATM   11  C9  UNK     1      28.386  -6.608  37.955  1.00  0.00     0.018 C 
HETATM   12  C12 UNK     1      27.129  -6.453  38.767  1.00  0.00     0.069 C 
HETATM   13  H8  UNK     1      28.750  -4.590  38.190  1.00  0.00     0.165 HD
ENDROOT
BRANCH   3  14
HETATM   14  C10 UNK     1      29.765  -8.200  35.147  1.00  0.00     0.029 A 
HETATM   15  C11 UNK     1      28.827  -7.343  34.379  1.00  0.00     0.194 A 
HETATM   16  O4  UNK     1      28.326  -6.334  34.857  1.00  0.00    -0.287 OA
HETATM   17  C15 UNK     1      28.528  -7.774  33.000  1.00  0.00     0.050 A 
HETATM   18  C16 UNK     1      29.130  -8.932  32.507  1.00  0.00     0.089 A 
HETATM   19  C17 UNK     1      27.658  -7.035  32.195  1.00  0.00     0.042 A 
HETATM   20  O2  UNK     1      29.992  -9.695  33.253  1.00  0.00    -0.321 OA
HETATM   21  C18 UNK     1      28.863  -9.359  31.206  1.00  0.00     0.040 A 
HETATM   22  C14 UNK     1      30.260  -9.281  34.534  1.00  0.00     0.154 A 
HETATM   23  C20 UNK     1      27.993  -8.622  30.400  1.00  0.00     0.026 A 
HETATM   24  C19 UNK     1      27.392  -7.463  30.894  1.00  0.00     0.035 A 
HETATM   25 Cl1  UNK     1      26.321  -6.560  29.894  1.00  0.00    -0.084 Cl
ENDBRANCH   3  14
BRANCH   8  26
HETATM   26  C13 UNK     1      28.170  -9.053  37.663  1.00  0.00     0.291 C 
HETATM   27  O5  UNK     1      27.223  -9.452  37.011  1.00  0.00    -0.260 OA
BRANCH  26  28
HETATM   28  O3  UNK     1      28.790  -9.663  38.701  1.00  0.00    -0.323 OA
HETATM   29  C21 UNK     1      27.932 -10.039  39.784  1.00  0.00     0.213 C 
ENDBRANCH  26  28
ENDBRANCH   8  26
TORSDOF 3
ENDMDL
MODEL 7
REMARK VINA RESULT:      -7.5      2.423      5.023
REMARK  3 active torsions:
REMARK  status: ('A' for Active; 'I' for Inactive)
REMARK    1  A    between atoms: C13_20  and  O3_4 
REMARK    2  A    between atoms: C1_8  and  C10_17 
REMARK    3  A    between atoms: C13_20  and  C6_13 
ROOT
HETATM    1  O1  UNK     1      26.808  -9.502  36.250  1.00  0.00    -0.293 OA
HETATM    2  N1  UNK     1      29.702  -6.118  37.867  1.00  0.00    -0.362 N 
HETATM    3  C1  UNK     1      28.988  -7.717  35.633  1.00  0.00     0.104 C 
HETATM    4  C2  UNK     1      28.351  -7.867  37.011  1.00  0.00     0.024 C 
HETATM    5  C3  UNK     1      28.744  -7.097  38.048  1.00  0.00     0.020 C 
HETATM    6  C4  UNK     1      28.186  -7.237  39.440  1.00  0.00     0.058 C 
HETATM    7  C5  UNK     1      27.546  -8.601  39.669  1.00  0.00     0.014 C 
HETATM    8  C6  UNK     1      29.920  -6.507  35.541  1.00  0.00     0.052 C 
HETATM    9  C7  UNK     1      26.570  -8.933  38.556  1.00  0.00     0.084 C 
HETATM   10  C8  UNK     1      27.229  -8.839  37.197  1.00  0.00     0.158 C 
HETATM   11  C9  UNK     1      30.254  -5.788  36.638  1.00  0.00     0.018 C 
HETATM   12  C12 UNK     1      31.198  -4.616  36.662  1.00  0.00     0.069 C 
HETATM   13  H8  UNK     1      29.969  -5.560  38.669  1.00  0.00     0.165 HD
ENDROOT
BRANCH   3  14
HETATM   14  C10 UNK     1      29.729  -8.974  35.263  1.00  0.00     0.029 A 
HETATM   15  C11 UNK     1      29.427  -9.616  33.959  1.00  0.00     0.194 A 
HETATM   16  O4  UNK     1      28.599  -9.158  33.183  1.00  0.00    -0.287 OA
HETATM   17  C15 UNK     1      30.181 -10.845  33.645  1.00  0.00     0.050 A 
HETATM   18  C16 UNK     1      31.114 -11.322  34.567  1.00  0.00     0.089 A 
HETATM   19  C17 UNK     1      29.969 -11.524  32.443  1.00  0.00     0.042 A 
HETATM   20  O2  UNK     1      31.362 -10.695  35.762  1.00  0.00    -0.321 OA
HETATM   21  C18 UNK     1      31.839 -12.481  34.292  1.00  0.00     0.040 A 
HETATM   22  C14 UNK     1      30.652  -9.553  36.040  1.00  0.00     0.154 A 
HETATM   23  C20 UNK     1      31.628 -13.162  33.091  1.00  0.00     0.026 A 
HETATM   24  C19 UNK     1      30.695 -12.684  32.170  1.00  0.00     0.035 A 
HETATM   25 Cl1  UNK     1      30.441 -13.528  30.692  1.00  0.00    -0.084 Cl
ENDBRANCH   3  14
BRANCH   8  26
HETATM   26  C13 UNK     1      30.389  -6.141  34.195  1.00  0.00     0.291 C 
HETATM   27  O5  UNK     1      31.560  -6.162  33.866  1.00  0.00    -0.260 OA
BRANCH  26  28
HETATM   28  O3  UNK     1      29.313  -5.799  33.447  1.00  0.00    -0.323 OA
HETATM   29  C21 UNK     1      29.612  -5.383  32.109  1.00  0.00     0.213 C 
ENDBRANCH  26  28
ENDBRANCH   8  26
TORSDOF 3
ENDMDL
MODEL 8
REMARK VINA RESULT:      -7.4      1.416      1.801
REMARK  3 active torsions:
REMARK  status: ('A' for Active; 'I' for Inactive)
REMARK    1  A    between atoms: C13_20  and  O3_4 
REMARK    2  A    between atoms: C1_8  and  C10_17 
REMARK    3  A    between atoms: C13_20  and  C6_13 
ROOT
HETATM    1  O1  UNK     1      33.538  -8.668  34.117  1.00  0.00    -0.293 OA
HETATM    2  N1  UNK     1      32.639  -5.392  37.419  1.00  0.00    -0.362 N 
HETATM    3  C1  UNK     1      31.514  -7.335  35.683  1.00  0.00     0.104 C 
HETATM    4  C2  UNK     1      32.999  -6.984  35.701  1.00  0.00     0.024 C 
HETATM    5  C3  UNK     1      33.480  -6.033  36.530  1.00  0.00     0.020 C 
HETATM    6  C4  UNK     1      34.925  -5.611  36.554  1.00  0.00     0.058 C 
HETATM    7  C5  UNK     1      35.652  -5.972  35.264  1.00  0.00     0.014 C 
HETATM    8  C6  UNK     1      30.734  -6.660  36.812  1.00  0.00     0.052 C 
HETATM    9  C7  UNK     1      35.420  -7.429  34.903  1.00  0.00     0.084 C 
HETATM   10  C8  UNK     1      33.943  -7.750  34.830  1.00  0.00     0.158 C 
HETATM   11  C9  UNK     1      31.303  -5.719  37.600  1.00  0.00     0.018 C 
HETATM   12  C12 UNK     1      30.609  -4.961  38.700  1.00  0.00     0.069 C 
HETATM   13  H8  UNK     1      33.038  -4.686  38.027  1.00  0.00     0.165 HD
ENDROOT
BRANCH   3  14
HETATM   14  C10 UNK     1      30.912  -6.983  34.350  1.00  0.00     0.029 A 
HETATM   15  C11 UNK     1      30.249  -8.055  33.566  1.00  0.00     0.194 A 
HETATM   16  O4  UNK     1      30.179  -9.208  33.969  1.00  0.00    -0.287 OA
HETATM   17  C15 UNK     1      29.675  -7.656  32.267  1.00  0.00     0.050 A 
HETATM   18  C16 UNK     1      29.783  -6.326  31.858  1.00  0.00     0.089 A 
HETATM   19  C17 UNK     1      29.030  -8.591  31.455  1.00  0.00     0.042 A 
HETATM   20  O2  UNK     1      30.405  -5.366  32.615  1.00  0.00    -0.321 OA
HETATM   21  C18 UNK     1      29.248  -5.925  30.634  1.00  0.00     0.040 A 
HETATM   22  C14 UNK     1      30.934  -5.753  33.822  1.00  0.00     0.154 A 
HETATM   23  C20 UNK     1      28.604  -6.859  29.820  1.00  0.00     0.026 A 
HETATM   24  C19 UNK     1      28.495  -8.188  30.230  1.00  0.00     0.035 A 
HETATM   25 Cl1  UNK     1      27.699  -9.334  29.222  1.00  0.00    -0.084 Cl
ENDBRANCH   3  14
BRANCH   8  26
HETATM   26  C13 UNK     1      29.352  -7.123  37.023  1.00  0.00     0.291 C 
HETATM   27  O5  UNK     1      28.375  -6.521  36.621  1.00  0.00    -0.260 OA
BRANCH  26  28
HETATM   28  O3  UNK     1      29.395  -8.287  37.715  1.00  0.00    -0.323 OA
HETATM   29  C21 UNK     1      28.193  -9.065  37.667  1.00  0.00     0.213 C 
ENDBRANCH  26  28
ENDBRANCH   8  26
TORSDOF 3
ENDMDL
MODEL 9
REMARK VINA RESULT:      -7.4      2.937      6.003
REMARK  3 active torsions:
REMARK  status: ('A' for Active; 'I' for Inactive)
REMARK    1  A    between atoms: C13_20  and  O3_4 
REMARK    2  A    between atoms: C1_8  and  C10_17 
REMARK    3  A    between atoms: C13_20  and  C6_13 
ROOT
HETATM    1  O1  UNK     1      31.600  -9.435  34.150  1.00  0.00    -0.293 OA
HETATM    2  N1  UNK     1      31.359  -4.723  34.571  1.00  0.00    -0.362 N 
HETATM    3  C1  UNK     1      31.978  -7.161  35.885  1.00  0.00     0.104 C 
HETATM    4  C2  UNK     1      31.421  -7.089  34.466  1.00  0.00     0.024 C 
HETATM    5  C3  UNK     1      31.120  -5.903  33.895  1.00  0.00     0.020 C 
HETATM    6  C4  UNK     1      30.520  -5.777  32.519  1.00  0.00     0.058 C 
HETATM    7  C5  UNK     1      29.844  -7.065  32.065  1.00  0.00     0.014 C 
HETATM    8  C6  UNK     1      32.327  -5.784  36.452  1.00  0.00     0.052 C 
HETATM    9  C7  UNK     1      30.769  -8.254  32.250  1.00  0.00     0.084 C 
HETATM   10  C8  UNK     1      31.267  -8.350  33.675  1.00  0.00     0.158 C 
HETATM   11  C9  UNK     1      31.990  -4.646  35.803  1.00  0.00     0.018 C 
HETATM   12  C12 UNK     1      32.242  -3.247  36.300  1.00  0.00     0.069 C 
HETATM   13  H8  UNK     1      31.121  -3.853  34.107  1.00  0.00     0.165 HD
ENDROOT
BRANCH   3  14
HETATM   14  C10 UNK     1      31.004  -7.866  36.791  1.00  0.00     0.029 A 
HETATM   15  C11 UNK     1      29.610  -7.360  36.864  1.00  0.00     0.194 A 
HETATM   16  O4  UNK     1      29.233  -6.394  36.215  1.00  0.00    -0.287 OA
HETATM   17  C15 UNK     1      28.698  -8.088  37.767  1.00  0.00     0.050 A 
HETATM   18  C16 UNK     1      29.183  -9.183  38.482  1.00  0.00     0.089 A 
HETATM   19  C17 UNK     1      27.367  -7.690  37.906  1.00  0.00     0.042 A 
HETATM   20  O2  UNK     1      30.481  -9.617  38.383  1.00  0.00    -0.321 OA
HETATM   21  C18 UNK     1      28.338  -9.887  39.341  1.00  0.00     0.040 A 
HETATM   22  C14 UNK     1      31.318  -8.930  37.539  1.00  0.00     0.154 A 
HETATM   23  C20 UNK     1      27.007  -9.490  39.482  1.00  0.00     0.026 A 
HETATM   24  C19 UNK     1      26.523  -8.395  38.766  1.00  0.00     0.035 A 
HETATM   25 Cl1  UNK     1      24.881  -7.912  38.945  1.00  0.00    -0.084 Cl
ENDBRANCH   3  14
BRANCH   8  26
HETATM   26  C13 UNK     1      33.091  -5.768  37.711  1.00  0.00     0.291 C 
HETATM   27  O5  UNK     1      32.684  -5.248  38.733  1.00  0.00    -0.260 OA
BRANCH  26  28
HETATM   28  O3  UNK     1      34.264  -6.412  37.506  1.00  0.00    -0.323 OA
HETATM   29  C21 UNK     1      35.191  -5.728  36.655  1.00  0.00     0.213 C 
ENDBRANCH  26  28
ENDBRANCH   8  26
TORSDOF 3
ENDMDL
MODEL 10
REMARK VINA RESULT:      -7.4      2.939      5.689
REMARK  3 active torsions:
REMARK  status: ('A' for Active; 'I' for Inactive)
REMARK    1  A    between atoms: C13_20  and  O3_4 
REMARK    2  A    between atoms: C1_8  and  C10_17 
REMARK    3  A    between atoms: C13_20  and  C6_13 
ROOT
HETATM    1  O1  UNK     1      31.201  -5.422  36.165  1.00  0.00    -0.293 OA
HETATM    2  N1  UNK     1      34.029  -8.879  34.585  1.00  0.00    -0.362 N 
HETATM    3  C1  UNK     1      31.344  -8.035  34.949  1.00  0.00     0.104 C 
HETATM    4  C2  UNK     1      32.549  -7.234  35.433  1.00  0.00     0.024 C 
HETATM    5  C3  UNK     1      33.807  -7.692  35.256  1.00  0.00     0.020 C 
HETATM    6  C4  UNK     1      35.028  -6.969  35.758  1.00  0.00     0.058 C 
HETATM    7  C5  UNK     1      34.697  -5.986  36.875  1.00  0.00     0.014 C 
HETATM    8  C6  UNK     1      31.740  -9.244  34.101  1.00  0.00     0.052 C 
HETATM    9  C7  UNK     1      33.543  -5.085  36.476  1.00  0.00     0.084 C 
HETATM   10  C8  UNK     1      32.333  -5.891  36.056  1.00  0.00     0.158 C 
HETATM   11  C9  UNK     1      33.032  -9.626  33.976  1.00  0.00     0.018 C 
HETATM   12  C12 UNK     1      33.520 -10.826  33.208  1.00  0.00     0.069 C 
HETATM   13  H8  UNK     1      34.987  -9.188  34.471  1.00  0.00     0.165 HD
ENDROOT
BRANCH   3  14
HETATM   14  C10 UNK     1      30.506  -8.472  36.120  1.00  0.00     0.029 A 
HETATM   15  C11 UNK     1      29.094  -8.018  36.191  1.00  0.00     0.194 A 
HETATM   16  O4  UNK     1      28.596  -7.303  35.332  1.00  0.00    -0.287 OA
HETATM   17  C15 UNK     1      28.318  -8.476  37.358  1.00  0.00     0.050 A 
HETATM   18  C16 UNK     1      28.936  -9.291  38.307  1.00  0.00     0.089 A 
HETATM   19  C17 UNK     1      26.981  -8.102  37.516  1.00  0.00     0.042 A 
HETATM   20  O2  UNK     1      30.245  -9.688  38.202  1.00  0.00    -0.321 OA
HETATM   21  C18 UNK     1      28.222  -9.736  39.419  1.00  0.00     0.040 A 
HETATM   22  C14 UNK     1      30.955  -9.254  37.110  1.00  0.00     0.154 A 
HETATM   23  C20 UNK     1      26.886  -9.364  39.579  1.00  0.00     0.026 A 
HETATM   24  C19 UNK     1      26.268  -8.549  38.630  1.00  0.00     0.035 A 
HETATM   25 Cl1  UNK     1      24.620  -8.094  38.833  1.00  0.00    -0.084 Cl
ENDBRANCH   3  14
BRANCH   8  26
HETATM   26  C13 UNK     1      30.650  -9.935  33.392  1.00  0.00     0.291 C 
HETATM   27  O5  UNK     1      30.212 -11.017  33.731  1.00  0.00    -0.260 OA
BRANCH  26  28
HETATM   28  O3  UNK     1      30.261  -9.160  32.351  1.00  0.00    -0.323 OA
HETATM   29  C21 UNK     1      28.844  -9.038  32.182  1.00  0.00     0.213 C 
ENDBRANCH  26  28
ENDBRANCH   8  26
TORSDOF 3
ENDMDL
