MODEL 1
REMARK VINA RESULT:      -8.4      0.000      0.000
REMARK  5 active torsions:
REMARK  status: ('A' for Active; 'I' for Inactive)
REMARK    1  A    between atoms: C1_5  and  N1_4 
REMARK       I    between atoms: C6_10  and  N1_4 
REMARK    2  A    between atoms: C1_5  and  C2_6 
REMARK    3  A    between atoms: C4_8  and  C6_10 
REMARK    4  A    between atoms: C13_17  and  C9_13 
REMARK    5  A    between atoms: C13_17  and  C17_21 
ROOT
HETATM    1  C1  UNK     1      19.181  -6.553  36.242  1.00  0.00     0.092 C 
HETATM    2  C3  UNK     1      19.250  -6.864  37.745  1.00  0.00     0.053 C 
HETATM    3  C11 UNK     1      18.024  -7.265  35.658  1.00  0.00    -0.086 C 
HETATM    4  C18 UNK     1      17.083  -7.845  35.189  1.00  0.00     0.015 C 
ENDROOT
BRANCH   1   5
HETATM    5  N1  UNK     1      18.995  -5.129  36.078  1.00  0.00    -0.337 N 
HETATM    6  C6  UNK     1      19.928  -4.192  36.488  1.00  0.00     0.259 C 
HETATM    7  O2  UNK     1      21.006  -4.433  37.030  1.00  0.00    -0.267 OA
HETATM    8  H3  UNK     1      18.119  -4.812  35.670  1.00  0.00     0.164 HD
BRANCH   6   9
HETATM    9  C4  UNK     1      19.514  -2.813  36.210  1.00  0.00     0.108 A 
HETATM   10  C10 UNK     1      18.875  -2.158  37.190  1.00  0.00     0.037 A 
HETATM   11  C5  UNK     1      18.423  -0.788  37.013  1.00  0.00    -0.000 A 
HETATM   12  C14 UNK     1      17.756  -0.086  38.019  1.00  0.00     0.014 A 
HETATM   13  C8  UNK     1      18.662  -0.156  35.798  1.00  0.00     0.096 A 
HETATM   14  C16 UNK     1      17.342   1.231  37.796  1.00  0.00     0.002 A 
HETATM   15  C15 UNK     1      17.592   1.850  36.569  1.00  0.00     0.010 A 
HETATM   16  C9  UNK     1      18.255   1.155  35.561  1.00  0.00    -0.020 A 
HETATM   17  O1  UNK     1      19.329  -0.834  34.763  1.00  0.00    -0.273 OA
HETATM   18  C12 UNK     1      19.775  -2.148  34.904  1.00  0.00     0.304 A 
HETATM   19  O3  UNK     1      20.356  -2.725  33.991  1.00  0.00    -0.259 OA
BRANCH  16  20
HETATM   20  C13 UNK     1      18.515   1.824  34.253  1.00  0.00     0.067 C 
BRANCH  20  21
HETATM   21  C17 UNK     1      18.323   3.317  34.306  1.00  0.00    -0.032 C 
HETATM   22  C19 UNK     1      18.245   4.104  33.226  1.00  0.00     0.007 C 
ENDBRANCH  20  21
ENDBRANCH  16  20
ENDBRANCH   6   9
ENDBRANCH   1   5
BRANCH   1  23
HETATM   23  C2  UNK     1      20.498  -7.007  35.571  1.00  0.00     0.040 C 
HETATM   24  C7  UNK     1      20.454  -7.060  34.045  1.00  0.00     0.009 C 
ENDBRANCH   1  23
TORSDOF 5
ENDMDL
MODEL 2
REMARK VINA RESULT:      -8.3      0.991      1.776
REMARK  5 active torsions:
REMARK  status: ('A' for Active; 'I' for Inactive)
REMARK    1  A    between atoms: C1_5  and  N1_4 
REMARK       I    between atoms: C6_10  and  N1_4 
REMARK    2  A    between atoms: C1_5  and  C2_6 
REMARK    3  A    between atoms: C4_8  and  C6_10 
REMARK    4  A    between atoms: C13_17  and  C9_13 
REMARK    5  A    between atoms: C13_17  and  C17_21 
ROOT
HETATM    1  C1  UNK     1      19.531  -6.558  37.515  1.00  0.00     0.092 C 
HETATM    2  C3  UNK     1      18.208  -7.336  37.587  1.00  0.00     0.053 C 
HETATM    3  C11 UNK     1      20.419  -7.212  36.529  1.00  0.00    -0.086 C 
HETATM    4  C18 UNK     1      21.136  -7.746  35.727  1.00  0.00     0.015 C 
ENDROOT
BRANCH   1   5
HETATM    5  N1  UNK     1      19.245  -5.210  37.076  1.00  0.00    -0.337 N 
HETATM    6  C6  UNK     1      20.223  -4.244  36.918  1.00  0.00     0.259 C 
HETATM    7  O2  UNK     1      21.427  -4.392  37.121  1.00  0.00    -0.267 OA
HETATM    8  H3  UNK     1      18.273  -4.965  36.912  1.00  0.00     0.164 HD
BRANCH   6   9
HETATM    9  C4  UNK     1      19.686  -2.957  36.461  1.00  0.00     0.108 A 
HETATM   10  C10 UNK     1      19.002  -2.229  37.355  1.00  0.00     0.037 A 
HETATM   11  C5  UNK     1      18.430  -0.941  37.001  1.00  0.00    -0.000 A 
HETATM   12  C14 UNK     1      17.714  -0.165  37.915  1.00  0.00     0.014 A 
HETATM   13  C8  UNK     1      18.600  -0.466  35.706  1.00  0.00     0.096 A 
HETATM   14  C16 UNK     1      17.184   1.068  37.522  1.00  0.00     0.002 A 
HETATM   15  C15 UNK     1      17.366   1.528  36.216  1.00  0.00     0.010 A 
HETATM   16  C9  UNK     1      18.078   0.759  35.299  1.00  0.00    -0.020 A 
HETATM   17  O1  UNK     1      19.315  -1.223  34.760  1.00  0.00    -0.273 OA
HETATM   18  C12 UNK     1      19.875  -2.461  35.070  1.00  0.00     0.304 A 
HETATM   19  O3  UNK     1      20.497  -3.107  34.234  1.00  0.00    -0.259 OA
BRANCH  16  20
HETATM   20  C13 UNK     1      18.266   1.259  33.906  1.00  0.00     0.067 C 
BRANCH  20  21
HETATM   21  C17 UNK     1      18.248   2.762  33.812  1.00  0.00    -0.032 C 
HETATM   22  C19 UNK     1      18.230   3.443  32.660  1.00  0.00     0.007 C 
ENDBRANCH  20  21
ENDBRANCH  16  20
ENDBRANCH   6   9
ENDBRANCH   1   5
BRANCH   1  23
HETATM   23  C2  UNK     1      20.186  -6.544  38.916  1.00  0.00     0.040 C 
HETATM   24  C7  UNK     1      20.594  -7.916  39.446  1.00  0.00     0.009 C 
ENDBRANCH   1  23
TORSDOF 5
ENDMDL
MODEL 3
REMARK VINA RESULT:      -8.2      3.194      8.487
REMARK  5 active torsions:
REMARK  status: ('A' for Active; 'I' for Inactive)
REMARK    1  A    between atoms: C1_5  and  N1_4 
REMARK       I    between atoms: C6_10  and  N1_4 
REMARK    2  A    between atoms: C1_5  and  C2_6 
REMARK    3  A    between atoms: C4_8  and  C6_10 
REMARK    4  A    between atoms: C13_17  and  C9_13 
REMARK    5  A    between atoms: C13_17  and  C17_21 
ROOT
HETATM    1  C1  UNK     1      18.577   5.227  32.277  1.00  0.00     0.092 C 
HETATM    2  C3  UNK     1      17.149   5.794  32.261  1.00  0.00     0.053 C 
HETATM    3  C11 UNK     1      19.485   6.231  32.872  1.00  0.00    -0.086 C 
HETATM    4  C18 UNK     1      20.219   7.049  33.356  1.00  0.00     0.015 C 
ENDROOT
BRANCH   1   5
HETATM    5  N1  UNK     1      18.585   4.034  33.094  1.00  0.00    -0.337 N 
HETATM    6  C6  UNK     1      18.043   2.830  32.679  1.00  0.00     0.259 C 
HETATM    7  O2  UNK     1      17.498   2.615  31.597  1.00  0.00    -0.267 OA
HETATM    8  H3  UNK     1      18.982   4.105  34.026  1.00  0.00     0.164 HD
BRANCH   6   9
HETATM    9  C4  UNK     1      18.177   1.768  33.681  1.00  0.00     0.108 A 
HETATM   10  C10 UNK     1      17.834   2.070  34.941  1.00  0.00     0.037 A 
HETATM   11  C5  UNK     1      17.932   1.087  36.008  1.00  0.00    -0.000 A 
HETATM   12  C14 UNK     1      17.581   1.379  37.327  1.00  0.00     0.014 A 
HETATM   13  C8  UNK     1      18.393  -0.188  35.702  1.00  0.00     0.096 A 
HETATM   14  C16 UNK     1      17.694   0.396  38.315  1.00  0.00     0.002 A 
HETATM   15  C15 UNK     1      18.159  -0.879  37.989  1.00  0.00     0.010 A 
HETATM   16  C9  UNK     1      18.512  -1.177  36.675  1.00  0.00    -0.020 A 
HETATM   17  O1  UNK     1      18.757  -0.516  34.384  1.00  0.00    -0.273 OA
HETATM   18  C12 UNK     1      18.674   0.405  33.341  1.00  0.00     0.304 A 
HETATM   19  O3  UNK     1      18.994   0.103  32.196  1.00  0.00    -0.259 OA
BRANCH  16  20
HETATM   20  C13 UNK     1      19.009  -2.543  36.338  1.00  0.00     0.067 C 
BRANCH  20  21
HETATM   21  C17 UNK     1      20.151  -2.989  37.213  1.00  0.00    -0.032 C 
HETATM   22  C19 UNK     1      20.522  -4.264  37.373  1.00  0.00     0.007 C 
ENDBRANCH  20  21
ENDBRANCH  16  20
ENDBRANCH   6   9
ENDBRANCH   1   5
BRANCH   1  23
HETATM   23  C2  UNK     1      19.004   4.893  30.828  1.00  0.00     0.040 C 
HETATM   24  C7  UNK     1      19.197   6.107  29.921  1.00  0.00     0.009 C 
ENDBRANCH   1  23
TORSDOF 5
ENDMDL
MODEL 4
REMARK VINA RESULT:      -8.2      4.827      9.612
REMARK  5 active torsions:
REMARK  status: ('A' for Active; 'I' for Inactive)
REMARK    1  A    between atoms: C1_5  and  N1_4 
REMARK       I    between atoms: C6_10  and  N1_4 
REMARK    2  A    between atoms: C1_5  and  C2_6 
REMARK    3  A    between atoms: C4_8  and  C6_10 
REMARK    4  A    between atoms: C13_17  and  C9_13 
REMARK    5  A    between atoms: C13_17  and  C17_21 
ROOT
HETATM    1  C1  UNK     1      16.528   7.089  32.439  1.00  0.00     0.092 C 
HETATM    2  C3  UNK     1      17.083   7.547  31.082  1.00  0.00     0.053 C 
HETATM    3  C11 UNK     1      15.056   7.233  32.428  1.00  0.00    -0.086 C 
HETATM    4  C18 UNK     1      13.861   7.351  32.414  1.00  0.00     0.015 C 
ENDROOT
BRANCH   1   5
HETATM    5  N1  UNK     1      16.868   5.697  32.626  1.00  0.00    -0.337 N 
HETATM    6  C6  UNK     1      18.159   5.212  32.510  1.00  0.00     0.259 C 
HETATM    7  O2  UNK     1      19.161   5.874  32.242  1.00  0.00    -0.267 OA
HETATM    8  H3  UNK     1      16.110   5.049  32.819  1.00  0.00     0.164 HD
BRANCH   6   9
HETATM    9  C4  UNK     1      18.251   3.768  32.748  1.00  0.00     0.108 A 
HETATM   10  C10 UNK     1      18.279   3.359  34.025  1.00  0.00     0.037 A 
HETATM   11  C5  UNK     1      18.369   1.949  34.366  1.00  0.00    -0.000 A 
HETATM   12  C14 UNK     1      18.400   1.501  35.688  1.00  0.00     0.014 A 
HETATM   13  C8  UNK     1      18.430   1.015  33.339  1.00  0.00     0.096 A 
HETATM   14  C16 UNK     1      18.488   0.132  35.961  1.00  0.00     0.002 A 
HETATM   15  C15 UNK     1      18.547  -0.791  34.915  1.00  0.00     0.010 A 
HETATM   16  C9  UNK     1      18.519  -0.351  33.594  1.00  0.00    -0.020 A 
HETATM   17  O1  UNK     1      18.403   1.432  31.996  1.00  0.00    -0.273 OA
HETATM   18  C12 UNK     1      18.316   2.777  31.638  1.00  0.00     0.304 A 
HETATM   19  O3  UNK     1      18.292   3.124  30.463  1.00  0.00    -0.259 OA
BRANCH  16  20
HETATM   20  C13 UNK     1      18.583  -1.346  32.484  1.00  0.00     0.067 C 
BRANCH  20  21
HETATM   21  C17 UNK     1      19.993  -1.675  32.068  1.00  0.00    -0.032 C 
HETATM   22  C19 UNK     1      20.402  -1.757  30.797  1.00  0.00     0.007 C 
ENDBRANCH  20  21
ENDBRANCH  16  20
ENDBRANCH   6   9
ENDBRANCH   1   5
BRANCH   1  23
HETATM   23  C2  UNK     1      17.154   7.954  33.559  1.00  0.00     0.040 C 
HETATM   24  C7  UNK     1      16.809   7.510  34.979  1.00  0.00     0.009 C 
ENDBRANCH   1  23
TORSDOF 5
ENDMDL
MODEL 5
REMARK VINA RESULT:      -7.7      4.985      9.963
REMARK  5 active torsions:
REMARK  status: ('A' for Active; 'I' for Inactive)
REMARK    1  A    between atoms: C1_5  and  N1_4 
REMARK       I    between atoms: C6_10  and  N1_4 
REMARK    2  A    between atoms: C1_5  and  C2_6 
REMARK    3  A    between atoms: C4_8  and  C6_10 
REMARK    4  A    between atoms: C13_17  and  C9_13 
REMARK    5  A    between atoms: C13_17  and  C17_21 
ROOT
HETATM    1  C1  UNK     1      18.447   6.719  33.607  1.00  0.00     0.092 C 
HETATM    2  C3  UNK     1      18.338   7.578  32.339  1.00  0.00     0.053 C 
HETATM    3  C11 UNK     1      17.178   6.812  34.360  1.00  0.00    -0.086 C 
HETATM    4  C18 UNK     1      16.144   6.889  34.967  1.00  0.00     0.015 C 
ENDROOT
BRANCH   1   5
HETATM    5  N1  UNK     1      18.667   5.346  33.212  1.00  0.00    -0.337 N 
HETATM    6  C6  UNK     1      17.806   4.652  32.379  1.00  0.00     0.259 C 
HETATM    7  O2  UNK     1      16.773   5.092  31.877  1.00  0.00    -0.267 OA
HETATM    8  H3  UNK     1      19.477   4.869  33.597  1.00  0.00     0.164 HD
BRANCH   6   9
HETATM    9  C4  UNK     1      18.245   3.277  32.121  1.00  0.00     0.108 A 
HETATM   10  C10 UNK     1      18.571   2.966  30.859  1.00  0.00     0.037 A 
HETATM   11  C5  UNK     1      19.016   1.630  30.500  1.00  0.00    -0.000 A 
HETATM   12  C14 UNK     1      19.361   1.283  29.192  1.00  0.00     0.014 A 
HETATM   13  C8  UNK     1      19.099   0.663  31.495  1.00  0.00     0.096 A 
HETATM   14  C16 UNK     1      19.783  -0.018  28.901  1.00  0.00     0.002 A 
HETATM   15  C15 UNK     1      19.861  -0.976  29.915  1.00  0.00     0.010 A 
HETATM   16  C9  UNK     1      19.517  -0.638  31.221  1.00  0.00    -0.020 A 
HETATM   17  O1  UNK     1      18.758   0.977  32.823  1.00  0.00    -0.273 OA
HETATM   18  C12 UNK     1      18.329   2.250  33.196  1.00  0.00     0.304 A 
HETATM   19  O3  UNK     1      18.036   2.508  34.359  1.00  0.00    -0.259 OA
BRANCH  16  20
HETATM   20  C13 UNK     1      19.602  -1.669  32.296  1.00  0.00     0.067 C 
BRANCH  20  21
HETATM   21  C17 UNK     1      20.939  -2.361  32.345  1.00  0.00    -0.032 C 
HETATM   22  C19 UNK     1      21.125  -3.657  32.071  1.00  0.00     0.007 C 
ENDBRANCH  20  21
ENDBRANCH  16  20
ENDBRANCH   6   9
ENDBRANCH   1   5
BRANCH   1  23
HETATM   23  C2  UNK     1      19.629   7.230  34.464  1.00  0.00     0.040 C 
HETATM   24  C7  UNK     1      19.832   8.744  34.439  1.00  0.00     0.009 C 
ENDBRANCH   1  23
TORSDOF 5
ENDMDL
MODEL 6
REMARK VINA RESULT:      -7.7      2.504      8.159
REMARK  5 active torsions:
REMARK  status: ('A' for Active; 'I' for Inactive)
REMARK    1  A    between atoms: C1_5  and  N1_4 
REMARK       I    between atoms: C6_10  and  N1_4 
REMARK    2  A    between atoms: C1_5  and  C2_6 
REMARK    3  A    between atoms: C4_8  and  C6_10 
REMARK    4  A    between atoms: C13_17  and  C9_13 
REMARK    5  A    between atoms: C13_17  and  C17_21 
ROOT
HETATM    1  C1  UNK     1      18.333  -1.316  36.665  1.00  0.00     0.092 C 
HETATM    2  C3  UNK     1      19.553  -0.709  35.956  1.00  0.00     0.053 C 
HETATM    3  C11 UNK     1      17.207  -1.383  35.710  1.00  0.00    -0.086 C 
HETATM    4  C18 UNK     1      16.295  -1.436  34.929  1.00  0.00     0.015 C 
ENDROOT
BRANCH   1   5
HETATM    5  N1  UNK     1      18.673  -2.655  37.094  1.00  0.00    -0.337 N 
HETATM    6  C6  UNK     1      19.574  -3.459  36.418  1.00  0.00     0.259 C 
HETATM    7  O2  UNK     1      20.188  -3.158  35.396  1.00  0.00    -0.267 OA
HETATM    8  H3  UNK     1      18.197  -3.022  37.913  1.00  0.00     0.164 HD
BRANCH   6   9
HETATM    9  C4  UNK     1      19.754  -4.771  37.049  1.00  0.00     0.108 A 
HETATM   10  C10 UNK     1      20.906  -4.981  37.702  1.00  0.00     0.037 A 
HETATM   11  C5  UNK     1      21.182  -6.248  38.359  1.00  0.00    -0.000 A 
HETATM   12  C14 UNK     1      22.374  -6.490  39.044  1.00  0.00     0.014 A 
HETATM   13  C8  UNK     1      20.225  -7.253  38.302  1.00  0.00     0.096 A 
HETATM   14  C16 UNK     1      22.589  -7.727  39.660  1.00  0.00     0.002 A 
HETATM   15  C15 UNK     1      21.614  -8.725  39.592  1.00  0.00     0.010 A 
HETATM   16  C9  UNK     1      20.424  -8.491  38.909  1.00  0.00    -0.020 A 
HETATM   17  O1  UNK     1      19.013  -7.044  37.619  1.00  0.00    -0.273 OA
HETATM   18  C12 UNK     1      18.721  -5.840  36.979  1.00  0.00     0.304 A 
HETATM   19  O3  UNK     1      17.659  -5.673  36.389  1.00  0.00    -0.259 OA
BRANCH  16  20
HETATM   20  C13 UNK     1      19.390  -9.565  38.841  1.00  0.00     0.067 C 
BRANCH  20  21
HETATM   21  C17 UNK     1      19.868 -10.799  38.123  1.00  0.00    -0.032 C 
HETATM   22  C19 UNK     1      20.317 -10.809  36.862  1.00  0.00     0.007 C 
ENDBRANCH  20  21
ENDBRANCH  16  20
ENDBRANCH   6   9
ENDBRANCH   1   5
BRANCH   1  23
HETATM   23  C2  UNK     1      17.966  -0.436  37.883  1.00  0.00     0.040 C 
HETATM   24  C7  UNK     1      17.588   1.004  37.542  1.00  0.00     0.009 C 
ENDBRANCH   1  23
TORSDOF 5
ENDMDL
MODEL 7
REMARK VINA RESULT:      -7.6      6.259      9.310
REMARK  5 active torsions:
REMARK  status: ('A' for Active; 'I' for Inactive)
REMARK    1  A    between atoms: C1_5  and  N1_4 
REMARK       I    between atoms: C6_10  and  N1_4 
REMARK    2  A    between atoms: C1_5  and  C2_6 
REMARK    3  A    between atoms: C4_8  and  C6_10 
REMARK    4  A    between atoms: C13_17  and  C9_13 
REMARK    5  A    between atoms: C13_17  and  C17_21 
ROOT
HETATM    1  C1  UNK     1      20.405  -8.408  37.287  1.00  0.00     0.092 C 
HETATM    2  C3  UNK     1      20.050  -8.080  35.829  1.00  0.00     0.053 C 
HETATM    3  C11 UNK     1      20.343  -9.874  37.477  1.00  0.00    -0.086 C 
HETATM    4  C18 UNK     1      20.293 -11.064  37.626  1.00  0.00     0.015 C 
ENDROOT
BRANCH   1   5
HETATM    5  N1  UNK     1      21.753  -7.952  37.543  1.00  0.00    -0.337 N 
HETATM    6  C6  UNK     1      22.364  -8.056  38.781  1.00  0.00     0.259 C 
HETATM    7  O2  UNK     1      21.862  -8.534  39.798  1.00  0.00    -0.267 OA
HETATM    8  H3  UNK     1      22.252  -7.507  36.778  1.00  0.00     0.164 HD
BRANCH   6   9
HETATM    9  C4  UNK     1      23.731  -7.528  38.789  1.00  0.00     0.108 A 
HETATM   10  C10 UNK     1      24.731  -8.419  38.858  1.00  0.00     0.037 A 
HETATM   11  C5  UNK     1      26.121  -7.996  38.873  1.00  0.00    -0.000 A 
HETATM   12  C14 UNK     1      27.178  -8.906  38.945  1.00  0.00     0.014 A 
HETATM   13  C8  UNK     1      26.408  -6.638  38.817  1.00  0.00     0.096 A 
HETATM   14  C16 UNK     1      28.498  -8.446  38.957  1.00  0.00     0.002 A 
HETATM   15  C15 UNK     1      28.766  -7.076  38.899  1.00  0.00     0.010 A 
HETATM   16  C9  UNK     1      27.717  -6.163  38.829  1.00  0.00    -0.020 A 
HETATM   17  O1  UNK     1      25.368  -5.694  38.747  1.00  0.00    -0.273 OA
HETATM   18  C12 UNK     1      24.025  -6.069  38.730  1.00  0.00     0.304 A 
HETATM   19  O3  UNK     1      23.130  -5.233  38.666  1.00  0.00    -0.259 OA
BRANCH  16  20
HETATM   20  C13 UNK     1      28.015  -4.702  38.769  1.00  0.00     0.067 C 
BRANCH  20  21
HETATM   21  C17 UNK     1      29.488  -4.397  38.841  1.00  0.00    -0.032 C 
HETATM   22  C19 UNK     1      30.200  -3.889  37.828  1.00  0.00     0.007 C 
ENDBRANCH  20  21
ENDBRANCH  16  20
ENDBRANCH   6   9
ENDBRANCH   1   5
BRANCH   1  23
HETATM   23  C2  UNK     1      19.405  -7.693  38.224  1.00  0.00     0.040 C 
HETATM   24  C7  UNK     1      18.325  -6.882  37.511  1.00  0.00     0.009 C 
ENDBRANCH   1  23
TORSDOF 5
ENDMDL
MODEL 8
REMARK VINA RESULT:      -7.5      9.249     13.354
REMARK  5 active torsions:
REMARK  status: ('A' for Active; 'I' for Inactive)
REMARK    1  A    between atoms: C1_5  and  N1_4 
REMARK       I    between atoms: C6_10  and  N1_4 
REMARK    2  A    between atoms: C1_5  and  C2_6 
REMARK    3  A    between atoms: C4_8  and  C6_10 
REMARK    4  A    between atoms: C13_17  and  C9_13 
REMARK    5  A    between atoms: C13_17  and  C17_21 
ROOT
HETATM    1  C1  UNK     1      14.532  11.520  34.081  1.00  0.00     0.092 C 
HETATM    2  C3  UNK     1      15.164  12.904  33.873  1.00  0.00     0.053 C 
HETATM    3  C11 UNK     1      13.242  11.468  33.360  1.00  0.00    -0.086 C 
HETATM    4  C18 UNK     1      12.195  11.430  32.773  1.00  0.00     0.015 C 
ENDROOT
BRANCH   1   5
HETATM    5  N1  UNK     1      15.424  10.523  33.532  1.00  0.00    -0.337 N 
HETATM    6  C6  UNK     1      15.217   9.162  33.674  1.00  0.00     0.259 C 
HETATM    7  O2  UNK     1      14.279   8.631  34.268  1.00  0.00    -0.267 OA
HETATM    8  H3  UNK     1      16.255  10.851  33.048  1.00  0.00     0.164 HD
BRANCH   6   9
HETATM    9  C4  UNK     1      16.255   8.354  33.027  1.00  0.00     0.108 A 
HETATM   10  C10 UNK     1      17.455   8.309  33.624  1.00  0.00     0.037 A 
HETATM   11  C5  UNK     1      18.551   7.538  33.061  1.00  0.00    -0.000 A 
HETATM   12  C14 UNK     1      19.809   7.477  33.665  1.00  0.00     0.014 A 
HETATM   13  C8  UNK     1      18.339   6.839  31.879  1.00  0.00     0.096 A 
HETATM   14  C16 UNK     1      20.829   6.720  33.081  1.00  0.00     0.002 A 
HETATM   15  C15 UNK     1      20.597   6.023  31.893  1.00  0.00     0.010 A 
HETATM   16  C9  UNK     1      19.345   6.081  31.285  1.00  0.00    -0.020 A 
HETATM   17  O1  UNK     1      17.085   6.880  31.244  1.00  0.00    -0.273 OA
HETATM   18  C12 UNK     1      16.016   7.610  31.760  1.00  0.00     0.304 A 
HETATM   19  O3  UNK     1      14.928   7.634  31.194  1.00  0.00    -0.259 OA
BRANCH  16  20
HETATM   20  C13 UNK     1      19.108   5.334  30.016  1.00  0.00     0.067 C 
BRANCH  20  21
HETATM   21  C17 UNK     1      18.993   3.846  30.219  1.00  0.00    -0.032 C 
HETATM   22  C19 UNK     1      18.182   3.271  31.115  1.00  0.00     0.007 C 
ENDBRANCH  20  21
ENDBRANCH  16  20
ENDBRANCH   6   9
ENDBRANCH   1   5
BRANCH   1  23
HETATM   23  C2  UNK     1      14.323  11.282  35.595  1.00  0.00     0.040 C 
HETATM   24  C7  UNK     1      14.383  12.542  36.456  1.00  0.00     0.009 C 
ENDBRANCH   1  23
TORSDOF 5
ENDMDL
MODEL 9
REMARK VINA RESULT:      -7.4      2.014      7.753
REMARK  5 active torsions:
REMARK  status: ('A' for Active; 'I' for Inactive)
REMARK    1  A    between atoms: C1_5  and  N1_4 
REMARK       I    between atoms: C6_10  and  N1_4 
REMARK    2  A    between atoms: C1_5  and  C2_6 
REMARK    3  A    between atoms: C4_8  and  C6_10 
REMARK    4  A    between atoms: C13_17  and  C9_13 
REMARK    5  A    between atoms: C13_17  and  C17_21 
ROOT
HETATM    1  C1  UNK     1      18.241  -0.566  34.987  1.00  0.00     0.092 C 
HETATM    2  C3  UNK     1      18.513  -0.603  33.476  1.00  0.00     0.053 C 
HETATM    3  C11 UNK     1      16.790  -0.381  35.208  1.00  0.00    -0.086 C 
HETATM    4  C18 UNK     1      15.611  -0.232  35.383  1.00  0.00     0.015 C 
ENDROOT
BRANCH   1   5
HETATM    5  N1  UNK     1      18.652  -1.829  35.558  1.00  0.00    -0.337 N 
HETATM    6  C6  UNK     1      19.845  -2.451  35.236  1.00  0.00     0.259 C 
HETATM    7  O2  UNK     1      20.691  -2.031  34.447  1.00  0.00    -0.267 OA
HETATM    8  H3  UNK     1      18.010  -2.286  36.200  1.00  0.00     0.164 HD
BRANCH   6   9
HETATM    9  C4  UNK     1      20.039  -3.719  35.947  1.00  0.00     0.108 A 
HETATM   10  C10 UNK     1      20.047  -4.838  35.209  1.00  0.00     0.037 A 
HETATM   11  C5  UNK     1      20.230  -6.145  35.818  1.00  0.00    -0.000 A 
HETATM   12  C14 UNK     1      20.242  -7.323  35.070  1.00  0.00     0.014 A 
HETATM   13  C8  UNK     1      20.399  -6.222  37.196  1.00  0.00     0.096 A 
HETATM   14  C16 UNK     1      20.422  -8.555  35.708  1.00  0.00     0.002 A 
HETATM   15  C15 UNK     1      20.590  -8.613  37.093  1.00  0.00     0.010 A 
HETATM   16  C9  UNK     1      20.579  -7.441  37.845  1.00  0.00    -0.020 A 
HETATM   17  O1  UNK     1      20.391  -5.055  37.980  1.00  0.00    -0.273 OA
HETATM   18  C12 UNK     1      20.217  -3.789  37.423  1.00  0.00     0.304 A 
HETATM   19  O3  UNK     1      20.214  -2.780  38.121  1.00  0.00    -0.259 OA
BRANCH  16  20
HETATM   20  C13 UNK     1      20.758  -7.514  39.325  1.00  0.00     0.067 C 
BRANCH  20  21
HETATM   21  C17 UNK     1      22.169  -7.224  39.763  1.00  0.00    -0.032 C 
HETATM   22  C19 UNK     1      23.252  -7.824  39.256  1.00  0.00     0.007 C 
ENDBRANCH  20  21
ENDBRANCH  16  20
ENDBRANCH   6   9
ENDBRANCH   1   5
BRANCH   1  23
HETATM   23  C2  UNK     1      19.042   0.598  35.616  1.00  0.00     0.040 C 
HETATM   24  C7  UNK     1      18.574   1.993  35.207  1.00  0.00     0.009 C 
ENDBRANCH   1  23
TORSDOF 5
ENDMDL
MODEL 10
REMARK VINA RESULT:      -7.4      3.550      6.307
REMARK  5 active torsions:
REMARK  status: ('A' for Active; 'I' for Inactive)
REMARK    1  A    between atoms: C1_5  and  N1_4 
REMARK       I    between atoms: C6_10  and  N1_4 
REMARK    2  A    between atoms: C1_5  and  C2_6 
REMARK    3  A    between atoms: C4_8  and  C6_10 
REMARK    4  A    between atoms: C13_17  and  C9_13 
REMARK    5  A    between atoms: C13_17  and  C17_21 
ROOT
HETATM    1  C1  UNK     1      18.048  -0.471  36.077  1.00  0.00     0.092 C 
HETATM    2  C3  UNK     1      16.792  -1.252  35.666  1.00  0.00     0.053 C 
HETATM    3  C11 UNK     1      19.237  -1.321  35.852  1.00  0.00    -0.086 C 
HETATM    4  C18 UNK     1      20.200  -2.015  35.667  1.00  0.00     0.015 C 
ENDROOT
BRANCH   1   5
HETATM    5  N1  UNK     1      18.144   0.710  35.249  1.00  0.00    -0.337 N 
HETATM    6  C6  UNK     1      18.151   0.664  33.865  1.00  0.00     0.259 C 
HETATM    7  O2  UNK     1      18.080  -0.351  33.174  1.00  0.00    -0.267 OA
HETATM    8  H3  UNK     1      18.243   1.607  35.717  1.00  0.00     0.164 HD
BRANCH   6   9
HETATM    9  C4  UNK     1      18.253   1.992  33.250  1.00  0.00     0.108 A 
HETATM   10  C10 UNK     1      18.111   3.052  34.058  1.00  0.00     0.037 A 
HETATM   11  C5  UNK     1      18.193   4.409  33.545  1.00  0.00    -0.000 A 
HETATM   12  C14 UNK     1      18.048   5.529  34.368  1.00  0.00     0.014 A 
HETATM   13  C8  UNK     1      18.424   4.599  32.188  1.00  0.00     0.096 A 
HETATM   14  C16 UNK     1      18.136   6.813  33.822  1.00  0.00     0.002 A 
HETATM   15  C15 UNK     1      18.369   6.984  32.456  1.00  0.00     0.010 A 
HETATM   16  C9  UNK     1      18.513   5.872  31.630  1.00  0.00    -0.020 A 
HETATM   17  O1  UNK     1      18.573   3.494  31.331  1.00  0.00    -0.273 OA
HETATM   18  C12 UNK     1      18.499   2.181  31.794  1.00  0.00     0.304 A 
HETATM   19  O3  UNK     1      18.633   1.228  31.033  1.00  0.00    -0.259 OA
BRANCH  16  20
HETATM   20  C13 UNK     1      18.760   6.065  30.171  1.00  0.00     0.067 C 
BRANCH  20  21
HETATM   21  C17 UNK     1      20.219   5.986  29.804  1.00  0.00    -0.032 C 
HETATM   22  C19 UNK     1      21.208   5.815  30.689  1.00  0.00     0.007 C 
ENDBRANCH  20  21
ENDBRANCH  16  20
ENDBRANCH   6   9
ENDBRANCH   1   5
BRANCH   1  23
HETATM   23  C2  UNK     1      17.933  -0.077  37.569  1.00  0.00     0.040 C 
HETATM   24  C7  UNK     1      17.305   1.292  37.823  1.00  0.00     0.009 C 
ENDBRANCH   1  23
TORSDOF 5
ENDMDL
