MODEL 1
REMARK VINA RESULT:      -7.6      0.000      0.000
REMARK  7 active torsions:
REMARK  status: ('A' for Active; 'I' for Inactive)
REMARK    1  A    between atoms: C11_18  and  O3_3 
REMARK    2  A    between atoms: C19_26  and  O3_3 
REMARK    3  A    between atoms: C22_29  and  O6_6 
REMARK    4  A    between atoms: C23_30  and  O6_6 
REMARK    5  A    between atoms: C1_8  and  C10_17 
REMARK    6  A    between atoms: C11_18  and  C6_13 
REMARK    7  A    between atoms: C19_26  and  C22_29 
ROOT
HETATM    1  O1  UNK     1      29.313  -5.239  32.097  1.00  0.00    -0.293 OA
HETATM    2  N1  UNK     1      28.984  -9.952  31.769  1.00  0.00    -0.362 N 
HETATM    3  C1  UNK     1      30.190  -7.782  33.140  1.00  0.00     0.104 C 
HETATM    4  C2  UNK     1      29.134  -7.606  32.054  1.00  0.00     0.024 C 
HETATM    5  C3  UNK     1      28.571  -8.674  31.449  1.00  0.00     0.020 C 
HETATM    6  C4  UNK     1      27.489  -8.560  30.408  1.00  0.00     0.058 C 
HETATM    7  C5  UNK     1      26.761  -7.224  30.481  1.00  0.00     0.014 C 
HETATM    8  C6  UNK     1      30.647  -9.235  33.293  1.00  0.00     0.052 C 
HETATM    9  C7  UNK     1      27.749  -6.070  30.498  1.00  0.00     0.084 C 
HETATM   10  C8  UNK     1      28.761  -6.226  31.612  1.00  0.00     0.158 C 
HETATM   11  C9  UNK     1      30.032 -10.242  32.631  1.00  0.00     0.018 C 
HETATM   12  C13 UNK     1      30.388 -11.703  32.703  1.00  0.00     0.069 C 
HETATM   13  H8  UNK     1      28.546 -10.726  31.283  1.00  0.00     0.165 HD
ENDROOT
BRANCH   3  14
HETATM   14  C10 UNK     1      29.676  -7.256  34.453  1.00  0.00     0.029 A 
HETATM   15  C12 UNK     1      30.461  -6.208  35.155  1.00  0.00     0.194 A 
HETATM   16  O5  UNK     1      31.505  -5.762  34.698  1.00  0.00    -0.287 OA
HETATM   17  C15 UNK     1      29.914  -5.731  36.438  1.00  0.00     0.048 A 
HETATM   18  C16 UNK     1      28.718  -6.275  36.911  1.00  0.00     0.089 A 
HETATM   19  C17 UNK     1      30.578  -4.747  37.173  1.00  0.00     0.018 A 
HETATM   20  O2  UNK     1      28.024  -7.243  36.229  1.00  0.00    -0.321 OA
HETATM   21  C18 UNK     1      28.182  -5.838  38.122  1.00  0.00     0.038 A 
HETATM   22  C14 UNK     1      28.546  -7.679  35.036  1.00  0.00     0.154 A 
HETATM   23  C21 UNK     1      28.844  -4.855  38.858  1.00  0.00     0.003 A 
HETATM   24  C20 UNK     1      30.040  -4.311  38.385  1.00  0.00     0.001 A 
ENDBRANCH   3  14
BRANCH   8  25
HETATM   25  C11 UNK     1      31.794  -9.461  34.191  1.00  0.00     0.292 C 
HETATM   26  O4  UNK     1      32.953  -9.364  33.831  1.00  0.00    -0.259 OA
BRANCH  25  27
HETATM   27  O3  UNK     1      31.319  -9.778  35.418  1.00  0.00    -0.316 OA
BRANCH  27  28
HETATM   28  C19 UNK     1      32.212  -9.502  36.503  1.00  0.00     0.205 C 
BRANCH  28  29
HETATM   29  C22 UNK     1      31.444  -8.806  37.610  1.00  0.00     0.194 C 
BRANCH  29  30
HETATM   30  O6  UNK     1      32.256  -7.776  38.161  1.00  0.00    -0.389 OA
BRANCH  30  31
HETATM   31  C23 UNK     1      33.398  -7.526  37.354  1.00  0.00     0.163 C 
HETATM   32  C24 UNK     1      33.940  -6.150  37.679  1.00  0.00     0.033 C 
ENDBRANCH  30  31
ENDBRANCH  29  30
ENDBRANCH  28  29
ENDBRANCH  27  28
ENDBRANCH  25  27
ENDBRANCH   8  25
TORSDOF 7
ENDMDL
MODEL 2
REMARK VINA RESULT:      -7.5      2.087      5.824
REMARK  7 active torsions:
REMARK  status: ('A' for Active; 'I' for Inactive)
REMARK    1  A    between atoms: C11_18  and  O3_3 
REMARK    2  A    between atoms: C19_26  and  O3_3 
REMARK    3  A    between atoms: C22_29  and  O6_6 
REMARK    4  A    between atoms: C23_30  and  O6_6 
REMARK    5  A    between atoms: C1_8  and  C10_17 
REMARK    6  A    between atoms: C11_18  and  C6_13 
REMARK    7  A    between atoms: C19_26  and  C22_29 
ROOT
HETATM    1  O1  UNK     1      28.110  -9.597  36.181  1.00  0.00    -0.293 OA
HETATM    2  N1  UNK     1      29.245  -5.268  37.731  1.00  0.00    -0.362 N 
HETATM    3  C1  UNK     1      29.685  -7.224  35.724  1.00  0.00     0.104 C 
HETATM    4  C2  UNK     1      28.663  -7.386  36.844  1.00  0.00     0.024 C 
HETATM    5  C3  UNK     1      28.473  -6.413  37.761  1.00  0.00     0.020 C 
HETATM    6  C4  UNK     1      27.442  -6.498  38.856  1.00  0.00     0.058 C 
HETATM    7  C5  UNK     1      26.340  -7.497  38.530  1.00  0.00     0.014 C 
HETATM    8  C6  UNK     1      30.559  -5.977  35.894  1.00  0.00     0.052 C 
HETATM    9  C7  UNK     1      26.928  -8.832  38.107  1.00  0.00     0.084 C 
HETATM   10  C8  UNK     1      27.902  -8.668  36.961  1.00  0.00     0.158 C 
HETATM   11  C9  UNK     1      30.302  -5.061  36.856  1.00  0.00     0.018 C 
HETATM   12  C13 UNK     1      31.083  -3.802  37.117  1.00  0.00     0.069 C 
HETATM   13  H8  UNK     1      29.080  -4.567  38.444  1.00  0.00     0.165 HD
ENDROOT
BRANCH   3  14
HETATM   14  C10 UNK     1      28.992  -7.196  34.389  1.00  0.00     0.029 A 
HETATM   15  C12 UNK     1      29.334  -8.241  33.390  1.00  0.00     0.194 A 
HETATM   16  O5  UNK     1      30.157  -9.117  33.620  1.00  0.00    -0.287 OA
HETATM   17  C15 UNK     1      28.628  -8.166  32.097  1.00  0.00     0.048 A 
HETATM   18  C16 UNK     1      27.699  -7.145  31.890  1.00  0.00     0.089 A 
HETATM   19  C17 UNK     1      28.880  -9.103  31.093  1.00  0.00     0.018 A 
HETATM   20  O2  UNK     1      27.412  -6.199  32.842  1.00  0.00    -0.321 OA
HETATM   21  C18 UNK     1      27.019  -7.055  30.675  1.00  0.00     0.038 A 
HETATM   22  C14 UNK     1      28.079  -6.281  34.040  1.00  0.00     0.154 A 
HETATM   23  C21 UNK     1      27.270  -7.990  29.670  1.00  0.00     0.003 A 
HETATM   24  C20 UNK     1      28.198  -9.011  29.878  1.00  0.00     0.001 A 
ENDBRANCH   3  14
BRANCH   8  25
HETATM   25  C11 UNK     1      31.689  -5.848  34.957  1.00  0.00     0.292 C 
HETATM   26  O4  UNK     1      31.727  -5.016  34.069  1.00  0.00    -0.259 OA
BRANCH  25  27
HETATM   27  O3  UNK     1      32.614  -6.785  35.271  1.00  0.00    -0.316 OA
BRANCH  27  28
HETATM   28  C19 UNK     1      33.741  -6.301  36.009  1.00  0.00     0.205 C 
BRANCH  28  29
HETATM   29  C22 UNK     1      33.810  -7.027  37.339  1.00  0.00     0.194 C 
BRANCH  29  30
HETATM   30  O6  UNK     1      33.007  -8.199  37.269  1.00  0.00    -0.389 OA
BRANCH  30  31
HETATM   31  C23 UNK     1      32.092  -8.269  38.353  1.00  0.00     0.163 C 
HETATM   32  C24 UNK     1      31.268  -9.533  38.223  1.00  0.00     0.033 C 
ENDBRANCH  30  31
ENDBRANCH  29  30
ENDBRANCH  28  29
ENDBRANCH  27  28
ENDBRANCH  25  27
ENDBRANCH   8  25
TORSDOF 7
ENDMDL
MODEL 3
REMARK VINA RESULT:      -7.5      1.071      1.398
REMARK  7 active torsions:
REMARK  status: ('A' for Active; 'I' for Inactive)
REMARK    1  A    between atoms: C11_18  and  O3_3 
REMARK    2  A    between atoms: C19_26  and  O3_3 
REMARK    3  A    between atoms: C22_29  and  O6_6 
REMARK    4  A    between atoms: C23_30  and  O6_6 
REMARK    5  A    between atoms: C1_8  and  C10_17 
REMARK    6  A    between atoms: C11_18  and  C6_13 
REMARK    7  A    between atoms: C19_26  and  C22_29 
ROOT
HETATM    1  O1  UNK     1      29.415  -5.288  31.917  1.00  0.00    -0.293 OA
HETATM    2  N1  UNK     1      28.971  -9.991  31.581  1.00  0.00    -0.362 N 
HETATM    3  C1  UNK     1      30.287  -7.854  32.904  1.00  0.00     0.104 C 
HETATM    4  C2  UNK     1      29.184  -7.650  31.871  1.00  0.00     0.024 C 
HETATM    5  C3  UNK     1      28.571  -8.702  31.288  1.00  0.00     0.020 C 
HETATM    6  C4  UNK     1      27.444  -8.559  30.300  1.00  0.00     0.058 C 
HETATM    7  C5  UNK     1      26.749  -7.209  30.414  1.00  0.00     0.014 C 
HETATM    8  C6  UNK     1      30.720  -9.318  33.028  1.00  0.00     0.052 C 
HETATM    9  C7  UNK     1      27.760  -6.076  30.390  1.00  0.00     0.084 C 
HETATM   10  C8  UNK     1      28.820  -6.260  31.453  1.00  0.00     0.158 C 
HETATM   11  C9  UNK     1      30.052 -10.308  32.391  1.00  0.00     0.018 C 
HETATM   12  C13 UNK     1      30.380 -11.776  32.439  1.00  0.00     0.069 C 
HETATM   13  H8  UNK     1      28.494 -10.753  31.113  1.00  0.00     0.165 HD
ENDROOT
BRANCH   3  14
HETATM   14  C10 UNK     1      29.847  -7.326  34.243  1.00  0.00     0.029 A 
HETATM   15  C12 UNK     1      30.670  -6.278  34.899  1.00  0.00     0.194 A 
HETATM   16  O5  UNK     1      31.689  -5.835  34.384  1.00  0.00    -0.287 OA
HETATM   17  C15 UNK     1      30.196  -5.798  36.209  1.00  0.00     0.048 A 
HETATM   18  C16 UNK     1      29.027  -6.340  36.748  1.00  0.00     0.089 A 
HETATM   19  C17 UNK     1      30.901  -4.814  36.906  1.00  0.00     0.018 A 
HETATM   20  O2  UNK     1      28.295  -7.307  36.107  1.00  0.00    -0.321 OA
HETATM   21  C18 UNK     1      28.559  -5.899  37.986  1.00  0.00     0.038 A 
HETATM   22  C14 UNK     1      28.750  -7.746  34.888  1.00  0.00     0.154 A 
HETATM   23  C21 UNK     1      29.262  -4.917  38.683  1.00  0.00     0.003 A 
HETATM   24  C20 UNK     1      30.431  -4.376  38.145  1.00  0.00     0.001 A 
ENDBRANCH   3  14
BRANCH   8  25
HETATM   25  C11 UNK     1      31.902  -9.573  33.870  1.00  0.00     0.292 C 
HETATM   26  O4  UNK     1      31.837 -10.069  34.980  1.00  0.00    -0.259 OA
BRANCH  25  27
HETATM   27  O3  UNK     1      33.003  -9.168  33.194  1.00  0.00    -0.316 OA
BRANCH  27  28
HETATM   28  C19 UNK     1      34.228  -9.238  33.932  1.00  0.00     0.205 C 
BRANCH  28  29
HETATM   29  C22 UNK     1      34.637  -7.837  34.345  1.00  0.00     0.194 C 
BRANCH  29  30
HETATM   30  O6  UNK     1      34.239  -7.616  35.692  1.00  0.00    -0.389 OA
BRANCH  30  31
HETATM   31  C23 UNK     1      34.723  -6.374  36.181  1.00  0.00     0.163 C 
HETATM   32  C24 UNK     1      34.297  -6.211  37.625  1.00  0.00     0.033 C 
ENDBRANCH  30  31
ENDBRANCH  29  30
ENDBRANCH  28  29
ENDBRANCH  27  28
ENDBRANCH  25  27
ENDBRANCH   8  25
TORSDOF 7
ENDMDL
MODEL 4
REMARK VINA RESULT:      -7.5      2.113      5.797
REMARK  7 active torsions:
REMARK  status: ('A' for Active; 'I' for Inactive)
REMARK    1  A    between atoms: C11_18  and  O3_3 
REMARK    2  A    between atoms: C19_26  and  O3_3 
REMARK    3  A    between atoms: C22_29  and  O6_6 
REMARK    4  A    between atoms: C23_30  and  O6_6 
REMARK    5  A    between atoms: C1_8  and  C10_17 
REMARK    6  A    between atoms: C11_18  and  C6_13 
REMARK    7  A    between atoms: C19_26  and  C22_29 
ROOT
HETATM    1  O1  UNK     1      31.562  -5.077  33.972  1.00  0.00    -0.293 OA
HETATM    2  N1  UNK     1      32.280  -8.508  37.158  1.00  0.00    -0.362 N 
HETATM    3  C1  UNK     1      30.376  -7.221  35.495  1.00  0.00     0.104 C 
HETATM    4  C2  UNK     1      31.861  -6.873  35.496  1.00  0.00     0.024 C 
HETATM    5  C3  UNK     1      32.731  -7.534  36.289  1.00  0.00     0.020 C 
HETATM    6  C4  UNK     1      34.213  -7.267  36.293  1.00  0.00     0.058 C 
HETATM    7  C5  UNK     1      34.677  -6.587  35.011  1.00  0.00     0.014 C 
HETATM    8  C6  UNK     1      29.999  -8.215  36.597  1.00  0.00     0.052 C 
HETATM    9  C7  UNK     1      33.816  -5.376  34.698  1.00  0.00     0.084 C 
HETATM   10  C8  UNK     1      32.348  -5.741  34.648  1.00  0.00     0.158 C 
HETATM   11  C9  UNK     1      30.942  -8.818  37.357  1.00  0.00     0.018 C 
HETATM   12  C13 UNK     1      30.695  -9.809  38.463  1.00  0.00     0.069 C 
HETATM   13  H8  UNK     1      32.963  -8.972  37.745  1.00  0.00     0.165 HD
ENDROOT
BRANCH   3  14
HETATM   14  C10 UNK     1      29.970  -7.758  34.149  1.00  0.00     0.029 A 
HETATM   15  C12 UNK     1      28.816  -7.132  33.453  1.00  0.00     0.194 A 
HETATM   16  O5  UNK     1      28.191  -6.199  33.940  1.00  0.00    -0.287 OA
HETATM   17  C15 UNK     1      28.459  -7.698  32.139  1.00  0.00     0.048 A 
HETATM   18  C16 UNK     1      29.207  -8.762  31.633  1.00  0.00     0.089 A 
HETATM   19  C17 UNK     1      27.390  -7.178  31.407  1.00  0.00     0.018 A 
HETATM   20  O2  UNK     1      30.268  -9.311  32.310  1.00  0.00    -0.321 OA
HETATM   21  C18 UNK     1      28.888  -9.313  30.391  1.00  0.00     0.038 A 
HETATM   22  C14 UNK     1      30.587  -8.774  33.533  1.00  0.00     0.154 A 
HETATM   23  C21 UNK     1      27.819  -8.795  29.658  1.00  0.00     0.003 A 
HETATM   24  C20 UNK     1      27.072  -7.731  30.165  1.00  0.00     0.001 A 
ENDBRANCH   3  14
BRANCH   8  25
HETATM   25  C11 UNK     1      28.557  -8.461  36.780  1.00  0.00     0.292 C 
HETATM   26  O4  UNK     1      28.027  -9.530  36.541  1.00  0.00    -0.259 OA
BRANCH  25  27
HETATM   27  O3  UNK     1      27.985  -7.324  37.240  1.00  0.00    -0.316 OA
BRANCH  27  28
HETATM   28  C19 UNK     1      27.599  -7.353  38.619  1.00  0.00     0.205 C 
BRANCH  28  29
HETATM   29  C22 UNK     1      28.486  -6.402  39.400  1.00  0.00     0.194 C 
BRANCH  29  30
HETATM   30  O6  UNK     1      28.212  -5.069  38.988  1.00  0.00    -0.389 OA
BRANCH  30  31
HETATM   31  C23 UNK     1      29.375  -4.255  39.052  1.00  0.00     0.163 C 
HETATM   32  C24 UNK     1      30.554  -5.036  38.510  1.00  0.00     0.033 C 
ENDBRANCH  30  31
ENDBRANCH  29  30
ENDBRANCH  28  29
ENDBRANCH  27  28
ENDBRANCH  25  27
ENDBRANCH   8  25
TORSDOF 7
ENDMDL
MODEL 5
REMARK VINA RESULT:      -7.5      1.815      3.493
REMARK  7 active torsions:
REMARK  status: ('A' for Active; 'I' for Inactive)
REMARK    1  A    between atoms: C11_18  and  O3_3 
REMARK    2  A    between atoms: C19_26  and  O3_3 
REMARK    3  A    between atoms: C22_29  and  O6_6 
REMARK    4  A    between atoms: C23_30  and  O6_6 
REMARK    5  A    between atoms: C1_8  and  C10_17 
REMARK    6  A    between atoms: C11_18  and  C6_13 
REMARK    7  A    between atoms: C19_26  and  C22_29 
ROOT
HETATM    1  O1  UNK     1      29.654  -5.292  31.373  1.00  0.00    -0.293 OA
HETATM    2  N1  UNK     1      28.869  -9.961  31.484  1.00  0.00    -0.362 N 
HETATM    3  C1  UNK     1      30.479  -7.837  32.454  1.00  0.00     0.104 C 
HETATM    4  C2  UNK     1      29.268  -7.628  31.551  1.00  0.00     0.024 C 
HETATM    5  C3  UNK     1      28.518  -8.672  31.137  1.00  0.00     0.020 C 
HETATM    6  C4  UNK     1      27.284  -8.519  30.288  1.00  0.00     0.058 C 
HETATM    7  C5  UNK     1      26.698  -7.116  30.375  1.00  0.00     0.014 C 
HETATM    8  C6  UNK     1      30.830  -9.315  32.643  1.00  0.00     0.052 C 
HETATM    9  C7  UNK     1      27.768  -6.066  30.133  1.00  0.00     0.084 C 
HETATM   10  C8  UNK     1      28.943  -6.249  31.069  1.00  0.00     0.158 C 
HETATM   11  C9  UNK     1      30.023 -10.297  32.178  1.00  0.00     0.018 C 
HETATM   12  C13 UNK     1      30.260 -11.778  32.305  1.00  0.00     0.069 C 
HETATM   13  H8  UNK     1      28.288 -10.718  31.143  1.00  0.00     0.165 HD
ENDROOT
BRANCH   3  14
HETATM   14  C10 UNK     1      30.251  -7.180  33.789  1.00  0.00     0.029 A 
HETATM   15  C12 UNK     1      31.250  -6.196  34.276  1.00  0.00     0.194 A 
HETATM   16  O5  UNK     1      32.247  -5.905  33.628  1.00  0.00    -0.287 OA
HETATM   17  C15 UNK     1      30.979  -5.585  35.590  1.00  0.00     0.048 A 
HETATM   18  C16 UNK     1      29.827  -5.954  36.286  1.00  0.00     0.089 A 
HETATM   19  C17 UNK     1      31.860  -4.648  36.136  1.00  0.00     0.018 A 
HETATM   20  O2  UNK     1      28.927  -6.869  35.797  1.00  0.00    -0.321 OA
HETATM   21  C18 UNK     1      29.549  -5.388  37.530  1.00  0.00     0.038 A 
HETATM   22  C14 UNK     1      29.194  -7.431  34.573  1.00  0.00     0.154 A 
HETATM   23  C21 UNK     1      30.428  -4.452  38.077  1.00  0.00     0.003 A 
HETATM   24  C20 UNK     1      31.580  -4.083  37.381  1.00  0.00     0.001 A 
ENDBRANCH   3  14
BRANCH   8  25
HETATM   25  C11 UNK     1      32.092  -9.595  33.350  1.00  0.00     0.292 C 
HETATM   26  O4  UNK     1      32.144 -10.163  34.425  1.00  0.00    -0.259 OA
BRANCH  25  27
HETATM   27  O3  UNK     1      33.115  -9.119  32.602  1.00  0.00    -0.316 OA
BRANCH  27  28
HETATM   28  C19 UNK     1      33.454  -9.915  31.461  1.00  0.00     0.205 C 
BRANCH  28  29
HETATM   29  C22 UNK     1      33.532  -9.020  30.239  1.00  0.00     0.194 C 
BRANCH  29  30
HETATM   30  O6  UNK     1      32.963  -9.701  29.128  1.00  0.00    -0.389 OA
BRANCH  30  31
HETATM   31  C23 UNK     1      31.586  -9.388  28.976  1.00  0.00     0.163 C 
HETATM   32  C24 UNK     1      31.448  -7.921  28.626  1.00  0.00     0.033 C 
ENDBRANCH  30  31
ENDBRANCH  29  30
ENDBRANCH  28  29
ENDBRANCH  27  28
ENDBRANCH  25  27
ENDBRANCH   8  25
TORSDOF 7
ENDMDL
MODEL 6
REMARK VINA RESULT:      -7.4      1.731      2.181
REMARK  7 active torsions:
REMARK  status: ('A' for Active; 'I' for Inactive)
REMARK    1  A    between atoms: C11_18  and  O3_3 
REMARK    2  A    between atoms: C19_26  and  O3_3 
REMARK    3  A    between atoms: C22_29  and  O6_6 
REMARK    4  A    between atoms: C23_30  and  O6_6 
REMARK    5  A    between atoms: C1_8  and  C10_17 
REMARK    6  A    between atoms: C11_18  and  C6_13 
REMARK    7  A    between atoms: C19_26  and  C22_29 
ROOT
HETATM    1  O1  UNK     1      27.548  -5.906  33.100  1.00  0.00    -0.293 OA
HETATM    2  N1  UNK     1      30.804  -8.810  31.258  1.00  0.00    -0.362 N 
HETATM    3  C1  UNK     1      30.094  -7.206  33.487  1.00  0.00     0.104 C 
HETATM    4  C2  UNK     1      29.183  -7.421  32.283  1.00  0.00     0.024 C 
HETATM    5  C3  UNK     1      29.557  -8.216  31.258  1.00  0.00     0.020 C 
HETATM    6  C4  UNK     1      28.678  -8.504  30.070  1.00  0.00     0.058 C 
HETATM    7  C5  UNK     1      27.206  -8.249  30.371  1.00  0.00     0.014 C 
HETATM    8  C6  UNK     1      31.488  -7.808  33.290  1.00  0.00     0.052 C 
HETATM    9  C7  UNK     1      27.009  -6.876  30.988  1.00  0.00     0.084 C 
HETATM   10  C8  UNK     1      27.879  -6.691  32.212  1.00  0.00     0.158 C 
HETATM   11  C9  UNK     1      31.778  -8.582  32.218  1.00  0.00     0.018 C 
HETATM   12  C13 UNK     1      33.105  -9.227  31.920  1.00  0.00     0.069 C 
HETATM   13  H8  UNK     1      31.052  -9.389  30.463  1.00  0.00     0.165 HD
ENDROOT
BRANCH   3  14
HETATM   14  C10 UNK     1      29.455  -7.768  34.728  1.00  0.00     0.029 A 
HETATM   15  C12 UNK     1      29.342  -6.896  35.926  1.00  0.00     0.194 A 
HETATM   16  O5  UNK     1      29.751  -5.742  35.931  1.00  0.00    -0.287 OA
HETATM   17  C15 UNK     1      28.710  -7.497  37.115  1.00  0.00     0.048 A 
HETATM   18  C16 UNK     1      28.263  -8.817  37.051  1.00  0.00     0.089 A 
HETATM   19  C17 UNK     1      28.558  -6.758  38.290  1.00  0.00     0.018 A 
HETATM   20  O2  UNK     1      28.386  -9.588  35.923  1.00  0.00    -0.321 OA
HETATM   21  C18 UNK     1      27.661  -9.406  38.164  1.00  0.00     0.038 A 
HETATM   22  C14 UNK     1      28.978  -9.016  34.823  1.00  0.00     0.154 A 
HETATM   23  C21 UNK     1      27.509  -8.669  39.339  1.00  0.00     0.003 A 
HETATM   24  C20 UNK     1      27.956  -7.349  39.402  1.00  0.00     0.001 A 
ENDBRANCH   3  14
BRANCH   8  25
HETATM   25  C11 UNK     1      32.484  -7.486  34.328  1.00  0.00     0.292 C 
HETATM   26  O4  UNK     1      33.085  -6.428  34.371  1.00  0.00    -0.259 OA
BRANCH  25  27
HETATM   27  O3  UNK     1      32.582  -8.543  35.168  1.00  0.00    -0.316 OA
BRANCH  27  28
HETATM   28  C19 UNK     1      33.148  -8.248  36.450  1.00  0.00     0.205 C 
BRANCH  28  29
HETATM   29  C22 UNK     1      32.151  -8.628  37.529  1.00  0.00     0.194 C 
BRANCH  29  30
HETATM   30  O6  UNK     1      32.033  -7.551  38.450  1.00  0.00    -0.389 OA
BRANCH  30  31
HETATM   31  C23 UNK     1      32.681  -6.382  37.970  1.00  0.00     0.163 C 
HETATM   32  C24 UNK     1      31.964  -5.163  38.512  1.00  0.00     0.033 C 
ENDBRANCH  30  31
ENDBRANCH  29  30
ENDBRANCH  28  29
ENDBRANCH  27  28
ENDBRANCH  25  27
ENDBRANCH   8  25
TORSDOF 7
ENDMDL
MODEL 7
REMARK VINA RESULT:      -7.3      1.369      2.666
REMARK  7 active torsions:
REMARK  status: ('A' for Active; 'I' for Inactive)
REMARK    1  A    between atoms: C11_18  and  O3_3 
REMARK    2  A    between atoms: C19_26  and  O3_3 
REMARK    3  A    between atoms: C22_29  and  O6_6 
REMARK    4  A    between atoms: C23_30  and  O6_6 
REMARK    5  A    between atoms: C1_8  and  C10_17 
REMARK    6  A    between atoms: C11_18  and  C6_13 
REMARK    7  A    between atoms: C19_26  and  C22_29 
ROOT
HETATM    1  O1  UNK     1      29.383  -5.299  32.091  1.00  0.00    -0.293 OA
HETATM    2  N1  UNK     1      29.029 -10.007  31.725  1.00  0.00    -0.362 N 
HETATM    3  C1  UNK     1      30.247  -7.854  33.114  1.00  0.00     0.104 C 
HETATM    4  C2  UNK     1      29.192  -7.664  32.029  1.00  0.00     0.024 C 
HETATM    5  C3  UNK     1      28.623  -8.724  31.416  1.00  0.00     0.020 C 
HETATM    6  C4  UNK     1      27.541  -8.596  30.376  1.00  0.00     0.058 C 
HETATM    7  C5  UNK     1      26.821  -7.256  30.459  1.00  0.00     0.014 C 
HETATM    8  C6  UNK     1      30.696  -9.312  33.255  1.00  0.00     0.052 C 
HETATM    9  C7  UNK     1      27.815  -6.108  30.486  1.00  0.00     0.084 C 
HETATM   10  C8  UNK     1      28.826  -6.279  31.598  1.00  0.00     0.158 C 
HETATM   11  C9  UNK     1      30.075 -10.310  32.585  1.00  0.00     0.018 C 
HETATM   12  C13 UNK     1      30.423 -11.773  32.645  1.00  0.00     0.069 C 
HETATM   13  H8  UNK     1      28.586 -10.775  31.234  1.00  0.00     0.165 HD
ENDROOT
BRANCH   3  14
HETATM   14  C10 UNK     1      29.736  -7.337  34.431  1.00  0.00     0.029 A 
HETATM   15  C12 UNK     1      30.498  -6.261  35.115  1.00  0.00     0.194 A 
HETATM   16  O5  UNK     1      31.522  -5.786  34.641  1.00  0.00    -0.287 OA
HETATM   17  C15 UNK     1      29.955  -5.792  36.403  1.00  0.00     0.048 A 
HETATM   18  C16 UNK     1      28.784  -6.370  36.896  1.00  0.00     0.089 A 
HETATM   19  C17 UNK     1      30.599  -4.784  37.123  1.00  0.00     0.018 A 
HETATM   20  O2  UNK     1      28.109  -7.363  36.230  1.00  0.00    -0.321 OA
HETATM   21  C18 UNK     1      28.251  -5.941  38.113  1.00  0.00     0.038 A 
HETATM   22  C14 UNK     1      28.628  -7.790  35.032  1.00  0.00     0.154 A 
HETATM   23  C21 UNK     1      28.894  -4.935  38.833  1.00  0.00     0.003 A 
HETATM   24  C20 UNK     1      30.065  -4.357  38.340  1.00  0.00     0.001 A 
ENDBRANCH   3  14
BRANCH   8  25
HETATM   25  C11 UNK     1      31.841  -9.551  34.151  1.00  0.00     0.292 C 
HETATM   26  O4  UNK     1      31.721  -9.803  35.336  1.00  0.00    -0.259 OA
BRANCH  25  27
HETATM   27  O3  UNK     1      32.980  -9.439  33.428  1.00  0.00    -0.316 OA
BRANCH  27  28
HETATM   28  C19 UNK     1      33.835  -8.354  33.806  1.00  0.00     0.205 C 
BRANCH  28  29
HETATM   29  C22 UNK     1      33.960  -7.393  32.639  1.00  0.00     0.194 C 
BRANCH  29  30
HETATM   30  O6  UNK     1      33.813  -8.118  31.424  1.00  0.00    -0.389 OA
BRANCH  30  31
HETATM   31  C23 UNK     1      32.911  -7.471  30.538  1.00  0.00     0.163 C 
HETATM   32  C24 UNK     1      32.063  -8.517  29.846  1.00  0.00     0.033 C 
ENDBRANCH  30  31
ENDBRANCH  29  30
ENDBRANCH  28  29
ENDBRANCH  27  28
ENDBRANCH  25  27
ENDBRANCH   8  25
TORSDOF 7
ENDMDL
MODEL 8
REMARK VINA RESULT:      -7.2      2.452      6.395
REMARK  7 active torsions:
REMARK  status: ('A' for Active; 'I' for Inactive)
REMARK    1  A    between atoms: C11_18  and  O3_3 
REMARK    2  A    between atoms: C19_26  and  O3_3 
REMARK    3  A    between atoms: C22_29  and  O6_6 
REMARK    4  A    between atoms: C23_30  and  O6_6 
REMARK    5  A    between atoms: C1_8  and  C10_17 
REMARK    6  A    between atoms: C11_18  and  C6_13 
REMARK    7  A    between atoms: C19_26  and  C22_29 
ROOT
HETATM    1  O1  UNK     1      29.190  -7.867  36.642  1.00  0.00    -0.293 OA
HETATM    2  N1  UNK     1      33.209  -5.378  36.359  1.00  0.00    -0.362 N 
HETATM    3  C1  UNK     1      31.596  -7.364  35.133  1.00  0.00     0.104 C 
HETATM    4  C2  UNK     1      31.178  -6.596  36.383  1.00  0.00     0.024 C 
HETATM    5  C3  UNK     1      31.972  -5.642  36.913  1.00  0.00     0.020 C 
HETATM    6  C4  UNK     1      31.587  -4.819  38.115  1.00  0.00     0.058 C 
HETATM    7  C5  UNK     1      30.081  -4.805  38.341  1.00  0.00     0.014 C 
HETATM    8  C6  UNK     1      33.039  -7.069  34.711  1.00  0.00     0.052 C 
HETATM    9  C7  UNK     1      29.519  -6.215  38.332  1.00  0.00     0.084 C 
HETATM   10  C8  UNK     1      29.895  -6.951  37.064  1.00  0.00     0.158 C 
HETATM   11  C9  UNK     1      33.767  -6.100  35.314  1.00  0.00     0.018 C 
HETATM   12  C13 UNK     1      35.185  -5.719  34.986  1.00  0.00     0.069 C 
HETATM   13  H8  UNK     1      33.781  -4.663  36.795  1.00  0.00     0.165 HD
ENDROOT
BRANCH   3  14
HETATM   14  C10 UNK     1      30.651  -7.065  34.001  1.00  0.00     0.029 A 
HETATM   15  C12 UNK     1      29.966  -8.199  33.329  1.00  0.00     0.194 A 
HETATM   16  O5  UNK     1      30.147  -9.361  33.669  1.00  0.00    -0.287 OA
HETATM   17  C15 UNK     1      29.053  -7.851  32.225  1.00  0.00     0.048 A 
HETATM   18  C16 UNK     1      28.885  -6.509  31.881  1.00  0.00     0.089 A 
HETATM   19  C17 UNK     1      28.362  -8.847  31.531  1.00  0.00     0.018 A 
HETATM   20  O2  UNK     1      29.538  -5.490  32.529  1.00  0.00    -0.321 OA
HETATM   21  C18 UNK     1      28.026  -6.156  30.840  1.00  0.00     0.038 A 
HETATM   22  C14 UNK     1      30.386  -5.830  33.555  1.00  0.00     0.154 A 
HETATM   23  C21 UNK     1      27.335  -7.150  30.146  1.00  0.00     0.003 A 
HETATM   24  C20 UNK     1      27.503  -8.492  30.490  1.00  0.00     0.001 A 
ENDBRANCH   3  14
BRANCH   8  25
HETATM   25  C11 UNK     1      33.578  -7.905  33.624  1.00  0.00     0.292 C 
HETATM   26  O4  UNK     1      33.928  -9.060  33.782  1.00  0.00    -0.259 OA
BRANCH  25  27
HETATM   27  O3  UNK     1      33.600  -7.169  32.489  1.00  0.00    -0.316 OA
BRANCH  27  28
HETATM   28  C19 UNK     1      33.772  -7.920  31.281  1.00  0.00     0.205 C 
BRANCH  28  29
HETATM   29  C22 UNK     1      32.427  -8.070  30.597  1.00  0.00     0.194 C 
BRANCH  29  30
HETATM   30  O6  UNK     1      31.908  -6.779  30.305  1.00  0.00    -0.389 OA
BRANCH  30  31
HETATM   31  C23 UNK     1      31.310  -6.737  29.018  1.00  0.00     0.163 C 
HETATM   32  C24 UNK     1      30.777  -8.113  28.676  1.00  0.00     0.033 C 
ENDBRANCH  30  31
ENDBRANCH  29  30
ENDBRANCH  28  29
ENDBRANCH  27  28
ENDBRANCH  25  27
ENDBRANCH   8  25
TORSDOF 7
ENDMDL
MODEL 9
REMARK VINA RESULT:      -7.2      1.631      2.257
REMARK  7 active torsions:
REMARK  status: ('A' for Active; 'I' for Inactive)
REMARK    1  A    between atoms: C11_18  and  O3_3 
REMARK    2  A    between atoms: C19_26  and  O3_3 
REMARK    3  A    between atoms: C22_29  and  O6_6 
REMARK    4  A    between atoms: C23_30  and  O6_6 
REMARK    5  A    between atoms: C1_8  and  C10_17 
REMARK    6  A    between atoms: C11_18  and  C6_13 
REMARK    7  A    between atoms: C19_26  and  C22_29 
ROOT
HETATM    1  O1  UNK     1      29.340  -5.284  32.082  1.00  0.00    -0.293 OA
HETATM    2  N1  UNK     1      29.121 -10.003  31.745  1.00  0.00    -0.362 N 
HETATM    3  C1  UNK     1      30.293  -7.806  33.105  1.00  0.00     0.104 C 
HETATM    4  C2  UNK     1      29.218  -7.654  32.035  1.00  0.00     0.024 C 
HETATM    5  C3  UNK     1      28.673  -8.734  31.435  1.00  0.00     0.020 C 
HETATM    6  C4  UNK     1      27.574  -8.644  30.409  1.00  0.00     0.058 C 
HETATM    7  C5  UNK     1      26.815  -7.326  30.496  1.00  0.00     0.014 C 
HETATM    8  C6  UNK     1      30.788  -9.249  33.248  1.00  0.00     0.052 C 
HETATM    9  C7  UNK     1      27.774  -6.148  30.503  1.00  0.00     0.084 C 
HETATM   10  C8  UNK     1      28.805  -6.283  31.602  1.00  0.00     0.158 C 
HETATM   11  C9  UNK     1      30.188 -10.269  32.592  1.00  0.00     0.018 C 
HETATM   12  C13 UNK     1      30.580 -11.721  32.655  1.00  0.00     0.069 C 
HETATM   13  H8  UNK     1      28.695 -10.786  31.263  1.00  0.00     0.165 HD
ENDROOT
BRANCH   3  14
HETATM   14  C10 UNK     1      29.785  -7.297  34.427  1.00  0.00     0.029 A 
HETATM   15  C12 UNK     1      30.543  -6.219  35.112  1.00  0.00     0.194 A 
HETATM   16  O5  UNK     1      31.562  -5.736  34.634  1.00  0.00    -0.287 OA
HETATM   17  C15 UNK     1      30.003  -5.759  36.404  1.00  0.00     0.048 A 
HETATM   18  C16 UNK     1      28.838  -6.346  36.900  1.00  0.00     0.089 A 
HETATM   19  C17 UNK     1      30.645  -4.749  37.125  1.00  0.00     0.018 A 
HETATM   20  O2  UNK     1      28.167  -7.340  36.234  1.00  0.00    -0.321 OA
HETATM   21  C18 UNK     1      28.309  -5.925  38.121  1.00  0.00     0.038 A 
HETATM   22  C14 UNK     1      28.683  -7.759  35.032  1.00  0.00     0.154 A 
HETATM   23  C21 UNK     1      28.948  -4.917  38.843  1.00  0.00     0.003 A 
HETATM   24  C20 UNK     1      30.113  -4.330  38.346  1.00  0.00     0.001 A 
ENDBRANCH   3  14
BRANCH   8  25
HETATM   25  C11 UNK     1      31.952  -9.449  34.129  1.00  0.00     0.292 C 
HETATM   26  O4  UNK     1      31.902 -10.081  35.168  1.00  0.00    -0.259 OA
BRANCH  25  27
HETATM   27  O3  UNK     1      33.018  -8.824  33.577  1.00  0.00    -0.316 OA
BRANCH  27  28
HETATM   28  C19 UNK     1      33.939  -9.683  32.896  1.00  0.00     0.205 C 
BRANCH  28  29
HETATM   29  C22 UNK     1      35.340  -9.414  33.412  1.00  0.00     0.194 C 
BRANCH  29  30
HETATM   30  O6  UNK     1      36.023  -8.578  32.486  1.00  0.00    -0.389 OA
BRANCH  30  31
HETATM   31  C23 UNK     1      36.298  -7.301  33.043  1.00  0.00     0.163 C 
HETATM   32  C24 UNK     1      37.157  -7.475  34.278  1.00  0.00     0.033 C 
ENDBRANCH  30  31
ENDBRANCH  29  30
ENDBRANCH  28  29
ENDBRANCH  27  28
ENDBRANCH  25  27
ENDBRANCH   8  25
TORSDOF 7
ENDMDL
MODEL 10
REMARK VINA RESULT:      -7.1      1.763      2.286
REMARK  7 active torsions:
REMARK  status: ('A' for Active; 'I' for Inactive)
REMARK    1  A    between atoms: C11_18  and  O3_3 
REMARK    2  A    between atoms: C19_26  and  O3_3 
REMARK    3  A    between atoms: C22_29  and  O6_6 
REMARK    4  A    between atoms: C23_30  and  O6_6 
REMARK    5  A    between atoms: C1_8  and  C10_17 
REMARK    6  A    between atoms: C11_18  and  C6_13 
REMARK    7  A    between atoms: C19_26  and  C22_29 
ROOT
HETATM    1  O1  UNK     1      29.668  -4.523  32.126  1.00  0.00    -0.293 OA
HETATM    2  N1  UNK     1      31.706  -8.697  31.200  1.00  0.00    -0.362 N 
HETATM    3  C1  UNK     1      31.698  -6.423  32.896  1.00  0.00     0.104 C 
HETATM    4  C2  UNK     1      30.681  -6.643  31.781  1.00  0.00     0.024 C 
HETATM    5  C3  UNK     1      30.712  -7.756  31.017  1.00  0.00     0.020 C 
HETATM    6  C4  UNK     1      29.703  -8.047  29.938  1.00  0.00     0.058 C 
HETATM    7  C5  UNK     1      28.412  -7.264  30.133  1.00  0.00     0.014 C 
HETATM    8  C6  UNK     1      32.815  -7.471  32.894  1.00  0.00     0.052 C 
HETATM    9  C7  UNK     1      28.701  -5.789  30.349  1.00  0.00     0.084 C 
HETATM   10  C8  UNK     1      29.671  -5.578  31.491  1.00  0.00     0.158 C 
HETATM   11  C9  UNK     1      32.770  -8.550  32.079  1.00  0.00     0.018 C 
HETATM   12  C13 UNK     1      33.801  -9.642  31.990  1.00  0.00     0.069 C 
HETATM   13  H8  UNK     1      31.702  -9.513  30.598  1.00  0.00     0.165 HD
ENDROOT
BRANCH   3  14
HETATM   14  C10 UNK     1      31.006  -6.401  34.232  1.00  0.00     0.029 A 
HETATM   15  C12 UNK     1      31.314  -5.294  35.173  1.00  0.00     0.194 A 
HETATM   16  O5  UNK     1      32.109  -4.405  34.894  1.00  0.00    -0.287 OA
HETATM   17  C15 UNK     1      30.611  -5.322  36.468  1.00  0.00     0.048 A 
HETATM   18  C16 UNK     1      29.716  -6.360  36.733  1.00  0.00     0.089 A 
HETATM   19  C17 UNK     1      30.833  -4.325  37.421  1.00  0.00     0.018 A 
HETATM   20  O2  UNK     1      29.460  -7.364  35.833  1.00  0.00    -0.321 OA
HETATM   21  C18 UNK     1      29.039  -6.406  37.951  1.00  0.00     0.038 A 
HETATM   22  C14 UNK     1      30.123  -7.326  34.631  1.00  0.00     0.154 A 
HETATM   23  C21 UNK     1      29.260  -5.412  38.904  1.00  0.00     0.003 A 
HETATM   24  C20 UNK     1      30.155  -4.373  38.640  1.00  0.00     0.001 A 
ENDBRANCH   3  14
BRANCH   8  25
HETATM   25  C11 UNK     1      33.933  -7.225  33.821  1.00  0.00     0.292 C 
HETATM   26  O4  UNK     1      34.745  -6.331  33.666  1.00  0.00    -0.259 OA
BRANCH  25  27
HETATM   27  O3  UNK     1      33.872  -8.140  34.817  1.00  0.00    -0.316 OA
BRANCH  27  28
HETATM   28  C19 UNK     1      33.846  -7.595  36.141  1.00  0.00     0.205 C 
BRANCH  28  29
HETATM   29  C22 UNK     1      32.802  -8.333  36.958  1.00  0.00     0.194 C 
BRANCH  29  30
HETATM   30  O6  UNK     1      32.324  -9.441  36.206  1.00  0.00    -0.389 OA
BRANCH  30  31
HETATM   31  C23 UNK     1      31.301 -10.139  36.901  1.00  0.00     0.163 C 
HETATM   32  C24 UNK     1      31.127  -9.523  38.274  1.00  0.00     0.033 C 
ENDBRANCH  30  31
ENDBRANCH  29  30
ENDBRANCH  28  29
ENDBRANCH  27  28
ENDBRANCH  25  27
ENDBRANCH   8  25
TORSDOF 7
ENDMDL
