MODEL 1
REMARK VINA RESULT:      -8.4      0.000      0.000
REMARK  3 active torsions:
REMARK  status: ('A' for Active; 'I' for Inactive)
REMARK    1  A    between atoms: C14_22  and  O4_4 
REMARK       I    between atoms: C7_15  and  N1_7 
REMARK    2  A    between atoms: C15_23  and  N2_8 
REMARK    3  A    between atoms: C7_15  and  C8_16 
ROOT
HETATM    1  O2  UNK     1      18.560  -1.279  35.666  1.00  0.00    -0.271 OA
HETATM    2  O3  UNK     1      18.607  -2.092  37.801  1.00  0.00    -0.259 OA
HETATM    3  C8  UNK     1      20.078  -3.107  36.245  1.00  0.00     0.108 A 
HETATM    4  C9  UNK     1      20.542  -3.155  34.991  1.00  0.00     0.037 A 
HETATM    5  C10 UNK     1      20.026  -2.243  33.983  1.00  0.00     0.004 A 
HETATM    6  C11 UNK     1      19.035  -2.139  36.653  1.00  0.00     0.304 A 
HETATM    7  C12 UNK     1      19.046  -1.325  34.344  1.00  0.00     0.123 A 
HETATM    8  C13 UNK     1      20.481  -2.257  32.662  1.00  0.00     0.050 A 
HETATM    9  C14 UNK     1      18.509  -0.424  33.426  1.00  0.00     0.105 A 
HETATM   10  C15 UNK     1      19.954  -1.360  31.730  1.00  0.00     0.106 A 
HETATM   11  C16 UNK     1      18.970  -0.445  32.112  1.00  0.00     0.075 A 
ENDROOT
BRANCH   3  12
HETATM   12  C7  UNK     1      20.663  -4.075  37.197  1.00  0.00     0.260 C 
HETATM   13  O1  UNK     1      21.584  -3.677  37.913  1.00  0.00    -0.267 OA
HETATM   14  N1  UNK     1      20.140  -5.370  37.220  1.00  0.00    -0.344 N 
HETATM   15  C1  UNK     1      19.134  -5.907  36.272  1.00  0.00     0.083 C 
HETATM   16  C5  UNK     1      20.722  -6.335  38.162  1.00  0.00     0.126 C 
HETATM   17  C2  UNK     1      18.089  -6.775  36.990  1.00  0.00     0.025 C 
HETATM   18  C6  UNK     1      19.814  -6.653  35.121  1.00  0.00     0.032 C 
HETATM   19  C3  UNK     1      18.709  -7.816  37.914  1.00  0.00     0.004 C 
HETATM   20  C4  UNK     1      19.661  -7.144  38.896  1.00  0.00     0.020 C 
ENDBRANCH   3  12
BRANCH   9  21
HETATM   21  O4  UNK     1      17.552   0.469  33.794  1.00  0.00    -0.353 OA
HETATM   22  C17 UNK     1      17.979   1.802  34.073  1.00  0.00     0.210 C 
ENDBRANCH   9  21
BRANCH  10  23
HETATM   23  N2  UNK     1      20.419  -1.378  30.388  1.00  0.00    -0.116 N 
HETATM   24  O5  UNK     1      20.577  -2.482  29.815  1.00  0.00    -0.532 OA
HETATM   25  O6  UNK     1      20.661  -0.289  29.814  1.00  0.00    -0.532 OA
ENDBRANCH  10  23
TORSDOF 3
ENDMDL
MODEL 2
REMARK VINA RESULT:      -8.1      5.699      9.025
REMARK  3 active torsions:
REMARK  status: ('A' for Active; 'I' for Inactive)
REMARK    1  A    between atoms: C14_22  and  O4_4 
REMARK       I    between atoms: C7_15  and  N1_7 
REMARK    2  A    between atoms: C15_23  and  N2_8 
REMARK    3  A    between atoms: C7_15  and  C8_16 
ROOT
HETATM    1  O2  UNK     1      24.548  -5.608  38.730  1.00  0.00    -0.271 OA
HETATM    2  O3  UNK     1      22.339  -5.025  38.682  1.00  0.00    -0.259 OA
HETATM    3  C8  UNK     1      22.824  -7.340  38.836  1.00  0.00     0.108 A 
HETATM    4  C9  UNK     1      23.754  -8.299  38.903  1.00  0.00     0.037 A 
HETATM    5  C10 UNK     1      25.167  -7.954  38.887  1.00  0.00     0.004 A 
HETATM    6  C11 UNK     1      23.188  -5.907  38.743  1.00  0.00     0.304 A 
HETATM    7  C12 UNK     1      25.532  -6.614  38.801  1.00  0.00     0.123 A 
HETATM    8  C13 UNK     1      26.171  -8.922  38.956  1.00  0.00     0.050 A 
HETATM    9  C14 UNK     1      26.866  -6.217  38.781  1.00  0.00     0.105 A 
HETATM   10  C15 UNK     1      27.515  -8.539  38.937  1.00  0.00     0.106 A 
HETATM   11  C16 UNK     1      27.862  -7.189  38.850  1.00  0.00     0.075 A 
ENDROOT
BRANCH   3  12
HETATM   12  C7  UNK     1      21.417  -7.790  38.857  1.00  0.00     0.260 C 
HETATM   13  O1  UNK     1      20.942  -8.109  39.949  1.00  0.00    -0.267 OA
HETATM   14  N1  UNK     1      20.722  -7.829  37.646  1.00  0.00    -0.344 N 
HETATM   15  C1  UNK     1      21.315  -7.588  36.308  1.00  0.00     0.083 C 
HETATM   16  C5  UNK     1      19.325  -8.279  37.663  1.00  0.00     0.126 C 
HETATM   17  C2  UNK     1      20.384  -6.745  35.422  1.00  0.00     0.025 C 
HETATM   18  C6  UNK     1      21.710  -8.908  35.641  1.00  0.00     0.032 C 
HETATM   19  C3  UNK     1      18.951  -7.264  35.397  1.00  0.00     0.004 C 
HETATM   20  C4  UNK     1      18.417  -7.395  36.817  1.00  0.00     0.020 C 
ENDBRANCH   3  12
BRANCH   9  21
HETATM   21  O4  UNK     1      27.209  -4.903  38.697  1.00  0.00    -0.353 OA
HETATM   22  C17 UNK     1      28.602  -4.594  38.677  1.00  0.00     0.210 C 
ENDBRANCH   9  21
BRANCH  10  23
HETATM   23  N2  UNK     1      28.533  -9.527  39.006  1.00  0.00    -0.116 N 
HETATM   24  O5  UNK     1      28.374 -10.512  39.766  1.00  0.00    -0.532 OA
HETATM   25  O6  UNK     1      29.565  -9.386  38.307  1.00  0.00    -0.532 OA
ENDBRANCH  10  23
TORSDOF 3
ENDMDL
MODEL 3
REMARK VINA RESULT:      -7.8      4.215      9.448
REMARK  3 active torsions:
REMARK  status: ('A' for Active; 'I' for Inactive)
REMARK    1  A    between atoms: C14_22  and  O4_4 
REMARK       I    between atoms: C7_15  and  N1_7 
REMARK    2  A    between atoms: C15_23  and  N2_8 
REMARK    3  A    between atoms: C7_15  and  C8_16 
ROOT
HETATM    1  O2  UNK     1      18.945   1.713  30.784  1.00  0.00    -0.271 OA
HETATM    2  O3  UNK     1      18.691   3.721  29.724  1.00  0.00    -0.259 OA
HETATM    3  C8  UNK     1      18.055   3.635  32.005  1.00  0.00     0.108 A 
HETATM    4  C9  UNK     1      17.936   2.906  33.121  1.00  0.00     0.037 A 
HETATM    5  C10 UNK     1      18.327   1.504  33.126  1.00  0.00     0.004 A 
HETATM    6  C11 UNK     1      18.580   3.056  30.748  1.00  0.00     0.304 A 
HETATM    7  C12 UNK     1      18.824   0.940  31.956  1.00  0.00     0.123 A 
HETATM    8  C13 UNK     1      18.220   0.706  34.267  1.00  0.00     0.050 A 
HETATM    9  C14 UNK     1      19.215  -0.396  31.894  1.00  0.00     0.105 A 
HETATM   10  C15 UNK     1      18.609  -0.636  34.221  1.00  0.00     0.106 A 
HETATM   11  C16 UNK     1      19.106  -1.185  33.036  1.00  0.00     0.075 A 
ENDROOT
BRANCH   3  12
HETATM   12  C7  UNK     1      17.631   5.048  32.099  1.00  0.00     0.260 C 
HETATM   13  O1  UNK     1      16.438   5.294  31.913  1.00  0.00    -0.267 OA
HETATM   14  N1  UNK     1      18.605   6.007  32.387  1.00  0.00    -0.344 N 
HETATM   15  C1  UNK     1      20.064   5.751  32.473  1.00  0.00     0.083 C 
HETATM   16  C5  UNK     1      18.188   7.412  32.477  1.00  0.00     0.126 C 
HETATM   17  C2  UNK     1      20.702   6.510  33.647  1.00  0.00     0.025 C 
HETATM   18  C6  UNK     1      20.750   6.062  31.141  1.00  0.00     0.032 C 
HETATM   19  C3  UNK     1      20.312   7.983  33.689  1.00  0.00     0.004 C 
HETATM   20  C4  UNK     1      18.796   8.124  33.680  1.00  0.00     0.020 C 
ENDBRANCH   3  12
BRANCH   9  21
HETATM   21  O4  UNK     1      19.699  -0.934  30.743  1.00  0.00    -0.353 OA
HETATM   22  C17 UNK     1      20.405  -2.171  30.850  1.00  0.00     0.210 C 
ENDBRANCH   9  21
BRANCH  10  23
HETATM   23  N2  UNK     1      18.499  -1.445  35.382  1.00  0.00    -0.116 N 
HETATM   24  O5  UNK     1      17.416  -1.457  36.014  1.00  0.00    -0.532 OA
HETATM   25  O6  UNK     1      19.489  -2.125  35.746  1.00  0.00    -0.532 OA
ENDBRANCH  10  23
TORSDOF 3
ENDMDL
MODEL 4
REMARK VINA RESULT:      -7.8      6.098     11.017
REMARK  3 active torsions:
REMARK  status: ('A' for Active; 'I' for Inactive)
REMARK    1  A    between atoms: C14_22  and  O4_4 
REMARK       I    between atoms: C7_15  and  N1_7 
REMARK    2  A    between atoms: C15_23  and  N2_8 
REMARK    3  A    between atoms: C7_15  and  C8_16 
ROOT
HETATM    1  O2  UNK     1      18.356   5.275  31.014  1.00  0.00    -0.271 OA
HETATM    2  O3  UNK     1      18.244   7.557  31.002  1.00  0.00    -0.259 OA
HETATM    3  C8  UNK     1      18.108   6.497  33.117  1.00  0.00     0.108 A 
HETATM    4  C9  UNK     1      18.103   5.353  33.813  1.00  0.00     0.037 A 
HETATM    5  C10 UNK     1      18.228   4.077  33.126  1.00  0.00     0.004 A 
HETATM    6  C11 UNK     1      18.238   6.511  31.643  1.00  0.00     0.304 A 
HETATM    7  C12 UNK     1      18.352   4.067  31.741  1.00  0.00     0.123 A 
HETATM    8  C13 UNK     1      18.227   2.860  33.811  1.00  0.00     0.050 A 
HETATM    9  C14 UNK     1      18.475   2.879  31.024  1.00  0.00     0.105 A 
HETATM   10  C15 UNK     1      18.350   1.660  33.106  1.00  0.00     0.106 A 
HETATM   11  C16 UNK     1      18.474   1.670  31.715  1.00  0.00     0.075 A 
ENDROOT
BRANCH   3  12
HETATM   12  C7  UNK     1      17.974   7.741  33.904  1.00  0.00     0.260 C 
HETATM   13  O1  UNK     1      18.935   8.078  34.597  1.00  0.00    -0.267 OA
HETATM   14  N1  UNK     1      16.772   8.448  33.813  1.00  0.00    -0.344 N 
HETATM   15  C1  UNK     1      15.556   7.986  33.100  1.00  0.00     0.083 C 
HETATM   16  C5  UNK     1      16.634   9.682  34.596  1.00  0.00     0.126 C 
HETATM   17  C2  UNK     1      14.885   9.134  32.329  1.00  0.00     0.025 C 
HETATM   18  C6  UNK     1      14.590   7.293  34.064  1.00  0.00     0.032 C 
HETATM   19  C3  UNK     1      14.688  10.387  33.174  1.00  0.00     0.004 C 
HETATM   20  C4  UNK     1      16.013  10.816  33.791  1.00  0.00     0.020 C 
ENDBRANCH   3  12
BRANCH   9  21
HETATM   21  O4  UNK     1      18.597   2.885  29.669  1.00  0.00    -0.353 OA
HETATM   22  C17 UNK     1      17.990   1.805  28.957  1.00  0.00     0.210 C 
ENDBRANCH   9  21
BRANCH  10  23
HETATM   23  N2  UNK     1      18.349   0.424  33.806  1.00  0.00    -0.116 N 
HETATM   24  O5  UNK     1      19.030   0.319  34.854  1.00  0.00    -0.532 OA
HETATM   25  O6  UNK     1      17.669  -0.529  33.355  1.00  0.00    -0.532 OA
ENDBRANCH  10  23
TORSDOF 3
ENDMDL
MODEL 5
REMARK VINA RESULT:      -7.8     10.245     12.882
REMARK  3 active torsions:
REMARK  status: ('A' for Active; 'I' for Inactive)
REMARK    1  A    between atoms: C14_22  and  O4_4 
REMARK       I    between atoms: C7_15  and  N1_7 
REMARK    2  A    between atoms: C15_23  and  N2_8 
REMARK    3  A    between atoms: C7_15  and  C8_16 
ROOT
HETATM    1  O2  UNK     1      31.814  -8.028  35.888  1.00  0.00    -0.271 OA
HETATM    2  O3  UNK     1      31.887  -9.453  34.104  1.00  0.00    -0.259 OA
HETATM    3  C8  UNK     1      29.833  -8.335  34.487  1.00  0.00     0.108 A 
HETATM    4  C9  UNK     1      29.137  -7.472  35.236  1.00  0.00     0.037 A 
HETATM    5  C10 UNK     1      29.759  -6.824  36.380  1.00  0.00     0.004 A 
HETATM    6  C11 UNK     1      31.245  -8.663  34.788  1.00  0.00     0.304 A 
HETATM    7  C12 UNK     1      31.086  -7.117  36.680  1.00  0.00     0.123 A 
HETATM    8  C13 UNK     1      29.071  -5.917  37.188  1.00  0.00     0.050 A 
HETATM    9  C14 UNK     1      31.740  -6.532  37.761  1.00  0.00     0.105 A 
HETATM   10  C15 UNK     1      29.714  -5.321  38.276  1.00  0.00     0.106 A 
HETATM   11  C16 UNK     1      31.046  -5.628  38.562  1.00  0.00     0.075 A 
ENDROOT
BRANCH   3  12
HETATM   12  C7  UNK     1      29.114  -8.942  33.348  1.00  0.00     0.260 C 
HETATM   13  O1  UNK     1      28.730 -10.106  33.477  1.00  0.00    -0.267 OA
HETATM   14  N1  UNK     1      28.921  -8.163  32.205  1.00  0.00    -0.344 N 
HETATM   15  C1  UNK     1      29.497  -6.816  31.976  1.00  0.00     0.083 C 
HETATM   16  C5  UNK     1      28.210  -8.764  31.069  1.00  0.00     0.126 C 
HETATM   17  C2  UNK     1      28.480  -5.872  31.315  1.00  0.00     0.025 C 
HETATM   18  C6  UNK     1      30.802  -6.910  31.181  1.00  0.00     0.032 C 
HETATM   19  C3  UNK     1      27.798  -6.485  30.097  1.00  0.00     0.004 C 
HETATM   20  C4  UNK     1      27.173  -7.824  30.468  1.00  0.00     0.020 C 
ENDBRANCH   3  12
BRANCH   9  21
HETATM   21  O4  UNK     1      33.038  -6.828  38.043  1.00  0.00    -0.353 OA
HETATM   22  C17 UNK     1      34.031  -5.929  37.549  1.00  0.00     0.210 C 
ENDBRANCH   9  21
BRANCH  10  23
HETATM   23  N2  UNK     1      29.010  -4.399  39.096  1.00  0.00    -0.116 N 
HETATM   24  O5  UNK     1      29.644  -3.747  39.960  1.00  0.00    -0.532 OA
HETATM   25  O6  UNK     1      27.773  -4.263  38.935  1.00  0.00    -0.532 OA
ENDBRANCH  10  23
TORSDOF 3
ENDMDL
MODEL 6
REMARK VINA RESULT:      -7.7      2.382      3.915
REMARK  3 active torsions:
REMARK  status: ('A' for Active; 'I' for Inactive)
REMARK    1  A    between atoms: C14_22  and  O4_4 
REMARK       I    between atoms: C7_15  and  N1_7 
REMARK    2  A    between atoms: C15_23  and  N2_8 
REMARK    3  A    between atoms: C7_15  and  C8_16 
ROOT
HETATM    1  O2  UNK     1      19.578  -1.868  34.215  1.00  0.00    -0.271 OA
HETATM    2  O3  UNK     1      21.150  -3.526  34.229  1.00  0.00    -0.259 OA
HETATM    3  C8  UNK     1      20.031  -3.105  36.275  1.00  0.00     0.108 A 
HETATM    4  C9  UNK     1      19.116  -2.388  36.938  1.00  0.00     0.037 A 
HETATM    5  C10 UNK     1      18.365  -1.346  36.256  1.00  0.00     0.004 A 
HETATM    6  C11 UNK     1      20.312  -2.871  34.840  1.00  0.00     0.304 A 
HETATM    7  C12 UNK     1      18.613  -1.110  34.908  1.00  0.00     0.123 A 
HETATM    8  C13 UNK     1      17.401  -0.573  36.909  1.00  0.00     0.050 A 
HETATM    9  C14 UNK     1      17.929  -0.127  34.197  1.00  0.00     0.105 A 
HETATM   10  C15 UNK     1      16.706   0.416  36.209  1.00  0.00     0.106 A 
HETATM   11  C16 UNK     1      16.969   0.638  34.855  1.00  0.00     0.075 A 
ENDROOT
BRANCH   3  12
HETATM   12  C7  UNK     1      20.742  -4.139  37.054  1.00  0.00     0.260 C 
HETATM   13  O1  UNK     1      21.788  -3.806  37.614  1.00  0.00    -0.267 OA
HETATM   14  N1  UNK     1      20.189  -5.421  37.101  1.00  0.00    -0.344 N 
HETATM   15  C1  UNK     1      19.014  -5.879  36.321  1.00  0.00     0.083 C 
HETATM   16  C5  UNK     1      20.895  -6.453  37.872  1.00  0.00     0.126 C 
HETATM   17  C2  UNK     1      18.084  -6.762  37.167  1.00  0.00     0.025 C 
HETATM   18  C6  UNK     1      19.454  -6.572  35.029  1.00  0.00     0.032 C 
HETATM   19  C3  UNK     1      18.823  -7.870  37.909  1.00  0.00     0.004 C 
HETATM   20  C4  UNK     1      19.954  -7.279  38.739  1.00  0.00     0.020 C 
ENDBRANCH   3  12
BRANCH   9  21
HETATM   21  O4  UNK     1      18.182   0.093  32.878  1.00  0.00    -0.353 OA
HETATM   22  C17 UNK     1      18.531   1.423  32.496  1.00  0.00     0.210 C 
ENDBRANCH   9  21
BRANCH  10  23
HETATM   23  N2  UNK     1      15.727   1.200  36.876  1.00  0.00    -0.116 N 
HETATM   24  O5  UNK     1      14.514   0.979  36.649  1.00  0.00    -0.532 OA
HETATM   25  O6  UNK     1      16.104   2.093  37.672  1.00  0.00    -0.532 OA
ENDBRANCH  10  23
TORSDOF 3
ENDMDL
MODEL 7
REMARK VINA RESULT:      -7.7     27.569     29.732
REMARK  3 active torsions:
REMARK  status: ('A' for Active; 'I' for Inactive)
REMARK    1  A    between atoms: C14_22  and  O4_4 
REMARK       I    between atoms: C7_15  and  N1_7 
REMARK    2  A    between atoms: C15_23  and  N2_8 
REMARK    3  A    between atoms: C7_15  and  C8_16 
ROOT
HETATM    1  O2  UNK     1      14.990   7.628  10.120  1.00  0.00    -0.271 OA
HETATM    2  O3  UNK     1      13.229   6.249  10.589  1.00  0.00    -0.259 OA
HETATM    3  C8  UNK     1      12.746   8.199   9.332  1.00  0.00     0.108 A 
HETATM    4  C9  UNK     1      13.203   9.318   8.758  1.00  0.00     0.037 A 
HETATM    5  C10 UNK     1      14.615   9.658   8.836  1.00  0.00     0.004 A 
HETATM    6  C11 UNK     1      13.644   7.275  10.061  1.00  0.00     0.304 A 
HETATM    7  C12 UNK     1      15.477   8.804   9.516  1.00  0.00     0.123 A 
HETATM    8  C13 UNK     1      15.136  10.815   8.251  1.00  0.00     0.050 A 
HETATM    9  C14 UNK     1      16.839   9.073   9.628  1.00  0.00     0.105 A 
HETATM   10  C15 UNK     1      16.501  11.098   8.354  1.00  0.00     0.106 A 
HETATM   11  C16 UNK     1      17.350  10.228   9.041  1.00  0.00     0.075 A 
ENDROOT
BRANCH   3  12
HETATM   12  C7  UNK     1      11.297   7.940   9.200  1.00  0.00     0.260 C 
HETATM   13  O1  UNK     1      10.546   8.508   9.995  1.00  0.00    -0.267 OA
HETATM   14  N1  UNK     1      10.876   7.071   8.190  1.00  0.00    -0.344 N 
HETATM   15  C1  UNK     1      11.770   6.269   7.319  1.00  0.00     0.083 C 
HETATM   16  C5  UNK     1       9.438   6.808   8.058  1.00  0.00     0.126 C 
HETATM   17  C2  UNK     1      11.276   6.257   5.864  1.00  0.00     0.025 C 
HETATM   18  C6  UNK     1      11.954   4.857   7.881  1.00  0.00     0.032 C 
HETATM   19  C3  UNK     1       9.796   5.917   5.738  1.00  0.00     0.004 C 
HETATM   20  C4  UNK     1       8.968   6.853   6.610  1.00  0.00     0.020 C 
ENDBRANCH   3  12
BRANCH   9  21
HETATM   21  O4  UNK     1      17.671   8.228  10.295  1.00  0.00    -0.353 OA
HETATM   22  C17 UNK     1      17.847   6.921   9.746  1.00  0.00     0.210 C 
ENDBRANCH   9  21
BRANCH  10  23
HETATM   23  N2  UNK     1      17.026  12.275   7.759  1.00  0.00    -0.116 N 
HETATM   24  O5  UNK     1      17.768  12.169   6.753  1.00  0.00    -0.532 OA
HETATM   25  O6  UNK     1      16.736  13.390   8.256  1.00  0.00    -0.532 OA
ENDBRANCH  10  23
TORSDOF 3
ENDMDL
MODEL 8
REMARK VINA RESULT:      -7.6     10.870     13.525
REMARK  3 active torsions:
REMARK  status: ('A' for Active; 'I' for Inactive)
REMARK    1  A    between atoms: C14_22  and  O4_4 
REMARK       I    between atoms: C7_15  and  N1_7 
REMARK    2  A    between atoms: C15_23  and  N2_8 
REMARK    3  A    between atoms: C7_15  and  C8_16 
ROOT
HETATM    1  O2  UNK     1      30.264  -9.068  37.009  1.00  0.00    -0.271 OA
HETATM    2  O3  UNK     1      32.397  -9.695  36.483  1.00  0.00    -0.259 OA
HETATM    3  C8  UNK     1      32.090  -7.450  37.175  1.00  0.00     0.108 A 
HETATM    4  C9  UNK     1      31.244  -6.497  37.586  1.00  0.00     0.037 A 
HETATM    5  C10 UNK     1      29.826  -6.789  37.734  1.00  0.00     0.004 A 
HETATM    6  C11 UNK     1      31.625  -8.819  36.859  1.00  0.00     0.304 A 
HETATM    7  C12 UNK     1      29.369  -8.069  37.442  1.00  0.00     0.123 A 
HETATM    8  C13 UNK     1      28.908  -5.826  38.159  1.00  0.00     0.050 A 
HETATM    9  C14 UNK     1      28.024  -8.413  37.562  1.00  0.00     0.105 A 
HETATM   10  C15 UNK     1      27.556  -6.156  38.285  1.00  0.00     0.106 A 
HETATM   11  C16 UNK     1      27.116  -7.447  37.987  1.00  0.00     0.075 A 
ENDROOT
BRANCH   3  12
HETATM   12  C7  UNK     1      33.509  -7.057  37.055  1.00  0.00     0.260 C 
HETATM   13  O1  UNK     1      34.209  -7.150  38.065  1.00  0.00    -0.267 OA
HETATM   14  N1  UNK     1      33.961  -6.604  35.813  1.00  0.00    -0.344 N 
HETATM   15  C1  UNK     1      33.105  -6.349  34.629  1.00  0.00     0.083 C 
HETATM   16  C5  UNK     1      35.370  -6.208  35.691  1.00  0.00     0.126 C 
HETATM   17  C2  UNK     1      33.774  -6.839  33.334  1.00  0.00     0.025 C 
HETATM   18  C6  UNK     1      32.707  -4.873  34.552  1.00  0.00     0.032 C 
HETATM   19  C3  UNK     1      35.216  -6.366  33.189  1.00  0.00     0.004 C 
HETATM   20  C4  UNK     1      36.019  -6.752  34.425  1.00  0.00     0.020 C 
ENDBRANCH   3  12
BRANCH   9  21
HETATM   21  O4  UNK     1      27.591  -9.670  37.274  1.00  0.00    -0.353 OA
HETATM   22  C17 UNK     1      26.271  -9.797  36.743  1.00  0.00     0.210 C 
ENDBRANCH   9  21
BRANCH  10  23
HETATM   23  N2  UNK     1      26.626  -5.174  38.717  1.00  0.00    -0.116 N 
HETATM   24  O5  UNK     1      25.412  -5.481  38.800  1.00  0.00    -0.532 OA
HETATM   25  O6  UNK     1      27.042  -4.025  39.003  1.00  0.00    -0.532 OA
ENDBRANCH  10  23
TORSDOF 3
ENDMDL
MODEL 9
REMARK VINA RESULT:      -7.5     27.067     29.382
REMARK  3 active torsions:
REMARK  status: ('A' for Active; 'I' for Inactive)
REMARK    1  A    between atoms: C14_22  and  O4_4 
REMARK       I    between atoms: C7_15  and  N1_7 
REMARK    2  A    between atoms: C15_23  and  N2_8 
REMARK    3  A    between atoms: C7_15  and  C8_16 
ROOT
HETATM    1  O2  UNK     1       7.249   4.212   8.337  1.00  0.00    -0.271 OA
HETATM    2  O3  UNK     1       8.452   5.522   6.903  1.00  0.00    -0.259 OA
HETATM    3  C8  UNK     1       8.407   6.197   9.175  1.00  0.00     0.108 A 
HETATM    4  C9  UNK     1       7.972   5.960  10.418  1.00  0.00     0.037 A 
HETATM    5  C10 UNK     1       7.130   4.805  10.693  1.00  0.00     0.004 A 
HETATM    6  C11 UNK     1       8.055   5.308   8.044  1.00  0.00     0.304 A 
HETATM    7  C12 UNK     1       6.788   3.957   9.645  1.00  0.00     0.123 A 
HETATM    8  C13 UNK     1       6.653   4.520  11.974  1.00  0.00     0.050 A 
HETATM    9  C14 UNK     1       5.985   2.836   9.841  1.00  0.00     0.105 A 
HETATM   10  C15 UNK     1       5.847   3.398  12.187  1.00  0.00     0.106 A 
HETATM   11  C16 UNK     1       5.514   2.558  11.122  1.00  0.00     0.075 A 
ENDROOT
BRANCH   3  12
HETATM   12  C7  UNK     1       9.255   7.394   8.996  1.00  0.00     0.260 C 
HETATM   13  O1  UNK     1       8.685   8.482   8.905  1.00  0.00    -0.267 OA
HETATM   14  N1  UNK     1      10.639   7.214   8.936  1.00  0.00    -0.344 N 
HETATM   15  C1  UNK     1      11.334   5.904   8.899  1.00  0.00     0.083 C 
HETATM   16  C5  UNK     1      11.485   8.400   8.754  1.00  0.00     0.126 C 
HETATM   17  C2  UNK     1      12.592   5.907   9.783  1.00  0.00     0.025 C 
HETATM   18  C6  UNK     1      11.641   5.491   7.457  1.00  0.00     0.032 C 
HETATM   19  C3  UNK     1      13.493   7.111   9.536  1.00  0.00     0.004 C 
HETATM   20  C4  UNK     1      12.695   8.400   9.679  1.00  0.00     0.020 C 
ENDBRANCH   3  12
BRANCH   9  21
HETATM   21  O4  UNK     1       5.659   2.015   8.807  1.00  0.00    -0.353 OA
HETATM   22  C17 UNK     1       5.142   0.726   9.139  1.00  0.00     0.210 C 
ENDBRANCH   9  21
BRANCH  10  23
HETATM   23  N2  UNK     1       5.364   3.111  13.491  1.00  0.00    -0.116 N 
HETATM   24  O5  UNK     1       6.027   3.497  14.483  1.00  0.00    -0.532 OA
HETATM   25  O6  UNK     1       4.288   2.477  13.614  1.00  0.00    -0.532 OA
ENDBRANCH  10  23
TORSDOF 3
ENDMDL
MODEL 10
REMARK VINA RESULT:      -7.5      9.939     12.657
REMARK  3 active torsions:
REMARK  status: ('A' for Active; 'I' for Inactive)
REMARK    1  A    between atoms: C14_22  and  O4_4 
REMARK       I    between atoms: C7_15  and  N1_7 
REMARK    2  A    between atoms: C15_23  and  N2_8 
REMARK    3  A    between atoms: C7_15  and  C8_16 
ROOT
HETATM    1  O2  UNK     1      30.068  -8.957  36.044  1.00  0.00    -0.271 OA
HETATM    2  O3  UNK     1      30.789  -9.872  34.079  1.00  0.00    -0.259 OA
HETATM    3  C8  UNK     1      30.543  -7.515  34.127  1.00  0.00     0.108 A 
HETATM    4  C9  UNK     1      30.211  -6.426  34.830  1.00  0.00     0.037 A 
HETATM    5  C10 UNK     1      29.779  -6.549  36.213  1.00  0.00     0.004 A 
HETATM    6  C11 UNK     1      30.485  -8.871  34.719  1.00  0.00     0.304 A 
HETATM    7  C12 UNK     1      29.718  -7.813  36.790  1.00  0.00     0.123 A 
HETATM    8  C13 UNK     1      29.423  -5.440  36.984  1.00  0.00     0.050 A 
HETATM    9  C14 UNK     1      29.312  -8.000  38.109  1.00  0.00     0.105 A 
HETATM   10  C15 UNK     1      29.014  -5.610  38.309  1.00  0.00     0.106 A 
HETATM   11  C16 UNK     1      28.960  -6.888  38.870  1.00  0.00     0.075 A 
ENDROOT
BRANCH   3  12
HETATM   12  C7  UNK     1      30.967  -7.288  32.730  1.00  0.00     0.260 C 
HETATM   13  O1  UNK     1      32.138  -6.953  32.542  1.00  0.00    -0.267 OA
HETATM   14  N1  UNK     1      30.018  -7.463  31.720  1.00  0.00    -0.344 N 
HETATM   15  C1  UNK     1      28.574  -7.724  31.934  1.00  0.00     0.083 C 
HETATM   16  C5  UNK     1      30.436  -7.234  30.330  1.00  0.00     0.126 C 
HETATM   17  C2  UNK     1      28.039  -8.774  30.948  1.00  0.00     0.025 C 
HETATM   18  C6  UNK     1      27.772  -6.421  31.885  1.00  0.00     0.032 C 
HETATM   19  C3  UNK     1      28.424  -8.488  29.501  1.00  0.00     0.004 C 
HETATM   20  C4  UNK     1      29.933  -8.318  29.386  1.00  0.00     0.020 C 
ENDBRANCH   3  12
BRANCH   9  21
HETATM   21  O4  UNK     1      29.258  -9.242  38.660  1.00  0.00    -0.353 OA
HETATM   22  C17 UNK     1      28.012  -9.649  39.226  1.00  0.00     0.210 C 
ENDBRANCH   9  21
BRANCH  10  23
HETATM   23  N2  UNK     1      28.653  -4.480  39.089  1.00  0.00    -0.116 N 
HETATM   24  O5  UNK     1      27.470  -4.063  39.044  1.00  0.00    -0.532 OA
HETATM   25  O6  UNK     1      29.526  -3.928  39.801  1.00  0.00    -0.532 OA
ENDBRANCH  10  23
TORSDOF 3
ENDMDL
