MODEL 1
REMARK VINA RESULT:      -7.9      0.000      0.000
REMARK  6 active torsions:
REMARK  status: ('A' for Active; 'I' for Inactive)
REMARK    1  A    between atoms: C11_14  and  O1_1 
REMARK    2  A    between atoms: C2_5  and  O1_1 
REMARK    3  A    between atoms: C3_6  and  O2_2 
REMARK    4  A    between atoms: C1_4  and  C7_10 
REMARK    5  A    between atoms: C8_11  and  C9_12 
REMARK    6  A    between atoms: C10_13  and  C11_14 
ROOT
HETATM    1  C1  UNK     1      18.616   4.812  31.565  1.00  0.00    -0.033 A 
HETATM    2  C2  UNK     1      18.600   2.154  30.783  1.00  0.00     0.112 A 
HETATM    3  C3  UNK     1      18.202   2.504  32.074  1.00  0.00     0.102 A 
HETATM    4  C4  UNK     1      18.210   3.843  32.467  1.00  0.00     0.051 A 
HETATM    5  C5  UNK     1      19.014   4.480  30.280  1.00  0.00     0.014 A 
HETATM    6  C6  UNK     1      19.006   3.141  29.886  1.00  0.00     0.041 A 
ENDROOT
BRANCH   1   7
HETATM    7  C7  UNK     1      18.624   6.226  31.980  1.00  0.00     0.012 C 
HETATM    8  C9  UNK     1      19.000   6.679  33.199  1.00  0.00     0.012 C 
BRANCH   8   9
HETATM    9  C8  UNK     1      19.026   8.076  33.603  1.00  0.00    -0.036 A 
HETATM   10  C12 UNK     1      20.191   8.628  34.136  1.00  0.00     0.011 A 
HETATM   11  C14 UNK     1      20.216   9.967  34.523  1.00  0.00     0.001 A 
HETATM   12  C17 UNK     1      19.075  10.756  34.376  1.00  0.00     0.000 A 
HETATM   13  C15 UNK     1      17.909  10.205  33.843  1.00  0.00     0.001 A 
HETATM   14  C13 UNK     1      17.885   8.865  33.457  1.00  0.00     0.011 A 
ENDBRANCH   8   9
ENDBRANCH   1   7
BRANCH   3  15
HETATM   15  O2  UNK     1      17.805   1.548  32.959  1.00  0.00    -0.353 OA
HETATM   16  C18 UNK     1      18.201   1.719  34.318  1.00  0.00     0.210 C 
ENDBRANCH   3  15
BRANCH   2  17
HETATM   17  O1  UNK     1      18.595   0.851  30.387  1.00  0.00    -0.276 OA
BRANCH  17  18
HETATM   18  C11 UNK     1      19.860   0.234  30.415  1.00  0.00     0.263 C 
HETATM   19  O3  UNK     1      20.532   0.046  31.419  1.00  0.00    -0.265 OA
BRANCH  18  20
HETATM   20  C10 UNK     1      20.255  -0.159  29.009  1.00  0.00     0.107 C 
HETATM   21  C16 UNK     1      19.049  -0.306  28.098  1.00  0.00     0.015 C 
ENDBRANCH  18  20
ENDBRANCH  17  18
ENDBRANCH   2  17
TORSDOF 6
ENDMDL
MODEL 2
REMARK VINA RESULT:      -7.6      3.241      8.217
REMARK  6 active torsions:
REMARK  status: ('A' for Active; 'I' for Inactive)
REMARK    1  A    between atoms: C11_14  and  O1_1 
REMARK    2  A    between atoms: C2_5  and  O1_1 
REMARK    3  A    between atoms: C3_6  and  O2_2 
REMARK    4  A    between atoms: C1_4  and  C7_10 
REMARK    5  A    between atoms: C8_11  and  C9_12 
REMARK    6  A    between atoms: C10_13  and  C11_14 
ROOT
HETATM    1  C1  UNK     1      18.427   5.583  32.058  1.00  0.00    -0.033 A 
HETATM    2  C2  UNK     1      17.734   7.675  33.738  1.00  0.00     0.112 A 
HETATM    3  C3  UNK     1      16.740   6.881  33.165  1.00  0.00     0.102 A 
HETATM    4  C4  UNK     1      17.089   5.828  32.319  1.00  0.00     0.051 A 
HETATM    5  C5  UNK     1      19.426   6.362  32.620  1.00  0.00     0.014 A 
HETATM    6  C6  UNK     1      19.077   7.415  33.466  1.00  0.00     0.041 A 
ENDROOT
BRANCH   1   7
HETATM    7  C7  UNK     1      18.795   4.470  31.166  1.00  0.00     0.012 C 
HETATM    8  C9  UNK     1      18.261   3.226  31.209  1.00  0.00     0.012 C 
BRANCH   8   9
HETATM    9  C8  UNK     1      18.611   2.132  30.316  1.00  0.00    -0.036 A 
HETATM   10  C12 UNK     1      19.592   1.213  30.689  1.00  0.00     0.011 A 
HETATM   11  C14 UNK     1      19.927   0.165  29.833  1.00  0.00     0.001 A 
HETATM   12  C17 UNK     1      19.280   0.033  28.604  1.00  0.00     0.000 A 
HETATM   13  C15 UNK     1      18.299   0.952  28.231  1.00  0.00     0.001 A 
HETATM   14  C13 UNK     1      17.965   2.001  29.087  1.00  0.00     0.011 A 
ENDBRANCH   8   9
ENDBRANCH   1   7
BRANCH   3  15
HETATM   15  O2  UNK     1      15.425   7.127  33.423  1.00  0.00    -0.353 OA
HETATM   16  C18 UNK     1      14.557   7.255  32.299  1.00  0.00     0.210 C 
ENDBRANCH   3  15
BRANCH   2  17
HETATM   17  O1  UNK     1      17.407   8.705  34.567  1.00  0.00    -0.276 OA
BRANCH  17  18
HETATM   18  C11 UNK     1      17.413   9.969  33.946  1.00  0.00     0.263 C 
HETATM   19  O3  UNK     1      18.409  10.557  33.552  1.00  0.00    -0.265 OA
BRANCH  18  20
HETATM   20  C10 UNK     1      15.994  10.482  33.844  1.00  0.00     0.107 C 
HETATM   21  C16 UNK     1      15.164  10.112  35.061  1.00  0.00     0.015 C 
ENDBRANCH  18  20
ENDBRANCH  17  18
ENDBRANCH   2  17
TORSDOF 6
ENDMDL
MODEL 3
REMARK VINA RESULT:      -7.5      3.294      8.308
REMARK  6 active torsions:
REMARK  status: ('A' for Active; 'I' for Inactive)
REMARK    1  A    between atoms: C11_14  and  O1_1 
REMARK    2  A    between atoms: C2_5  and  O1_1 
REMARK    3  A    between atoms: C3_6  and  O2_2 
REMARK    4  A    between atoms: C1_4  and  C7_10 
REMARK    5  A    between atoms: C8_11  and  C9_12 
REMARK    6  A    between atoms: C10_13  and  C11_14 
ROOT
HETATM    1  C1  UNK     1      18.089   5.573  32.400  1.00  0.00    -0.033 A 
HETATM    2  C2  UNK     1      17.231   7.567  34.122  1.00  0.00     0.112 A 
HETATM    3  C3  UNK     1      18.568   7.168  34.128  1.00  0.00     0.102 A 
HETATM    4  C4  UNK     1      19.000   6.163  33.261  1.00  0.00     0.051 A 
HETATM    5  C5  UNK     1      16.759   5.960  32.381  1.00  0.00     0.014 A 
HETATM    6  C6  UNK     1      16.327   6.964  33.248  1.00  0.00     0.041 A 
ENDROOT
BRANCH   1   7
HETATM    7  C7  UNK     1      18.546   4.514  31.483  1.00  0.00     0.012 C 
HETATM    8  C9  UNK     1      18.124   3.227  31.507  1.00  0.00     0.012 C 
BRANCH   8   9
HETATM    9  C8  UNK     1      18.561   2.185  30.590  1.00  0.00    -0.036 A 
HETATM   10  C12 UNK     1      18.053   2.140  29.292  1.00  0.00     0.011 A 
HETATM   11  C14 UNK     1      18.471   1.142  28.413  1.00  0.00     0.001 A 
HETATM   12  C17 UNK     1      19.399   0.188  28.832  1.00  0.00     0.000 A 
HETATM   13  C15 UNK     1      19.908   0.233  30.130  1.00  0.00     0.001 A 
HETATM   14  C13 UNK     1      19.488   1.232  31.009  1.00  0.00     0.011 A 
ENDBRANCH   8   9
ENDBRANCH   1   7
BRANCH   3  15
HETATM   15  O2  UNK     1      19.460   7.749  34.978  1.00  0.00    -0.353 OA
HETATM   16  C18 UNK     1      20.161   8.894  34.497  1.00  0.00     0.210 C 
ENDBRANCH   3  15
BRANCH   2  17
HETATM   17  O1  UNK     1      16.798   8.548  34.962  1.00  0.00    -0.276 OA
BRANCH  17  18
HETATM   18  C11 UNK     1      16.435   9.744  34.315  1.00  0.00     0.263 C 
HETATM   19  O3  UNK     1      17.142  10.368  33.536  1.00  0.00    -0.265 OA
BRANCH  18  20
HETATM   20  C10 UNK     1      15.035  10.134  34.734  1.00  0.00     0.107 C 
HETATM   21  C16 UNK     1      14.028   9.930  33.615  1.00  0.00     0.015 C 
ENDBRANCH  18  20
ENDBRANCH  17  18
ENDBRANCH   2  17
TORSDOF 6
ENDMDL
MODEL 4
REMARK VINA RESULT:      -7.3      1.707      2.589
REMARK  6 active torsions:
REMARK  status: ('A' for Active; 'I' for Inactive)
REMARK    1  A    between atoms: C11_14  and  O1_1 
REMARK    2  A    between atoms: C2_5  and  O1_1 
REMARK    3  A    between atoms: C3_6  and  O2_2 
REMARK    4  A    between atoms: C1_4  and  C7_10 
REMARK    5  A    between atoms: C8_11  and  C9_12 
REMARK    6  A    between atoms: C10_13  and  C11_14 
ROOT
HETATM    1  C1  UNK     1      17.998   5.866  31.861  1.00  0.00    -0.033 A 
HETATM    2  C2  UNK     1      18.891   3.418  30.920  1.00  0.00     0.112 A 
HETATM    3  C3  UNK     1      18.138   3.482  32.094  1.00  0.00     0.102 A 
HETATM    4  C4  UNK     1      17.690   4.715  32.568  1.00  0.00     0.051 A 
HETATM    5  C5  UNK     1      18.743   5.818  30.694  1.00  0.00     0.014 A 
HETATM    6  C6  UNK     1      19.192   4.585  30.220  1.00  0.00     0.041 A 
ENDROOT
BRANCH   1   7
HETATM    7  C7  UNK     1      17.522   7.168  32.361  1.00  0.00     0.012 C 
HETATM    8  C9  UNK     1      16.591   7.339  33.329  1.00  0.00     0.012 C 
BRANCH   8   9
HETATM    9  C8  UNK     1      16.135   8.624  33.836  1.00  0.00    -0.036 A 
HETATM   10  C12 UNK     1      14.806   8.787  34.229  1.00  0.00     0.011 A 
HETATM   11  C14 UNK     1      14.369  10.019  34.715  1.00  0.00     0.001 A 
HETATM   12  C17 UNK     1      15.260  11.088  34.809  1.00  0.00     0.000 A 
HETATM   13  C15 UNK     1      16.589  10.925  34.416  1.00  0.00     0.001 A 
HETATM   14  C13 UNK     1      17.025   9.693  33.930  1.00  0.00     0.011 A 
ENDBRANCH   8   9
ENDBRANCH   1   7
BRANCH   3  15
HETATM   15  O2  UNK     1      17.839   2.349  32.786  1.00  0.00    -0.353 OA
HETATM   16  C18 UNK     1      18.218   2.310  34.161  1.00  0.00     0.210 C 
ENDBRANCH   3  15
BRANCH   2  17
HETATM   17  O1  UNK     1      19.334   2.220  30.447  1.00  0.00    -0.276 OA
BRANCH  17  18
HETATM   18  C11 UNK     1      18.487   1.629  29.490  1.00  0.00     0.263 C 
HETATM   19  O3  UNK     1      17.315   1.926  29.304  1.00  0.00    -0.265 OA
BRANCH  18  20
HETATM   20  C10 UNK     1      19.255   0.573  28.727  1.00  0.00     0.107 C 
HETATM   21  C16 UNK     1      20.117  -0.278  29.645  1.00  0.00     0.015 C 
ENDBRANCH  18  20
ENDBRANCH  17  18
ENDBRANCH   2  17
TORSDOF 6
ENDMDL
MODEL 5
REMARK VINA RESULT:      -7.2      3.043      4.927
REMARK  6 active torsions:
REMARK  status: ('A' for Active; 'I' for Inactive)
REMARK    1  A    between atoms: C11_14  and  O1_1 
REMARK    2  A    between atoms: C2_5  and  O1_1 
REMARK    3  A    between atoms: C3_6  and  O2_2 
REMARK    4  A    between atoms: C1_4  and  C7_10 
REMARK    5  A    between atoms: C8_11  and  C9_12 
REMARK    6  A    between atoms: C10_13  and  C11_14 
ROOT
HETATM    1  C1  UNK     1      18.441   2.064  34.810  1.00  0.00    -0.033 A 
HETATM    2  C2  UNK     1      18.707  -0.664  35.216  1.00  0.00     0.112 A 
HETATM    3  C3  UNK     1      18.374  -0.176  33.952  1.00  0.00     0.102 A 
HETATM    4  C4  UNK     1      18.239   1.197  33.748  1.00  0.00     0.051 A 
HETATM    5  C5  UNK     1      18.772   1.595  36.070  1.00  0.00     0.014 A 
HETATM    6  C6  UNK     1      18.906   0.221  36.275  1.00  0.00     0.041 A 
ENDROOT
BRANCH   1   7
HETATM    7  C7  UNK     1      18.300   3.514  34.593  1.00  0.00     0.012 C 
HETATM    8  C9  UNK     1      18.227   4.119  33.384  1.00  0.00     0.012 C 
BRANCH   8   9
HETATM    9  C8  UNK     1      18.069   5.550  33.170  1.00  0.00    -0.036 A 
HETATM   10  C12 UNK     1      18.982   6.443  33.730  1.00  0.00     0.011 A 
HETATM   11  C14 UNK     1      18.831   7.815  33.526  1.00  0.00     0.001 A 
HETATM   12  C17 UNK     1      17.768   8.293  32.758  1.00  0.00     0.000 A 
HETATM   13  C15 UNK     1      16.855   7.399  32.198  1.00  0.00     0.001 A 
HETATM   14  C13 UNK     1      17.006   6.027  32.404  1.00  0.00     0.011 A 
ENDBRANCH   8   9
ENDBRANCH   1   7
BRANCH   3  15
HETATM   15  O2  UNK     1      18.175  -1.031  32.911  1.00  0.00    -0.353 OA
HETATM   16  C18 UNK     1      19.268  -1.229  32.017  1.00  0.00     0.210 C 
ENDBRANCH   3  15
BRANCH   2  17
HETATM   17  O1  UNK     1      18.842  -2.003  35.428  1.00  0.00    -0.276 OA
BRANCH  17  18
HETATM   18  C11 UNK     1      20.163  -2.416  35.684  1.00  0.00     0.263 C 
HETATM   19  O3  UNK     1      21.116  -2.238  34.939  1.00  0.00    -0.265 OA
BRANCH  18  20
HETATM   20  C10 UNK     1      20.218  -3.111  37.026  1.00  0.00     0.107 C 
HETATM   21  C16 UNK     1      20.208  -4.623  36.885  1.00  0.00     0.015 C 
ENDBRANCH  18  20
ENDBRANCH  17  18
ENDBRANCH   2  17
TORSDOF 6
ENDMDL
MODEL 6
REMARK VINA RESULT:      -7.2      8.079     10.759
REMARK  6 active torsions:
REMARK  status: ('A' for Active; 'I' for Inactive)
REMARK    1  A    between atoms: C11_14  and  O1_1 
REMARK    2  A    between atoms: C2_5  and  O1_1 
REMARK    3  A    between atoms: C3_6  and  O2_2 
REMARK    4  A    between atoms: C1_4  and  C7_10 
REMARK    5  A    between atoms: C8_11  and  C9_12 
REMARK    6  A    between atoms: C10_13  and  C11_14 
ROOT
HETATM    1  C1  UNK     1      20.081  -4.469  37.051  1.00  0.00    -0.033 A 
HETATM    2  C2  UNK     1      20.564  -7.193  36.904  1.00  0.00     0.112 A 
HETATM    3  C3  UNK     1      21.466  -6.359  37.566  1.00  0.00     0.102 A 
HETATM    4  C4  UNK     1      21.223  -4.987  37.639  1.00  0.00     0.051 A 
HETATM    5  C5  UNK     1      19.175  -5.283  36.391  1.00  0.00     0.014 A 
HETATM    6  C6  UNK     1      19.419  -6.656  36.317  1.00  0.00     0.041 A 
ENDROOT
BRANCH   1   7
HETATM    7  C7  UNK     1      19.823  -3.020  37.130  1.00  0.00     0.012 C 
HETATM    8  C9  UNK     1      18.718  -2.397  36.657  1.00  0.00     0.012 C 
BRANCH   8   9
HETATM    9  C8  UNK     1      18.455  -0.969  36.752  1.00  0.00    -0.036 A 
HETATM   10  C12 UNK     1      17.770  -0.458  37.854  1.00  0.00     0.011 A 
HETATM   11  C14 UNK     1      17.518   0.911  37.944  1.00  0.00     0.001 A 
HETATM   12  C17 UNK     1      17.952   1.769  36.934  1.00  0.00     0.000 A 
HETATM   13  C15 UNK     1      18.638   1.257  35.832  1.00  0.00     0.001 A 
HETATM   14  C13 UNK     1      18.889  -0.112  35.741  1.00  0.00     0.011 A 
ENDBRANCH   8   9
ENDBRANCH   1   7
BRANCH   3  15
HETATM   15  O2  UNK     1      22.588  -6.873  38.141  1.00  0.00    -0.353 OA
HETATM   16  C18 UNK     1      22.519  -7.184  39.531  1.00  0.00     0.210 C 
ENDBRANCH   3  15
BRANCH   2  17
HETATM   17  O1  UNK     1      20.789  -8.534  36.826  1.00  0.00    -0.276 OA
BRANCH  17  18
HETATM   18  C11 UNK     1      21.544  -8.928  35.705  1.00  0.00     0.263 C 
HETATM   19  O3  UNK     1      21.320  -8.594  34.550  1.00  0.00    -0.265 OA
BRANCH  18  20
HETATM   20  C10 UNK     1      22.673  -9.828  36.154  1.00  0.00     0.107 C 
HETATM   21  C16 UNK     1      22.560 -11.223  35.563  1.00  0.00     0.015 C 
ENDBRANCH  18  20
ENDBRANCH  17  18
ENDBRANCH   2  17
TORSDOF 6
ENDMDL
MODEL 7
REMARK VINA RESULT:      -7.1      8.157     10.902
REMARK  6 active torsions:
REMARK  status: ('A' for Active; 'I' for Inactive)
REMARK    1  A    between atoms: C11_14  and  O1_1 
REMARK    2  A    between atoms: C2_5  and  O1_1 
REMARK    3  A    between atoms: C3_6  and  O2_2 
REMARK    4  A    between atoms: C1_4  and  C7_10 
REMARK    5  A    between atoms: C8_11  and  C9_12 
REMARK    6  A    between atoms: C10_13  and  C11_14 
ROOT
HETATM    1  C1  UNK     1      20.330  -4.347  37.019  1.00  0.00    -0.033 A 
HETATM    2  C2  UNK     1      20.936  -7.048  37.140  1.00  0.00     0.112 A 
HETATM    3  C3  UNK     1      19.945  -6.593  36.270  1.00  0.00     0.102 A 
HETATM    4  C4  UNK     1      19.639  -5.233  36.209  1.00  0.00     0.051 A 
HETATM    5  C5  UNK     1      21.317  -4.782  37.888  1.00  0.00     0.014 A 
HETATM    6  C6  UNK     1      21.623  -6.143  37.949  1.00  0.00     0.041 A 
ENDROOT
BRANCH   1   7
HETATM    7  C7  UNK     1      20.008  -2.910  36.954  1.00  0.00     0.012 C 
HETATM    8  C9  UNK     1      18.771  -2.396  36.759  1.00  0.00     0.012 C 
BRANCH   8   9
HETATM    9  C8  UNK     1      18.450  -0.978  36.714  1.00  0.00    -0.036 A 
HETATM   10  C12 UNK     1      17.781  -0.379  37.781  1.00  0.00     0.011 A 
HETATM   11  C14 UNK     1      17.474   0.981  37.738  1.00  0.00     0.001 A 
HETATM   12  C17 UNK     1      17.837   1.743  36.627  1.00  0.00     0.000 A 
HETATM   13  C15 UNK     1      18.507   1.144  35.559  1.00  0.00     0.001 A 
HETATM   14  C13 UNK     1      18.813  -0.216  35.603  1.00  0.00     0.011 A 
ENDBRANCH   8   9
ENDBRANCH   1   7
BRANCH   3  15
HETATM   15  O2  UNK     1      19.267  -7.468  35.477  1.00  0.00    -0.353 OA
HETATM   16  C18 UNK     1      17.847  -7.495  35.608  1.00  0.00     0.210 C 
ENDBRANCH   3  15
BRANCH   2  17
HETATM   17  O1  UNK     1      21.244  -8.373  37.207  1.00  0.00    -0.276 OA
BRANCH  17  18
HETATM   18  C11 UNK     1      20.891  -8.986  38.424  1.00  0.00     0.263 C 
HETATM   19  O3  UNK     1      21.583  -9.004  39.432  1.00  0.00    -0.265 OA
BRANCH  18  20
HETATM   20  C10 UNK     1      19.524  -9.617  38.287  1.00  0.00     0.107 C 
HETATM   21  C16 UNK     1      19.525 -10.772  37.300  1.00  0.00     0.015 C 
ENDBRANCH  18  20
ENDBRANCH  17  18
ENDBRANCH   2  17
TORSDOF 6
ENDMDL
MODEL 8
REMARK VINA RESULT:      -7.1      8.019     10.735
REMARK  6 active torsions:
REMARK  status: ('A' for Active; 'I' for Inactive)
REMARK    1  A    between atoms: C11_14  and  O1_1 
REMARK    2  A    between atoms: C2_5  and  O1_1 
REMARK    3  A    between atoms: C3_6  and  O2_2 
REMARK    4  A    between atoms: C1_4  and  C7_10 
REMARK    5  A    between atoms: C8_11  and  C9_12 
REMARK    6  A    between atoms: C10_13  and  C11_14 
ROOT
HETATM    1  C1  UNK     1      20.298  -4.442  37.042  1.00  0.00    -0.033 A 
HETATM    2  C2  UNK     1      20.855  -7.146  37.278  1.00  0.00     0.112 A 
HETATM    3  C3  UNK     1      19.836  -6.715  36.428  1.00  0.00     0.102 A 
HETATM    4  C4  UNK     1      19.555  -5.354  36.310  1.00  0.00     0.051 A 
HETATM    5  C5  UNK     1      21.314  -4.854  37.889  1.00  0.00     0.014 A 
HETATM    6  C6  UNK     1      21.594  -6.216  38.008  1.00  0.00     0.041 A 
ENDROOT
BRANCH   1   7
HETATM    7  C7  UNK     1      20.002  -3.004  36.916  1.00  0.00     0.012 C 
HETATM    8  C9  UNK     1      18.762  -2.463  36.880  1.00  0.00     0.012 C 
BRANCH   8   9
HETATM    9  C8  UNK     1      18.470  -1.042  36.774  1.00  0.00    -0.036 A 
HETATM   10  C12 UNK     1      17.777  -0.393  37.797  1.00  0.00     0.011 A 
HETATM   11  C14 UNK     1      17.497   0.969  37.696  1.00  0.00     0.001 A 
HETATM   12  C17 UNK     1      17.912   1.685  36.572  1.00  0.00     0.000 A 
HETATM   13  C15 UNK     1      18.604   1.037  35.549  1.00  0.00     0.001 A 
HETATM   14  C13 UNK     1      18.883  -0.326  35.651  1.00  0.00     0.011 A 
ENDBRANCH   8   9
ENDBRANCH   1   7
BRANCH   3  15
HETATM   15  O2  UNK     1      19.106  -7.614  35.712  1.00  0.00    -0.353 OA
HETATM   16  C18 UNK     1      17.721  -7.327  35.529  1.00  0.00     0.210 C 
ENDBRANCH   3  15
BRANCH   2  17
HETATM   17  O1  UNK     1      21.139  -8.472  37.401  1.00  0.00    -0.276 OA
BRANCH  17  18
HETATM   18  C11 UNK     1      22.300  -8.879  36.716  1.00  0.00     0.263 C 
HETATM   19  O3  UNK     1      23.447  -8.614  37.050  1.00  0.00    -0.265 OA
BRANCH  18  20
HETATM   20  C10 UNK     1      21.906  -9.696  35.506  1.00  0.00     0.107 C 
HETATM   21  C16 UNK     1      22.551 -11.071  35.513  1.00  0.00     0.015 C 
ENDBRANCH  18  20
ENDBRANCH  17  18
ENDBRANCH   2  17
TORSDOF 6
ENDMDL
MODEL 9
REMARK VINA RESULT:      -6.8      3.801      8.287
REMARK  6 active torsions:
REMARK  status: ('A' for Active; 'I' for Inactive)
REMARK    1  A    between atoms: C11_14  and  O1_1 
REMARK    2  A    between atoms: C2_5  and  O1_1 
REMARK    3  A    between atoms: C3_6  and  O2_2 
REMARK    4  A    between atoms: C1_4  and  C7_10 
REMARK    5  A    between atoms: C8_11  and  C9_12 
REMARK    6  A    between atoms: C10_13  and  C11_14 
ROOT
HETATM    1  C1  UNK     1      18.105   5.338  33.269  1.00  0.00    -0.033 A 
HETATM    2  C2  UNK     1      17.744   8.079  33.083  1.00  0.00     0.112 A 
HETATM    3  C3  UNK     1      16.861   7.213  32.438  1.00  0.00     0.102 A 
HETATM    4  C4  UNK     1      17.043   5.833  32.530  1.00  0.00     0.051 A 
HETATM    5  C5  UNK     1      18.991   6.184  33.916  1.00  0.00     0.014 A 
HETATM    6  C6  UNK     1      18.809   7.565  33.823  1.00  0.00     0.041 A 
ENDROOT
BRANCH   1   7
HETATM    7  C7  UNK     1      18.297   3.880  33.368  1.00  0.00     0.012 C 
HETATM    8  C9  UNK     1      18.244   3.163  34.516  1.00  0.00     0.012 C 
BRANCH   8   9
HETATM    9  C8  UNK     1      18.414   1.722  34.612  1.00  0.00    -0.036 A 
HETATM   10  C12 UNK     1      18.283   0.926  33.473  1.00  0.00     0.011 A 
HETATM   11  C14 UNK     1      18.446  -0.456  33.565  1.00  0.00     0.001 A 
HETATM   12  C17 UNK     1      18.742  -1.043  34.796  1.00  0.00     0.000 A 
HETATM   13  C15 UNK     1      18.873  -0.248  35.934  1.00  0.00     0.001 A 
HETATM   14  C13 UNK     1      18.709   1.134  35.842  1.00  0.00     0.011 A 
ENDBRANCH   8   9
ENDBRANCH   1   7
BRANCH   3  15
HETATM   15  O2  UNK     1      15.819   7.704  31.711  1.00  0.00    -0.353 OA
HETATM   16  C18 UNK     1      14.525   7.171  31.991  1.00  0.00     0.210 C 
ENDBRANCH   3  15
BRANCH   2  17
HETATM   17  O1  UNK     1      17.576   9.428  33.001  1.00  0.00    -0.276 OA
BRANCH  17  18
HETATM   18  C11 UNK     1      16.822   9.981  34.053  1.00  0.00     0.263 C 
HETATM   19  O3  UNK     1      15.946   9.398  34.677  1.00  0.00    -0.265 OA
BRANCH  18  20
HETATM   20  C10 UNK     1      17.267  11.406  34.292  1.00  0.00     0.107 C 
HETATM   21  C16 UNK     1      18.720  11.622  33.905  1.00  0.00     0.015 C 
ENDBRANCH  18  20
ENDBRANCH  17  18
ENDBRANCH   2  17
TORSDOF 6
ENDMDL
MODEL 10
REMARK VINA RESULT:      -6.8      6.344     11.024
REMARK  6 active torsions:
REMARK  status: ('A' for Active; 'I' for Inactive)
REMARK    1  A    between atoms: C11_14  and  O1_1 
REMARK    2  A    between atoms: C2_5  and  O1_1 
REMARK    3  A    between atoms: C3_6  and  O2_2 
REMARK    4  A    between atoms: C1_4  and  C7_10 
REMARK    5  A    between atoms: C8_11  and  C9_12 
REMARK    6  A    between atoms: C10_13  and  C11_14 
ROOT
HETATM    1  C1  UNK     1      19.197  -2.605  36.618  1.00  0.00    -0.033 A 
HETATM    2  C2  UNK     1      17.862  -0.856  34.934  1.00  0.00     0.112 A 
HETATM    3  C3  UNK     1      19.047  -1.462  34.514  1.00  0.00     0.102 A 
HETATM    4  C4  UNK     1      19.720  -2.341  35.362  1.00  0.00     0.051 A 
HETATM    5  C5  UNK     1      18.021  -2.012  37.049  1.00  0.00     0.014 A 
HETATM    6  C6  UNK     1      17.349  -1.131  36.201  1.00  0.00     0.041 A 
ENDROOT
BRANCH   1   7
HETATM    7  C7  UNK     1      19.907  -3.535  37.514  1.00  0.00     0.012 C 
HETATM    8  C9  UNK     1      20.262  -4.803  37.197  1.00  0.00     0.012 C 
BRANCH   8   9
HETATM    9  C8  UNK     1      20.979  -5.716  38.075  1.00  0.00    -0.036 A 
HETATM   10  C12 UNK     1      22.346  -5.543  38.295  1.00  0.00     0.011 A 
HETATM   11  C14 UNK     1      23.033  -6.418  39.136  1.00  0.00     0.001 A 
HETATM   12  C17 UNK     1      22.353  -7.465  39.758  1.00  0.00     0.000 A 
HETATM   13  C15 UNK     1      20.987  -7.639  39.538  1.00  0.00     0.001 A 
HETATM   14  C13 UNK     1      20.300  -6.764  38.696  1.00  0.00     0.011 A 
ENDBRANCH   8   9
ENDBRANCH   1   7
BRANCH   3  15
HETATM   15  O2  UNK     1      19.558  -1.199  33.279  1.00  0.00    -0.353 OA
HETATM   16  C18 UNK     1      20.418  -2.185  32.710  1.00  0.00     0.210 C 
ENDBRANCH   3  15
BRANCH   2  17
HETATM   17  O1  UNK     1      17.196   0.004  34.114  1.00  0.00    -0.276 OA
BRANCH  17  18
HETATM   18  C11 UNK     1      17.694   1.320  34.132  1.00  0.00     0.263 C 
HETATM   19  O3  UNK     1      17.957   1.990  33.143  1.00  0.00    -0.265 OA
BRANCH  18  20
HETATM   20  C10 UNK     1      17.850   1.776  35.565  1.00  0.00     0.107 C 
HETATM   21  C16 UNK     1      19.288   2.138  35.895  1.00  0.00     0.015 C 
ENDBRANCH  18  20
ENDBRANCH  17  18
ENDBRANCH   2  17
TORSDOF 6
ENDMDL
