MODEL 1
REMARK VINA RESULT:      -9.7      0.000      0.000
REMARK  6 active torsions:
REMARK  status: ('A' for Active; 'I' for Inactive)
REMARK    1  A    between atoms: C21_28  and  O5_5 
REMARK    2  A    between atoms: C23_30  and  O6_6 
REMARK    3  A    between atoms: C13_20  and  N1_7 
REMARK    4  A    between atoms: C10_17  and  C4_11 
REMARK    5  A    between atoms: C13_20  and  C14_21 
REMARK    6  A    between atoms: C14_21  and  C16_23 
ROOT
HETATM    1  O1  UNK     1      17.526   1.750  34.214  1.00  0.00    -0.332 OA
HETATM    2  O2  UNK     1      19.889  -1.655  31.602  1.00  0.00    -0.274 OA
HETATM    3  O3  UNK     1      17.189  -1.275  36.053  1.00  0.00    -0.289 OA
HETATM    4  O4  UNK     1      20.942  -3.212  30.291  1.00  0.00    -0.260 OA
HETATM    5  C1  UNK     1      17.596   1.037  35.444  1.00  0.00     0.125 C 
HETATM    6  C2  UNK     1      18.773  -0.016  33.029  1.00  0.00     0.048 A 
HETATM    7  C3  UNK     1      17.733  -0.477  35.294  1.00  0.00     0.196 C 
HETATM    8  C4  UNK     1      18.634  -0.917  34.189  1.00  0.00     0.044 C 
HETATM    9  C5  UNK     1      18.210   1.269  33.130  1.00  0.00     0.084 A 
HETATM   10  C6  UNK     1      16.292   1.359  36.184  1.00  0.00     0.055 C 
HETATM   11  C7  UNK     1      18.782   1.571  36.258  1.00  0.00     0.055 C 
HETATM   12  C8  UNK     1      19.375  -0.349  31.798  1.00  0.00     0.103 A 
HETATM   13  C9  UNK     1      19.459   0.554  30.731  1.00  0.00    -0.001 A 
HETATM   14  C11 UNK     1      18.282   2.177  32.063  1.00  0.00     0.039 A 
HETATM   15  C12 UNK     1      18.912   1.827  30.872  1.00  0.00     0.017 A 
HETATM   16  C15 UNK     1      20.101   0.149  29.490  1.00  0.00     0.020 A 
HETATM   17  C17 UNK     1      20.591  -1.082  29.346  1.00  0.00     0.083 A 
HETATM   18  C18 UNK     1      20.500  -2.076  30.427  1.00  0.00     0.288 A 
ENDROOT
BRANCH   8  19
HETATM   19  C10 UNK     1      19.312  -2.049  34.435  1.00  0.00     0.099 C 
HETATM   20  N1  UNK     1      19.628  -2.578  35.639  1.00  0.00    -0.398 N 
HETATM   21  H12 UNK     1      19.346  -2.084  36.478  1.00  0.00     0.158 HD
BRANCH  20  22
HETATM   22  C13 UNK     1      20.394  -3.793  35.807  1.00  0.00     0.123 C 
BRANCH  22  23
HETATM   23  C14 UNK     1      20.475  -4.188  37.282  1.00  0.00     0.058 C 
BRANCH  23  24
HETATM   24  C16 UNK     1      20.000  -5.597  37.543  1.00  0.00    -0.054 A 
HETATM   25  C19 UNK     1      19.243  -6.248  36.582  1.00  0.00     0.046 A 
HETATM   26  C21 UNK     1      18.804  -7.550  36.824  1.00  0.00     0.102 A 
HETATM   27  C23 UNK     1      19.128  -8.184  38.024  1.00  0.00     0.101 A 
HETATM   28  C22 UNK     1      19.891  -7.515  38.982  1.00  0.00     0.040 A 
HETATM   29  C20 UNK     1      20.330  -6.214  38.740  1.00  0.00     0.010 A 
BRANCH  26  30
HETATM   30  O5  UNK     1      18.060  -8.192  35.881  1.00  0.00    -0.353 OA
HETATM   31  C24 UNK     1      17.035  -7.435  35.238  1.00  0.00     0.210 C 
ENDBRANCH  26  30
BRANCH  27  32
HETATM   32  O6  UNK     1      18.706  -9.455  38.270  1.00  0.00    -0.353 OA
HETATM   33  C25 UNK     1      19.692 -10.485  38.228  1.00  0.00     0.210 C 
ENDBRANCH  27  32
ENDBRANCH  23  24
ENDBRANCH  22  23
ENDBRANCH  20  22
ENDBRANCH   8  19
TORSDOF 6
ENDMDL
MODEL 2
REMARK VINA RESULT:      -9.6      4.449      9.653
REMARK  6 active torsions:
REMARK  status: ('A' for Active; 'I' for Inactive)
REMARK    1  A    between atoms: C21_28  and  O5_5 
REMARK    2  A    between atoms: C23_30  and  O6_6 
REMARK    3  A    between atoms: C13_20  and  N1_7 
REMARK    4  A    between atoms: C10_17  and  C4_11 
REMARK    5  A    between atoms: C13_20  and  C14_21 
REMARK    6  A    between atoms: C14_21  and  C16_23 
ROOT
HETATM    1  O1  UNK     1      18.615  -0.111  35.482  1.00  0.00    -0.332 OA
HETATM    2  O2  UNK     1      19.541   0.258  30.686  1.00  0.00    -0.274 OA
HETATM    3  O3  UNK     1      18.192   3.328  34.685  1.00  0.00    -0.289 OA
HETATM    4  O4  UNK     1      20.065   0.372  28.458  1.00  0.00    -0.260 OA
HETATM    5  C1  UNK     1      17.856   1.091  35.557  1.00  0.00     0.125 C 
HETATM    6  C2  UNK     1      18.962   0.167  33.058  1.00  0.00     0.048 A 
HETATM    7  C3  UNK     1      18.184   2.118  34.476  1.00  0.00     0.196 C 
HETATM    8  C4  UNK     1      18.434   1.543  33.122  1.00  0.00     0.044 C 
HETATM    9  C5  UNK     1      19.007  -0.571  34.253  1.00  0.00     0.084 A 
HETATM   10  C6  UNK     1      18.162   1.688  36.936  1.00  0.00     0.055 C 
HETATM   11  C7  UNK     1      16.365   0.738  35.480  1.00  0.00     0.055 C 
HETATM   12  C8  UNK     1      19.482  -0.460  31.906  1.00  0.00     0.103 A 
HETATM   13  C9  UNK     1      19.982  -1.768  31.921  1.00  0.00    -0.001 A 
HETATM   14  C11 UNK     1      19.515  -1.879  34.279  1.00  0.00     0.039 A 
HETATM   15  C12 UNK     1      19.990  -2.480  33.117  1.00  0.00     0.017 A 
HETATM   16  C15 UNK     1      20.496  -2.359  30.695  1.00  0.00     0.020 A 
HETATM   17  C17 UNK     1      20.520  -1.661  29.559  1.00  0.00     0.083 A 
HETATM   18  C18 UNK     1      20.034  -0.274  29.499  1.00  0.00     0.288 A 
ENDROOT
BRANCH   8  19
HETATM   19  C10 UNK     1      18.035   2.318  32.101  1.00  0.00     0.099 C 
HETATM   20  N1  UNK     1      18.811   2.963  31.200  1.00  0.00    -0.398 N 
HETATM   21  H12 UNK     1      19.818   2.884  31.280  1.00  0.00     0.158 HD
BRANCH  20  22
HETATM   22  C13 UNK     1      18.290   3.807  30.148  1.00  0.00     0.123 C 
BRANCH  22  23
HETATM   23  C14 UNK     1      19.163   5.047  29.959  1.00  0.00     0.058 C 
BRANCH  23  24
HETATM   24  C16 UNK     1      19.280   5.884  31.210  1.00  0.00    -0.054 A 
HETATM   25  C19 UNK     1      18.165   6.557  31.684  1.00  0.00     0.046 A 
HETATM   26  C21 UNK     1      18.273   7.331  32.840  1.00  0.00     0.102 A 
HETATM   27  C23 UNK     1      19.495   7.420  33.507  1.00  0.00     0.101 A 
HETATM   28  C22 UNK     1      20.609   6.737  33.018  1.00  0.00     0.040 A 
HETATM   29  C20 UNK     1      20.500   5.964  31.862  1.00  0.00     0.010 A 
BRANCH  26  30
HETATM   30  O5  UNK     1      17.179   7.993  33.308  1.00  0.00    -0.353 OA
HETATM   31  C24 UNK     1      16.078   7.198  33.746  1.00  0.00     0.210 C 
ENDBRANCH  26  30
BRANCH  27  32
HETATM   32  O6  UNK     1      19.613   8.171  34.637  1.00  0.00    -0.353 OA
HETATM   33  C25 UNK     1      20.328   9.400  34.528  1.00  0.00     0.210 C 
ENDBRANCH  27  32
ENDBRANCH  23  24
ENDBRANCH  22  23
ENDBRANCH  20  22
ENDBRANCH   8  19
TORSDOF 6
ENDMDL
MODEL 3
REMARK VINA RESULT:      -9.4      0.768      1.754
REMARK  6 active torsions:
REMARK  status: ('A' for Active; 'I' for Inactive)
REMARK    1  A    between atoms: C21_28  and  O5_5 
REMARK    2  A    between atoms: C23_30  and  O6_6 
REMARK    3  A    between atoms: C13_20  and  N1_7 
REMARK    4  A    between atoms: C10_17  and  C4_11 
REMARK    5  A    between atoms: C13_20  and  C14_21 
REMARK    6  A    between atoms: C14_21  and  C16_23 
ROOT
HETATM    1  O1  UNK     1      17.532   1.881  34.176  1.00  0.00    -0.332 OA
HETATM    2  O2  UNK     1      19.855  -1.487  31.482  1.00  0.00    -0.274 OA
HETATM    3  O3  UNK     1      17.274  -1.157  36.007  1.00  0.00    -0.289 OA
HETATM    4  O4  UNK     1      20.886  -3.027  30.134  1.00  0.00    -0.260 OA
HETATM    5  C1  UNK     1      17.642   1.162  35.400  1.00  0.00     0.125 C 
HETATM    6  C2  UNK     1      18.762   0.134  32.948  1.00  0.00     0.048 A 
HETATM    7  C3  UNK     1      17.789  -0.349  35.238  1.00  0.00     0.196 C 
HETATM    8  C4  UNK     1      18.664  -0.775  34.106  1.00  0.00     0.044 C 
HETATM    9  C5  UNK     1      18.191   1.412  33.070  1.00  0.00     0.084 A 
HETATM   10  C6  UNK     1      16.355   1.467  36.177  1.00  0.00     0.055 C 
HETATM   11  C7  UNK     1      18.844   1.703  36.183  1.00  0.00     0.055 C 
HETATM   12  C8  UNK     1      19.334  -0.187  31.699  1.00  0.00     0.103 A 
HETATM   13  C9  UNK     1      19.380   0.722  30.635  1.00  0.00    -0.001 A 
HETATM   14  C11 UNK     1      18.224   2.326  32.007  1.00  0.00     0.039 A 
HETATM   15  C12 UNK     1      18.825   1.989  30.798  1.00  0.00     0.017 A 
HETATM   16  C15 UNK     1      19.992   0.330  29.375  1.00  0.00     0.020 A 
HETATM   17  C17 UNK     1      20.489  -0.896  29.211  1.00  0.00     0.083 A 
HETATM   18  C18 UNK     1      20.438  -1.896  30.288  1.00  0.00     0.288 A 
ENDROOT
BRANCH   8  19
HETATM   19  C10 UNK     1      19.360  -1.902  34.328  1.00  0.00     0.099 C 
HETATM   20  N1  UNK     1      19.437  -2.613  35.475  1.00  0.00    -0.398 N 
HETATM   21  H12 UNK     1      18.932  -2.282  36.289  1.00  0.00     0.158 HD
BRANCH  20  22
HETATM   22  C13 UNK     1      20.243  -3.804  35.630  1.00  0.00     0.123 C 
BRANCH  22  23
HETATM   23  C14 UNK     1      20.453  -4.133  37.108  1.00  0.00     0.058 C 
BRANCH  23  24
HETATM   24  C16 UNK     1      20.047  -5.543  37.463  1.00  0.00    -0.054 A 
HETATM   25  C19 UNK     1      20.724  -6.211  38.471  1.00  0.00     0.046 A 
HETATM   26  C21 UNK     1      20.349  -7.514  38.800  1.00  0.00     0.102 A 
HETATM   27  C23 UNK     1      19.301  -8.131  38.116  1.00  0.00     0.101 A 
HETATM   28  C22 UNK     1      18.630  -7.446  37.104  1.00  0.00     0.040 A 
HETATM   29  C20 UNK     1      19.005  -6.144  36.776  1.00  0.00     0.010 A 
BRANCH  26  30
HETATM   30  O5  UNK     1      21.012  -8.172  39.791  1.00  0.00    -0.353 OA
HETATM   31  C24 UNK     1      22.438  -8.115  39.766  1.00  0.00     0.210 C 
ENDBRANCH  26  30
BRANCH  27  32
HETATM   32  O6  UNK     1      18.925  -9.402  38.429  1.00  0.00    -0.353 OA
HETATM   33  C25 UNK     1      19.408 -10.447  37.587  1.00  0.00     0.210 C 
ENDBRANCH  27  32
ENDBRANCH  23  24
ENDBRANCH  22  23
ENDBRANCH  20  22
ENDBRANCH   8  19
TORSDOF 6
ENDMDL
MODEL 4
REMARK VINA RESULT:      -9.1      4.091      9.815
REMARK  6 active torsions:
REMARK  status: ('A' for Active; 'I' for Inactive)
REMARK    1  A    between atoms: C21_28  and  O5_5 
REMARK    2  A    between atoms: C23_30  and  O6_6 
REMARK    3  A    between atoms: C13_20  and  N1_7 
REMARK    4  A    between atoms: C10_17  and  C4_11 
REMARK    5  A    between atoms: C13_20  and  C14_21 
REMARK    6  A    between atoms: C14_21  and  C16_23 
ROOT
HETATM    1  O1  UNK     1      18.460  -0.539  36.297  1.00  0.00    -0.332 OA
HETATM    2  O2  UNK     1      19.579   0.019  31.560  1.00  0.00    -0.274 OA
HETATM    3  O3  UNK     1      17.862   2.889  35.567  1.00  0.00    -0.289 OA
HETATM    4  O4  UNK     1      20.196   0.225  29.363  1.00  0.00    -0.260 OA
HETATM    5  C1  UNK     1      17.626   0.612  36.366  1.00  0.00     0.125 C 
HETATM    6  C2  UNK     1      18.899  -0.173  33.899  1.00  0.00     0.048 A 
HETATM    7  C3  UNK     1      17.939   1.687  35.328  1.00  0.00     0.196 C 
HETATM    8  C4  UNK     1      18.285   1.166  33.972  1.00  0.00     0.044 C 
HETATM    9  C5  UNK     1      18.935  -0.940  35.076  1.00  0.00     0.084 A 
HETATM   10  C6  UNK     1      17.831   1.188  37.772  1.00  0.00     0.055 C 
HETATM   11  C7  UNK     1      16.164   0.173  36.210  1.00  0.00     0.055 C 
HETATM   12  C8  UNK     1      19.509  -0.735  32.758  1.00  0.00     0.103 A 
HETATM   13  C9  UNK     1      20.087  -2.011  32.764  1.00  0.00    -0.001 A 
HETATM   14  C11 UNK     1      19.520  -2.215  35.093  1.00  0.00     0.039 A 
HETATM   15  C12 UNK     1      20.085  -2.754  33.941  1.00  0.00     0.017 A 
HETATM   16  C15 UNK     1      20.692  -2.535  31.549  1.00  0.00     0.020 A 
HETATM   17  C17 UNK     1      20.725  -1.806  30.433  1.00  0.00     0.083 A 
HETATM   18  C18 UNK     1      20.157  -0.450  30.385  1.00  0.00     0.288 A 
ENDROOT
BRANCH   8  19
HETATM   19  C10 UNK     1      17.886   1.944  32.953  1.00  0.00     0.099 C 
HETATM   20  N1  UNK     1      18.582   2.930  32.345  1.00  0.00    -0.398 N 
HETATM   21  H12 UNK     1      19.516   3.145  32.677  1.00  0.00     0.158 HD
BRANCH  20  22
HETATM   22  C13 UNK     1      18.056   3.742  31.270  1.00  0.00     0.123 C 
BRANCH  22  23
HETATM   23  C14 UNK     1      18.723   5.116  31.244  1.00  0.00     0.058 C 
BRANCH  23  24
HETATM   24  C16 UNK     1      18.200   6.048  32.310  1.00  0.00    -0.054 A 
HETATM   25  C19 UNK     1      19.094   6.672  33.166  1.00  0.00     0.046 A 
HETATM   26  C21 UNK     1      18.610   7.533  34.152  1.00  0.00     0.102 A 
HETATM   27  C23 UNK     1      17.239   7.759  34.268  1.00  0.00     0.101 A 
HETATM   28  C22 UNK     1      16.351   7.123  33.400  1.00  0.00     0.040 A 
HETATM   29  C20 UNK     1      16.835   6.263  32.415  1.00  0.00     0.010 A 
BRANCH  26  30
HETATM   30  O5  UNK     1      19.487   8.147  34.994  1.00  0.00    -0.353 OA
HETATM   31  C24 UNK     1      20.203   9.269  34.478  1.00  0.00     0.210 C 
ENDBRANCH  26  30
BRANCH  27  32
HETATM   32  O6  UNK     1      16.755   8.598  35.225  1.00  0.00    -0.353 OA
HETATM   33  C25 UNK     1      15.731   9.509  34.831  1.00  0.00     0.210 C 
ENDBRANCH  27  32
ENDBRANCH  23  24
ENDBRANCH  22  23
ENDBRANCH  20  22
ENDBRANCH   8  19
TORSDOF 6
ENDMDL
MODEL 5
REMARK VINA RESULT:      -8.8     11.346     14.295
REMARK  6 active torsions:
REMARK  status: ('A' for Active; 'I' for Inactive)
REMARK    1  A    between atoms: C21_28  and  O5_5 
REMARK    2  A    between atoms: C23_30  and  O6_6 
REMARK    3  A    between atoms: C13_20  and  N1_7 
REMARK    4  A    between atoms: C10_17  and  C4_11 
REMARK    5  A    between atoms: C13_20  and  C14_21 
REMARK    6  A    between atoms: C14_21  and  C16_23 
ROOT
HETATM    1  O1  UNK     1      29.395  -8.263  37.354  1.00  0.00    -0.332 OA
HETATM    2  O2  UNK     1      32.876  -5.674  35.077  1.00  0.00    -0.274 OA
HETATM    3  O3  UNK     1      27.742  -6.545  34.716  1.00  0.00    -0.289 OA
HETATM    4  O4  UNK     1      34.539  -4.429  34.110  1.00  0.00    -0.260 OA
HETATM    5  C1  UNK     1      28.496  -8.264  36.251  1.00  0.00     0.125 C 
HETATM    6  C2  UNK     1      31.085  -7.002  36.077  1.00  0.00     0.048 A 
HETATM    7  C3  UNK     1      28.682  -7.101  35.279  1.00  0.00     0.196 C 
HETATM    8  C4  UNK     1      30.102  -6.729  35.011  1.00  0.00     0.044 C 
HETATM    9  C5  UNK     1      30.659  -7.764  37.179  1.00  0.00     0.084 A 
HETATM   10  C6  UNK     1      27.091  -8.198  36.861  1.00  0.00     0.055 C 
HETATM   11  C7  UNK     1      28.653  -9.586  35.489  1.00  0.00     0.055 C 
HETATM   12  C8  UNK     1      32.409  -6.516  36.117  1.00  0.00     0.103 A 
HETATM   13  C9  UNK     1      33.285  -6.803  37.171  1.00  0.00    -0.001 A 
HETATM   14  C11 UNK     1      31.527  -8.049  38.243  1.00  0.00     0.039 A 
HETATM   15  C12 UNK     1      32.838  -7.581  38.236  1.00  0.00     0.017 A 
HETATM   16  C15 UNK     1      34.642  -6.278  37.146  1.00  0.00     0.020 A 
HETATM   17  C17 UNK     1      35.055  -5.503  36.142  1.00  0.00     0.083 A 
HETATM   18  C18 UNK     1      34.162  -5.149  35.028  1.00  0.00     0.288 A 
ENDROOT
BRANCH   8  19
HETATM   19  C10 UNK     1      30.342  -6.287  33.767  1.00  0.00     0.099 C 
HETATM   20  N1  UNK     1      29.667  -5.334  33.084  1.00  0.00    -0.398 N 
HETATM   21  H12 UNK     1      28.873  -4.886  33.528  1.00  0.00     0.158 HD
BRANCH  20  22
HETATM   22  C13 UNK     1      29.979  -4.943  31.727  1.00  0.00     0.123 C 
BRANCH  22  23
HETATM   23  C14 UNK     1      28.832  -5.294  30.780  1.00  0.00     0.058 C 
BRANCH  23  24
HETATM   24  C16 UNK     1      28.955  -6.677  30.188  1.00  0.00    -0.054 A 
HETATM   25  C19 UNK     1      30.024  -6.967  29.356  1.00  0.00     0.046 A 
HETATM   26  C21 UNK     1      30.138  -8.247  28.809  1.00  0.00     0.102 A 
HETATM   27  C23 UNK     1      29.180  -9.218  29.103  1.00  0.00     0.101 A 
HETATM   28  C22 UNK     1      28.110  -8.910  29.942  1.00  0.00     0.040 A 
HETATM   29  C20 UNK     1      27.997  -7.632  30.489  1.00  0.00     0.010 A 
BRANCH  26  30
HETATM   30  O5  UNK     1      31.188  -8.535  27.991  1.00  0.00    -0.353 OA
HETATM   31  C24 UNK     1      32.478  -8.617  28.596  1.00  0.00     0.210 C 
ENDBRANCH  26  30
BRANCH  27  32
HETATM   32  O6  UNK     1      29.281 -10.469  28.576  1.00  0.00    -0.353 OA
HETATM   33  C25 UNK     1      29.960 -11.449  29.360  1.00  0.00     0.210 C 
ENDBRANCH  27  32
ENDBRANCH  23  24
ENDBRANCH  22  23
ENDBRANCH  20  22
ENDBRANCH   8  19
TORSDOF 6
ENDMDL
MODEL 6
REMARK VINA RESULT:      -8.7     11.491     13.880
REMARK  6 active torsions:
REMARK  status: ('A' for Active; 'I' for Inactive)
REMARK    1  A    between atoms: C21_28  and  O5_5 
REMARK    2  A    between atoms: C23_30  and  O6_6 
REMARK    3  A    between atoms: C13_20  and  N1_7 
REMARK    4  A    between atoms: C10_17  and  C4_11 
REMARK    5  A    between atoms: C13_20  and  C14_21 
REMARK    6  A    between atoms: C14_21  and  C16_23 
ROOT
HETATM    1  O1  UNK     1      27.442  -6.376  39.017  1.00  0.00    -0.332 OA
HETATM    2  O2  UNK     1      30.783  -5.817  35.477  1.00  0.00    -0.274 OA
HETATM    3  O3  UNK     1      26.480  -8.614  36.426  1.00  0.00    -0.289 OA
HETATM    4  O4  UNK     1      32.334  -5.447  33.831  1.00  0.00    -0.260 OA
HETATM    5  C1  UNK     1      27.024  -7.669  38.592  1.00  0.00     0.125 C 
HETATM    6  C2  UNK     1      29.124  -6.245  37.220  1.00  0.00     0.048 A 
HETATM    7  C3  UNK     1      27.261  -7.959  37.112  1.00  0.00     0.196 C 
HETATM    8  C4  UNK     1      28.551  -7.440  36.571  1.00  0.00     0.044 C 
HETATM    9  C5  UNK     1      28.528  -5.800  38.412  1.00  0.00     0.084 A 
HETATM   10  C6  UNK     1      25.520  -7.736  38.889  1.00  0.00     0.055 C 
HETATM   11  C7  UNK     1      27.751  -8.724  39.434  1.00  0.00     0.055 C 
HETATM   12  C8  UNK     1      30.191  -5.470  36.717  1.00  0.00     0.103 A 
HETATM   13  C9  UNK     1      30.676  -4.336  37.380  1.00  0.00    -0.001 A 
HETATM   14  C11 UNK     1      29.002  -4.660  39.078  1.00  0.00     0.039 A 
HETATM   15  C12 UNK     1      30.077  -3.936  38.572  1.00  0.00     0.017 A 
HETATM   16  C15 UNK     1      31.786  -3.586  36.812  1.00  0.00     0.020 A 
HETATM   17  C17 UNK     1      32.332  -3.951  35.652  1.00  0.00     0.083 A 
HETATM   18  C18 UNK     1      31.838  -5.117  34.903  1.00  0.00     0.288 A 
ENDROOT
BRANCH   8  19
HETATM   19  C10 UNK     1      29.106  -8.200  35.614  1.00  0.00     0.099 C 
HETATM   20  N1  UNK     1      29.383  -9.523  35.667  1.00  0.00    -0.398 N 
HETATM   21  H12 UNK     1      29.172 -10.032  36.517  1.00  0.00     0.158 HD
BRANCH  20  22
HETATM   22  C13 UNK     1      30.015 -10.255  34.592  1.00  0.00     0.123 C 
BRANCH  22  23
HETATM   23  C14 UNK     1      31.375 -10.801  35.027  1.00  0.00     0.058 C 
BRANCH  23  24
HETATM   24  C16 UNK     1      32.488  -9.791  34.893  1.00  0.00    -0.054 A 
HETATM   25  C19 UNK     1      32.731  -8.907  35.932  1.00  0.00     0.046 A 
HETATM   26  C21 UNK     1      33.760  -7.972  35.808  1.00  0.00     0.102 A 
HETATM   27  C23 UNK     1      34.533  -7.935  34.647  1.00  0.00     0.101 A 
HETATM   28  C22 UNK     1      34.275  -8.832  33.610  1.00  0.00     0.040 A 
HETATM   29  C20 UNK     1      33.247  -9.766  33.734  1.00  0.00     0.010 A 
BRANCH  26  30
HETATM   30  O5  UNK     1      34.002  -7.102  36.828  1.00  0.00    -0.353 OA
HETATM   31  C24 UNK     1      33.128  -7.165  37.954  1.00  0.00     0.210 C 
ENDBRANCH  26  30
BRANCH  27  32
HETATM   32  O6  UNK     1      35.540  -7.029  34.515  1.00  0.00    -0.353 OA
HETATM   33  C25 UNK     1      36.874  -7.531  34.564  1.00  0.00     0.210 C 
ENDBRANCH  27  32
ENDBRANCH  23  24
ENDBRANCH  22  23
ENDBRANCH  20  22
ENDBRANCH   8  19
TORSDOF 6
ENDMDL
MODEL 7
REMARK VINA RESULT:      -8.7     11.954     14.978
REMARK  6 active torsions:
REMARK  status: ('A' for Active; 'I' for Inactive)
REMARK    1  A    between atoms: C21_28  and  O5_5 
REMARK    2  A    between atoms: C23_30  and  O6_6 
REMARK    3  A    between atoms: C13_20  and  N1_7 
REMARK    4  A    between atoms: C10_17  and  C4_11 
REMARK    5  A    between atoms: C13_20  and  C14_21 
REMARK    6  A    between atoms: C14_21  and  C16_23 
ROOT
HETATM    1  O1  UNK     1      34.353  -5.735  36.100  1.00  0.00    -0.332 OA
HETATM    2  O2  UNK     1      29.510  -6.476  36.058  1.00  0.00    -0.274 OA
HETATM    3  O3  UNK     1      33.586  -6.885  32.823  1.00  0.00    -0.289 OA
HETATM    4  O4  UNK     1      27.255  -6.876  36.133  1.00  0.00    -0.260 OA
HETATM    5  C1  UNK     1      34.474  -5.612  34.687  1.00  0.00     0.125 C 
HETATM    6  C2  UNK     1      31.913  -6.044  35.942  1.00  0.00     0.048 A 
HETATM    7  C3  UNK     1      33.377  -6.315  33.891  1.00  0.00     0.196 C 
HETATM    8  C4  UNK     1      32.009  -6.205  34.479  1.00  0.00     0.044 C 
HETATM    9  C5  UNK     1      33.102  -5.810  36.653  1.00  0.00     0.084 A 
HETATM   10  C6  UNK     1      35.833  -6.229  34.333  1.00  0.00     0.055 C 
HETATM   11  C7  UNK     1      34.485  -4.123  34.320  1.00  0.00     0.055 C 
HETATM   12  C8  UNK     1      30.731  -6.160  36.704  1.00  0.00     0.103 A 
HETATM   13  C9  UNK     1      30.715  -6.009  38.097  1.00  0.00    -0.001 A 
HETATM   14  C11 UNK     1      33.096  -5.667  38.049  1.00  0.00     0.039 A 
HETATM   15  C12 UNK     1      31.908  -5.755  38.767  1.00  0.00     0.017 A 
HETATM   16  C15 UNK     1      29.460  -6.132  38.822  1.00  0.00     0.020 A 
HETATM   17  C17 UNK     1      28.325  -6.412  38.180  1.00  0.00     0.083 A 
HETATM   18  C18 UNK     1      28.296  -6.609  36.722  1.00  0.00     0.288 A 
ENDROOT
BRANCH   8  19
HETATM   19  C10 UNK     1      31.014  -6.150  33.579  1.00  0.00     0.099 C 
HETATM   20  N1  UNK     1      30.498  -5.051  32.983  1.00  0.00    -0.398 N 
HETATM   21  H12 UNK     1      30.874  -4.142  33.228  1.00  0.00     0.158 HD
BRANCH  20  22
HETATM   22  C13 UNK     1      29.399  -5.087  32.044  1.00  0.00     0.123 C 
BRANCH  22  23
HETATM   23  C14 UNK     1      29.904  -4.983  30.606  1.00  0.00     0.058 C 
BRANCH  23  24
HETATM   24  C16 UNK     1      30.210  -6.326  29.988  1.00  0.00    -0.054 A 
HETATM   25  C19 UNK     1      31.522  -6.652  29.683  1.00  0.00     0.046 A 
HETATM   26  C21 UNK     1      31.804  -7.893  29.112  1.00  0.00     0.102 A 
HETATM   27  C23 UNK     1      30.770  -8.793  28.854  1.00  0.00     0.101 A 
HETATM   28  C22 UNK     1      29.454  -8.451  29.166  1.00  0.00     0.040 A 
HETATM   29  C20 UNK     1      29.172  -7.210  29.737  1.00  0.00     0.010 A 
BRANCH  26  30
HETATM   30  O5  UNK     1      33.093  -8.216  28.812  1.00  0.00    -0.353 OA
HETATM   31  C24 UNK     1      34.106  -7.310  29.248  1.00  0.00     0.210 C 
ENDBRANCH  26  30
BRANCH  27  32
HETATM   32  O6  UNK     1      31.033 -10.008  28.298  1.00  0.00    -0.353 OA
HETATM   33  C25 UNK     1      30.964 -11.143  29.159  1.00  0.00     0.210 C 
ENDBRANCH  27  32
ENDBRANCH  23  24
ENDBRANCH  22  23
ENDBRANCH  20  22
ENDBRANCH   8  19
TORSDOF 6
ENDMDL
MODEL 8
REMARK VINA RESULT:      -8.7      4.689     10.591
REMARK  6 active torsions:
REMARK  status: ('A' for Active; 'I' for Inactive)
REMARK    1  A    between atoms: C21_28  and  O5_5 
REMARK    2  A    between atoms: C23_30  and  O6_6 
REMARK    3  A    between atoms: C13_20  and  N1_7 
REMARK    4  A    between atoms: C10_17  and  C4_11 
REMARK    5  A    between atoms: C13_20  and  C14_21 
REMARK    6  A    between atoms: C14_21  and  C16_23 
ROOT
HETATM    1  O1  UNK     1      19.223  -1.794  34.595  1.00  0.00    -0.332 OA
HETATM    2  O2  UNK     1      18.850   1.771  31.257  1.00  0.00    -0.274 OA
HETATM    3  O3  UNK     1      18.832   1.216  36.447  1.00  0.00    -0.289 OA
HETATM    4  O4  UNK     1      18.762   3.397  29.644  1.00  0.00    -0.260 OA
HETATM    5  C1  UNK     1      18.594  -1.058  35.638  1.00  0.00     0.125 C 
HETATM    6  C2  UNK     1      18.924   0.059  32.999  1.00  0.00     0.048 A 
HETATM    7  C3  UNK     1      18.688   0.459  35.490  1.00  0.00     0.196 C 
HETATM    8  C4  UNK     1      18.526   0.963  34.095  1.00  0.00     0.044 C 
HETATM    9  C5  UNK     1      19.240  -1.270  33.330  1.00  0.00     0.084 A 
HETATM   10  C6  UNK     1      19.298  -1.487  36.932  1.00  0.00     0.055 C 
HETATM   11  C7  UNK     1      17.118  -1.466  35.709  1.00  0.00     0.055 C 
HETATM   12  C8  UNK     1      19.073   0.427  31.645  1.00  0.00     0.103 A 
HETATM   13  C9  UNK     1      19.470  -0.483  30.657  1.00  0.00    -0.001 A 
HETATM   14  C11 UNK     1      19.647  -2.185  32.348  1.00  0.00     0.039 A 
HETATM   15  C12 UNK     1      19.752  -1.798  31.015  1.00  0.00     0.017 A 
HETATM   16  C15 UNK     1      19.595  -0.041  29.276  1.00  0.00     0.020 A 
HETATM   17  C17 UNK     1      19.360   1.229  28.942  1.00  0.00     0.083 A 
HETATM   18  C18 UNK     1      18.969   2.228  29.949  1.00  0.00     0.288 A 
ENDROOT
BRANCH   8  19
HETATM   19  C10 UNK     1      17.920   2.157  33.996  1.00  0.00     0.099 C 
HETATM   20  N1  UNK     1      18.502   3.372  33.877  1.00  0.00    -0.398 N 
HETATM   21  H12 UNK     1      19.514   3.429  33.870  1.00  0.00     0.158 HD
BRANCH  20  22
HETATM   22  C13 UNK     1      17.764   4.614  33.809  1.00  0.00     0.123 C 
BRANCH  22  23
HETATM   23  C14 UNK     1      18.398   5.572  32.801  1.00  0.00     0.058 C 
BRANCH  23  24
HETATM   24  C16 UNK     1      18.096   7.022  33.093  1.00  0.00    -0.054 A 
HETATM   25  C19 UNK     1      16.909   7.573  32.639  1.00  0.00     0.046 A 
HETATM   26  C21 UNK     1      16.629   8.913  32.908  1.00  0.00     0.102 A 
HETATM   27  C23 UNK     1      17.542   9.685  33.628  1.00  0.00     0.101 A 
HETATM   28  C22 UNK     1      18.734   9.116  34.078  1.00  0.00     0.040 A 
HETATM   29  C20 UNK     1      19.012   7.776  33.809  1.00  0.00     0.010 A 
BRANCH  26  30
HETATM   30  O5  UNK     1      15.463   9.457  32.463  1.00  0.00    -0.353 OA
HETATM   31  C24 UNK     1      14.307   9.269  33.279  1.00  0.00     0.210 C 
ENDBRANCH  26  30
BRANCH  27  32
HETATM   32  O6  UNK     1      17.280  10.993  33.898  1.00  0.00    -0.353 OA
HETATM   33  C25 UNK     1      18.401  11.859  34.062  1.00  0.00     0.210 C 
ENDBRANCH  27  32
ENDBRANCH  23  24
ENDBRANCH  22  23
ENDBRANCH  20  22
ENDBRANCH   8  19
TORSDOF 6
ENDMDL
MODEL 9
REMARK VINA RESULT:      -8.7     10.941     14.143
REMARK  6 active torsions:
REMARK  status: ('A' for Active; 'I' for Inactive)
REMARK    1  A    between atoms: C21_28  and  O5_5 
REMARK    2  A    between atoms: C23_30  and  O6_6 
REMARK    3  A    between atoms: C13_20  and  N1_7 
REMARK    4  A    between atoms: C10_17  and  C4_11 
REMARK    5  A    between atoms: C13_20  and  C14_21 
REMARK    6  A    between atoms: C14_21  and  C16_23 
ROOT
HETATM    1  O1  UNK     1      32.414  -4.638  36.687  1.00  0.00    -0.332 OA
HETATM    2  O2  UNK     1      29.470  -8.346  37.945  1.00  0.00    -0.274 OA
HETATM    3  O3  UNK     1      33.957  -7.568  35.393  1.00  0.00    -0.289 OA
HETATM    4  O4  UNK     1      28.090 -10.041  38.635  1.00  0.00    -0.260 OA
HETATM    5  C1  UNK     1      33.043  -5.333  35.617  1.00  0.00     0.125 C 
HETATM    6  C2  UNK     1      30.953  -6.560  37.181  1.00  0.00     0.048 A 
HETATM    7  C3  UNK     1      33.022  -6.854  35.748  1.00  0.00     0.196 C 
HETATM    8  C4  UNK     1      31.749  -7.419  36.283  1.00  0.00     0.044 C 
HETATM    9  C5  UNK     1      31.342  -5.216  37.314  1.00  0.00     0.084 A 
HETATM   10  C6  UNK     1      34.497  -4.844  35.603  1.00  0.00     0.055 C 
HETATM   11  C7  UNK     1      32.364  -4.933  34.301  1.00  0.00     0.055 C 
HETATM   12  C8  UNK     1      29.862  -6.985  37.969  1.00  0.00     0.103 A 
HETATM   13  C9  UNK     1      29.160  -6.116  38.814  1.00  0.00    -0.001 A 
HETATM   14  C11 UNK     1      30.649  -4.341  38.164  1.00  0.00     0.039 A 
HETATM   15  C12 UNK     1      29.556  -4.785  38.903  1.00  0.00     0.017 A 
HETATM   16  C15 UNK     1      28.037  -6.616  39.593  1.00  0.00     0.020 A 
HETATM   17  C17 UNK     1      27.683  -7.901  39.532  1.00  0.00     0.083 A 
HETATM   18  C18 UNK     1      28.409  -8.858  38.683  1.00  0.00     0.288 A 
ENDROOT
BRANCH   8  19
HETATM   19  C10 UNK     1      31.414  -8.620  35.786  1.00  0.00     0.099 C 
HETATM   20  N1  UNK     1      30.328  -8.935  35.045  1.00  0.00    -0.398 N 
HETATM   21  H12 UNK     1      29.658  -8.205  34.828  1.00  0.00     0.158 HD
BRANCH  20  22
HETATM   22  C13 UNK     1      30.032 -10.271  34.578  1.00  0.00     0.123 C 
BRANCH  22  23
HETATM   23  C14 UNK     1      28.865 -10.259  33.591  1.00  0.00     0.058 C 
BRANCH  23  24
HETATM   24  C16 UNK     1      29.182  -9.531  32.307  1.00  0.00    -0.054 A 
HETATM   25  C19 UNK     1      28.400  -8.453  31.927  1.00  0.00     0.046 A 
HETATM   26  C21 UNK     1      28.693  -7.780  30.740  1.00  0.00     0.102 A 
HETATM   27  C23 UNK     1      29.766  -8.195  29.950  1.00  0.00     0.101 A 
HETATM   28  C22 UNK     1      30.544  -9.282  30.346  1.00  0.00     0.040 A 
HETATM   29  C20 UNK     1      30.251  -9.955  31.533  1.00  0.00     0.010 A 
BRANCH  26  30
HETATM   30  O5  UNK     1      27.926  -6.719  30.364  1.00  0.00    -0.353 OA
HETATM   31  C24 UNK     1      26.512  -6.911  30.361  1.00  0.00     0.210 C 
ENDBRANCH  26  30
BRANCH  27  32
HETATM   32  O6  UNK     1      30.063  -7.545  28.791  1.00  0.00    -0.353 OA
HETATM   33  C25 UNK     1      31.296  -6.829  28.746  1.00  0.00     0.210 C 
ENDBRANCH  27  32
ENDBRANCH  23  24
ENDBRANCH  22  23
ENDBRANCH  20  22
ENDBRANCH   8  19
TORSDOF 6
ENDMDL
MODEL 10
REMARK VINA RESULT:      -8.6     10.846     13.902
REMARK  6 active torsions:
REMARK  status: ('A' for Active; 'I' for Inactive)
REMARK    1  A    between atoms: C21_28  and  O5_5 
REMARK    2  A    between atoms: C23_30  and  O6_6 
REMARK    3  A    between atoms: C13_20  and  N1_7 
REMARK    4  A    between atoms: C10_17  and  C4_11 
REMARK    5  A    between atoms: C13_20  and  C14_21 
REMARK    6  A    between atoms: C14_21  and  C16_23 
ROOT
HETATM    1  O1  UNK     1      32.124  -4.340  36.588  1.00  0.00    -0.332 OA
HETATM    2  O2  UNK     1      29.614  -8.314  37.973  1.00  0.00    -0.274 OA
HETATM    3  O3  UNK     1      33.987  -7.119  35.384  1.00  0.00    -0.289 OA
HETATM    4  O4  UNK     1      28.433 -10.129  38.720  1.00  0.00    -0.260 OA
HETATM    5  C1  UNK     1      32.828  -4.995  35.539  1.00  0.00     0.125 C 
HETATM    6  C2  UNK     1      30.888  -6.398  37.148  1.00  0.00     0.048 A 
HETATM    7  C3  UNK     1      32.978  -6.504  35.719  1.00  0.00     0.196 C 
HETATM    8  C4  UNK     1      31.775  -7.190  36.275  1.00  0.00     0.044 C 
HETATM    9  C5  UNK     1      31.123  -5.015  37.236  1.00  0.00     0.084 A 
HETATM   10  C6  UNK     1      34.218  -4.346  35.505  1.00  0.00     0.055 C 
HETATM   11  C7  UNK     1      32.109  -4.716  34.213  1.00  0.00     0.055 C 
HETATM   12  C8  UNK     1      29.851  -6.916  37.952  1.00  0.00     0.103 A 
HETATM   13  C9  UNK     1      29.055  -6.105  38.770  1.00  0.00    -0.001 A 
HETATM   14  C11 UNK     1      30.336  -4.196  38.060  1.00  0.00     0.039 A 
HETATM   15  C12 UNK     1      29.299  -4.736  38.816  1.00  0.00     0.017 A 
HETATM   16  C15 UNK     1      27.995  -6.703  39.568  1.00  0.00     0.020 A 
HETATM   17  C17 UNK     1      27.788  -8.020  39.550  1.00  0.00     0.083 A 
HETATM   18  C18 UNK     1      28.617  -8.917  38.730  1.00  0.00     0.288 A 
ENDROOT
BRANCH   8  19
HETATM   19  C10 UNK     1      31.578  -8.437  35.818  1.00  0.00     0.099 C 
HETATM   20  N1  UNK     1      31.656  -8.870  34.539  1.00  0.00    -0.398 N 
HETATM   21  H12 UNK     1      31.876  -8.200  33.810  1.00  0.00     0.158 HD
BRANCH  20  22
HETATM   22  C13 UNK     1      31.394 -10.233  34.134  1.00  0.00     0.123 C 
BRANCH  22  23
HETATM   23  C14 UNK     1      29.898 -10.463  33.925  1.00  0.00     0.058 C 
BRANCH  23  24
HETATM   24  C16 UNK     1      29.288  -9.515  32.920  1.00  0.00    -0.054 A 
HETATM   25  C19 UNK     1      29.364  -9.817  31.570  1.00  0.00     0.046 A 
HETATM   26  C21 UNK     1      28.801  -8.940  30.641  1.00  0.00     0.102 A 
HETATM   27  C23 UNK     1      28.170  -7.774  31.076  1.00  0.00     0.101 A 
HETATM   28  C22 UNK     1      28.103  -7.484  32.439  1.00  0.00     0.040 A 
HETATM   29  C20 UNK     1      28.665  -8.361  33.366  1.00  0.00     0.010 A 
BRANCH  26  30
HETATM   30  O5  UNK     1      28.873  -9.234  29.313  1.00  0.00    -0.353 OA
HETATM   31  C24 UNK     1      29.942 -10.080  28.893  1.00  0.00     0.210 C 
ENDBRANCH  26  30
BRANCH  27  32
HETATM   32  O6  UNK     1      27.616  -6.912  30.179  1.00  0.00    -0.353 OA
HETATM   33  C25 UNK     1      26.205  -6.718  30.253  1.00  0.00     0.210 C 
ENDBRANCH  27  32
ENDBRANCH  23  24
ENDBRANCH  22  23
ENDBRANCH  20  22
ENDBRANCH   8  19
TORSDOF 6
ENDMDL
