MODEL 1
REMARK VINA RESULT:      -9.1      0.000      0.000
REMARK  4 active torsions:
REMARK  status: ('A' for Active; 'I' for Inactive)
REMARK    1  A    between atoms: C5_10  and  N1_4 
REMARK    2  A    between atoms: C6_11  and  N2_5 
REMARK    3  A    between atoms: C5_10  and  C7_12 
REMARK    4  A    between atoms: C15_20  and  C22_27 
ROOT
HETATM    1  N1  UNK     1      20.612  -4.248  36.588  1.00  0.00     0.095 N 
HETATM    2  N2  UNK     1      20.652  -7.089  36.884  1.00  0.00    -0.377 N 
HETATM    3  C1  UNK     1      19.541  -5.070  36.011  1.00  0.00     0.292 C 
HETATM    4  C2  UNK     1      21.096  -4.857  37.833  1.00  0.00     0.292 C 
HETATM    5  C3  UNK     1      20.040  -6.482  35.697  1.00  0.00     0.153 C 
HETATM    6  C4  UNK     1      21.648  -6.262  37.577  1.00  0.00     0.153 C 
ENDROOT
BRANCH   1   7
HETATM    7  C5  UNK     1      20.137  -2.887  36.834  1.00  0.00     0.312 C 
BRANCH   7   8
HETATM    8  C7  UNK     1      19.912  -2.282  35.479  1.00  0.00    -0.011 A 
HETATM    9  C11 UNK     1      20.529  -2.767  34.392  1.00  0.00     0.092 A 
HETATM   10  C18 UNK     1      20.339  -2.208  33.044  1.00  0.00     0.288 A 
HETATM   11  O1  UNK     1      19.475  -1.130  32.932  1.00  0.00    -0.275 OA
HETATM   12  O2  UNK     1      20.922  -2.677  32.073  1.00  0.00    -0.260 OA
HETATM   13  C12 UNK     1      18.812  -0.598  34.056  1.00  0.00     0.090 A 
HETATM   14  C19 UNK     1      17.965   0.488  33.826  1.00  0.00     0.039 A 
HETATM   15  C8  UNK     1      19.001  -1.139  35.329  1.00  0.00     0.007 A 
HETATM   16  C21 UNK     1      17.283   1.056  34.897  1.00  0.00     0.010 A 
HETATM   17  C15 UNK     1      17.453   0.537  36.179  1.00  0.00    -0.058 A 
HETATM   18  C13 UNK     1      18.306  -0.552  36.394  1.00  0.00     0.022 A 
BRANCH  17  19
HETATM   19  C22 UNK     1      16.724   1.146  37.329  1.00  0.00     0.034 C 
HETATM   20  C23 UNK     1      17.635   1.402  38.526  1.00  0.00     0.010 C 
ENDBRANCH  17  19
ENDBRANCH   7   8
ENDBRANCH   1   7
BRANCH   2  21
HETATM   21  C6  UNK     1      20.781  -8.480  36.964  1.00  0.00     0.037 A 
HETATM   22  C10 UNK     1      21.865  -9.101  36.344  1.00  0.00     0.053 A 
HETATM   23  C17 UNK     1      22.008 -10.486  36.413  1.00  0.00     0.036 A 
HETATM   24  C20 UNK     1      21.067 -11.251  37.102  1.00  0.00     0.024 A 
HETATM   25 Cl1  UNK     1      23.346 -11.254  35.648  1.00  0.00    -0.084 Cl
HETATM   26  C14 UNK     1      19.983 -10.631  37.722  1.00  0.00     0.011 A 
HETATM   27  C9  UNK     1      19.839  -9.244  37.653  1.00  0.00    -0.035 A 
HETATM   28  C16 UNK     1      18.668  -8.606  38.326  1.00  0.00     0.050 C 
ENDBRANCH   2  21
TORSDOF 4
ENDMDL
MODEL 2
REMARK VINA RESULT:      -8.8      8.611     11.607
REMARK  4 active torsions:
REMARK  status: ('A' for Active; 'I' for Inactive)
REMARK    1  A    between atoms: C5_10  and  N1_4 
REMARK    2  A    between atoms: C6_11  and  N2_5 
REMARK    3  A    between atoms: C5_10  and  C7_12 
REMARK    4  A    between atoms: C15_20  and  C22_27 
ROOT
HETATM    1  N1  UNK     1      18.112   5.484  31.922  1.00  0.00     0.095 N 
HETATM    2  N2  UNK     1      18.871   2.926  30.901  1.00  0.00    -0.377 N 
HETATM    3  C1  UNK     1      18.186   4.320  32.814  1.00  0.00     0.292 C 
HETATM    4  C2  UNK     1      19.135   5.377  30.874  1.00  0.00     0.292 C 
HETATM    5  C3  UNK     1      17.953   3.020  32.041  1.00  0.00     0.153 C 
HETATM    6  C4  UNK     1      18.932   4.112  30.037  1.00  0.00     0.153 C 
ENDROOT
BRANCH   1   7
HETATM    7  C5  UNK     1      18.283   6.722  32.680  1.00  0.00     0.312 C 
BRANCH   7   8
HETATM    8  C7  UNK     1      16.934   7.380  32.697  1.00  0.00    -0.011 A 
HETATM    9  C11 UNK     1      15.844   6.735  32.260  1.00  0.00     0.092 A 
HETATM   10  C18 UNK     1      14.501   7.338  32.258  1.00  0.00     0.288 A 
HETATM   11  O1  UNK     1      14.399   8.635  32.737  1.00  0.00    -0.275 OA
HETATM   12  O2  UNK     1      13.526   6.718  31.848  1.00  0.00    -0.260 OA
HETATM   13  C12 UNK     1      15.527   9.339  33.203  1.00  0.00     0.090 A 
HETATM   14  C19 UNK     1      15.308  10.638  33.663  1.00  0.00     0.039 A 
HETATM   15  C8  UNK     1      16.795   8.753  33.200  1.00  0.00     0.007 A 
HETATM   16  C21 UNK     1      16.383  11.382  34.136  1.00  0.00     0.010 A 
HETATM   17  C15 UNK     1      17.660  10.824  34.144  1.00  0.00    -0.058 A 
HETATM   18  C13 UNK     1      17.865   9.520  33.679  1.00  0.00     0.022 A 
BRANCH  17  19
HETATM   19  C22 UNK     1      18.816  11.622  34.649  1.00  0.00     0.034 C 
HETATM   20  C23 UNK     1      18.452  13.084  34.888  1.00  0.00     0.010 C 
ENDBRANCH  17  19
ENDBRANCH   7   8
ENDBRANCH   1   7
BRANCH   2  21
HETATM   21  C6  UNK     1      19.139   1.679  30.326  1.00  0.00     0.037 A 
HETATM   22  C10 UNK     1      19.891   0.747  31.040  1.00  0.00     0.053 A 
HETATM   23  C17 UNK     1      20.168  -0.501  30.482  1.00  0.00     0.036 A 
HETATM   24  C20 UNK     1      19.692  -0.817  29.209  1.00  0.00     0.024 A 
HETATM   25 Cl1  UNK     1      21.096  -1.652  31.363  1.00  0.00    -0.084 Cl
HETATM   26  C14 UNK     1      18.941   0.115  28.495  1.00  0.00     0.011 A 
HETATM   27  C9  UNK     1      18.663   1.364  29.053  1.00  0.00    -0.035 A 
HETATM   28  C16 UNK     1      17.855   2.343  28.265  1.00  0.00     0.050 C 
ENDBRANCH   2  21
TORSDOF 4
ENDMDL
MODEL 3
REMARK VINA RESULT:      -8.8      2.065      3.899
REMARK  4 active torsions:
REMARK  status: ('A' for Active; 'I' for Inactive)
REMARK    1  A    between atoms: C5_10  and  N1_4 
REMARK    2  A    between atoms: C6_11  and  N2_5 
REMARK    3  A    between atoms: C5_10  and  C7_12 
REMARK    4  A    between atoms: C15_20  and  C22_27 
ROOT
HETATM    1  N1  UNK     1      20.460  -4.241  37.098  1.00  0.00     0.095 N 
HETATM    2  N2  UNK     1      20.422  -7.091  37.283  1.00  0.00    -0.377 N 
HETATM    3  C1  UNK     1      21.498  -4.950  37.856  1.00  0.00     0.292 C 
HETATM    4  C2  UNK     1      20.035  -5.053  35.951  1.00  0.00     0.292 C 
HETATM    5  C3  UNK     1      20.978  -6.291  38.379  1.00  0.00     0.153 C 
HETATM    6  C4  UNK     1      19.465  -6.397  36.413  1.00  0.00     0.153 C 
ENDROOT
BRANCH   1   7
HETATM    7  C5  UNK     1      20.952  -2.939  36.649  1.00  0.00     0.312 C 
BRANCH   7   8
HETATM    8  C7  UNK     1      19.732  -2.148  36.276  1.00  0.00    -0.011 A 
HETATM    9  C11 UNK     1      18.885  -1.699  37.212  1.00  0.00     0.092 A 
HETATM   10  C18 UNK     1      17.677  -0.919  36.895  1.00  0.00     0.288 A 
HETATM   11  O1  UNK     1      17.439  -0.657  35.555  1.00  0.00    -0.275 OA
HETATM   12  O2  UNK     1      16.923  -0.527  37.778  1.00  0.00    -0.260 OA
HETATM   13  C12 UNK     1      18.312  -1.115  34.548  1.00  0.00     0.090 A 
HETATM   14  C19 UNK     1      17.974  -0.792  33.233  1.00  0.00     0.039 A 
HETATM   15  C8  UNK     1      19.454  -1.853  34.864  1.00  0.00     0.007 A 
HETATM   16  C21 UNK     1      18.797  -1.217  32.196  1.00  0.00     0.010 A 
HETATM   17  C15 UNK     1      19.944  -1.956  32.481  1.00  0.00    -0.058 A 
HETATM   18  C13 UNK     1      20.270  -2.273  33.805  1.00  0.00     0.022 A 
BRANCH  17  19
HETATM   19  C22 UNK     1      20.827  -2.414  31.370  1.00  0.00     0.034 C 
HETATM   20  C23 UNK     1      20.361  -1.905  30.009  1.00  0.00     0.010 C 
ENDBRANCH  17  19
ENDBRANCH   7   8
ENDBRANCH   1   7
BRANCH   2  21
HETATM   21  C6  UNK     1      20.291  -8.476  37.433  1.00  0.00     0.037 A 
HETATM   22  C10 UNK     1      19.774  -8.988  38.623  1.00  0.00     0.053 A 
HETATM   23  C17 UNK     1      19.638 -10.366  38.788  1.00  0.00     0.036 A 
HETATM   24  C20 UNK     1      20.018 -11.233  37.764  1.00  0.00     0.024 A 
HETATM   25 Cl1  UNK     1      19.000 -10.998  40.257  1.00  0.00    -0.084 Cl
HETATM   26  C14 UNK     1      20.535 -10.722  36.574  1.00  0.00     0.011 A 
HETATM   27  C9  UNK     1      20.671  -9.343  36.407  1.00  0.00    -0.035 A 
HETATM   28  C16 UNK     1      21.228  -8.823  35.122  1.00  0.00     0.050 C 
ENDBRANCH   2  21
TORSDOF 4
ENDMDL
MODEL 4
REMARK VINA RESULT:      -8.6     10.054     12.345
REMARK  4 active torsions:
REMARK  status: ('A' for Active; 'I' for Inactive)
REMARK    1  A    between atoms: C5_10  and  N1_4 
REMARK    2  A    between atoms: C6_11  and  N2_5 
REMARK    3  A    between atoms: C5_10  and  C7_12 
REMARK    4  A    between atoms: C15_20  and  C22_27 
ROOT
HETATM    1  N1  UNK     1      31.177  -9.464  35.542  1.00  0.00     0.095 N 
HETATM    2  N2  UNK     1      29.504  -8.580  33.403  1.00  0.00    -0.377 N 
HETATM    3  C1  UNK     1      31.452  -8.192  34.861  1.00  0.00     0.292 C 
HETATM    4  C2  UNK     1      29.730  -9.707  35.584  1.00  0.00     0.292 C 
HETATM    5  C3  UNK     1      30.923  -8.213  33.425  1.00  0.00     0.153 C 
HETATM    6  C4  UNK     1      29.146  -9.779  34.170  1.00  0.00     0.153 C 
ENDROOT
BRANCH   1   7
HETATM    7  C5  UNK     1      31.734  -9.451  36.895  1.00  0.00     0.312 C 
BRANCH   7   8
HETATM    8  C7  UNK     1      32.230  -8.052  37.119  1.00  0.00    -0.011 A 
HETATM    9  C11 UNK     1      33.467  -7.689  36.750  1.00  0.00     0.092 A 
HETATM   10  C18 UNK     1      33.998  -6.330  36.948  1.00  0.00     0.288 A 
HETATM   11  O1  UNK     1      33.150  -5.412  37.548  1.00  0.00    -0.275 OA
HETATM   12  O2  UNK     1      35.135  -6.035  36.600  1.00  0.00    -0.260 OA
HETATM   13  C12 UNK     1      31.845  -5.763  37.946  1.00  0.00     0.090 A 
HETATM   14  C19 UNK     1      31.079  -4.758  38.539  1.00  0.00     0.039 A 
HETATM   15  C8  UNK     1      31.355  -7.056  37.751  1.00  0.00     0.007 A 
HETATM   16  C21 UNK     1      29.783  -5.045  38.953  1.00  0.00     0.010 A 
HETATM   17  C15 UNK     1      29.268  -6.328  38.771  1.00  0.00    -0.058 A 
HETATM   18  C13 UNK     1      30.047  -7.326  38.175  1.00  0.00     0.022 A 
BRANCH  17  19
HETATM   19  C22 UNK     1      27.878  -6.639  39.216  1.00  0.00     0.034 C 
HETATM   20  C23 UNK     1      27.678  -8.124  39.501  1.00  0.00     0.010 C 
ENDBRANCH  17  19
ENDBRANCH   7   8
ENDBRANCH   1   7
BRANCH   2  21
HETATM   21  C6  UNK     1      28.719  -8.252  32.292  1.00  0.00     0.037 A 
HETATM   22  C10 UNK     1      28.738  -9.085  31.174  1.00  0.00     0.053 A 
HETATM   23  C17 UNK     1      27.963  -8.771  30.058  1.00  0.00     0.036 A 
HETATM   24  C20 UNK     1      27.169  -7.624  30.059  1.00  0.00     0.024 A 
HETATM   25 Cl1  UNK     1      27.985  -9.799  28.677  1.00  0.00    -0.084 Cl
HETATM   26  C14 UNK     1      27.150  -6.791  31.177  1.00  0.00     0.011 A 
HETATM   27  C9  UNK     1      27.926  -7.104  32.294  1.00  0.00    -0.035 A 
HETATM   28  C16 UNK     1      27.886  -6.193  33.478  1.00  0.00     0.050 C 
ENDBRANCH   2  21
TORSDOF 4
ENDMDL
MODEL 5
REMARK VINA RESULT:      -8.5     10.517     12.718
REMARK  4 active torsions:
REMARK  status: ('A' for Active; 'I' for Inactive)
REMARK    1  A    between atoms: C5_10  and  N1_4 
REMARK    2  A    between atoms: C6_11  and  N2_5 
REMARK    3  A    between atoms: C5_10  and  C7_12 
REMARK    4  A    between atoms: C15_20  and  C22_27 
ROOT
HETATM    1  N1  UNK     1      31.978  -8.603  35.562  1.00  0.00     0.095 N 
HETATM    2  N2  UNK     1      31.326 -10.576  33.602  1.00  0.00    -0.377 N 
HETATM    3  C1  UNK     1      30.881  -9.550  35.797  1.00  0.00     0.292 C 
HETATM    4  C2  UNK     1      33.039  -9.251  34.780  1.00  0.00     0.292 C 
HETATM    5  C3  UNK     1      30.280 -10.034  34.476  1.00  0.00     0.153 C 
HETATM    6  C4  UNK     1      32.509  -9.724  33.425  1.00  0.00     0.153 C 
ENDROOT
BRANCH   1   7
HETATM    7  C5  UNK     1      32.508  -8.107  36.832  1.00  0.00     0.312 C 
BRANCH   7   8
HETATM    8  C7  UNK     1      32.357  -6.615  36.782  1.00  0.00    -0.011 A 
HETATM    9  C11 UNK     1      33.248  -5.850  36.137  1.00  0.00     0.092 A 
HETATM   10  C18 UNK     1      33.143  -4.383  36.061  1.00  0.00     0.288 A 
HETATM   11  O1  UNK     1      32.058  -3.803  36.699  1.00  0.00    -0.275 OA
HETATM   12  O2  UNK     1      33.979  -3.716  35.463  1.00  0.00    -0.260 OA
HETATM   13  C12 UNK     1      31.104  -4.581  37.385  1.00  0.00     0.090 A 
HETATM   14  C19 UNK     1      30.052  -3.890  37.990  1.00  0.00     0.039 A 
HETATM   15  C8  UNK     1      31.217  -5.971  37.448  1.00  0.00     0.007 A 
HETATM   16  C21 UNK     1      29.080  -4.604  38.682  1.00  0.00     0.010 A 
HETATM   17  C15 UNK     1      29.168  -5.993  38.763  1.00  0.00    -0.058 A 
HETATM   18  C13 UNK     1      30.228  -6.671  38.151  1.00  0.00     0.022 A 
BRANCH  17  19
HETATM   19  C22 UNK     1      28.126  -6.760  39.506  1.00  0.00     0.034 C 
HETATM   20  C23 UNK     1      28.107  -8.236  39.121  1.00  0.00     0.010 C 
ENDBRANCH  17  19
ENDBRANCH   7   8
ENDBRANCH   1   7
BRANCH   2  21
HETATM   21  C6  UNK     1      30.980 -11.446  32.562  1.00  0.00     0.037 A 
HETATM   22  C10 UNK     1      30.487 -10.920  31.369  1.00  0.00     0.053 A 
HETATM   23  C17 UNK     1      30.137 -11.774  30.323  1.00  0.00     0.036 A 
HETATM   24  C20 UNK     1      30.279 -13.153  30.471  1.00  0.00     0.024 A 
HETATM   25 Cl1  UNK     1      29.529 -11.125  28.848  1.00  0.00    -0.084 Cl
HETATM   26  C14 UNK     1      30.771 -13.680  31.665  1.00  0.00     0.011 A 
HETATM   27  C9  UNK     1      31.122 -12.826  32.711  1.00  0.00    -0.035 A 
HETATM   28  C16 UNK     1      31.647 -13.417  33.979  1.00  0.00     0.050 C 
ENDBRANCH   2  21
TORSDOF 4
ENDMDL
MODEL 6
REMARK VINA RESULT:      -8.4      9.771     11.720
REMARK  4 active torsions:
REMARK  status: ('A' for Active; 'I' for Inactive)
REMARK    1  A    between atoms: C5_10  and  N1_4 
REMARK    2  A    between atoms: C6_11  and  N2_5 
REMARK    3  A    between atoms: C5_10  and  C7_12 
REMARK    4  A    between atoms: C15_20  and  C22_27 
ROOT
HETATM    1  N1  UNK     1      30.608  -9.144  35.728  1.00  0.00     0.095 N 
HETATM    2  N2  UNK     1      29.189  -8.369  33.373  1.00  0.00    -0.377 N 
HETATM    3  C1  UNK     1      31.203  -8.192  34.781  1.00  0.00     0.292 C 
HETATM    4  C2  UNK     1      29.151  -8.970  35.764  1.00  0.00     0.292 C 
HETATM    5  C3  UNK     1      30.655  -8.406  33.368  1.00  0.00     0.153 C 
HETATM    6  C4  UNK     1      28.536  -9.211  34.383  1.00  0.00     0.153 C 
ENDROOT
BRANCH   1   7
HETATM    7  C5  UNK     1      31.179  -8.964  37.062  1.00  0.00     0.312 C 
BRANCH   7   8
HETATM    8  C7  UNK     1      30.114  -8.286  37.874  1.00  0.00    -0.011 A 
HETATM    9  C11 UNK     1      29.177  -8.995  38.518  1.00  0.00     0.092 A 
HETATM   10  C18 UNK     1      28.114  -8.375  39.326  1.00  0.00     0.288 A 
HETATM   11  O1  UNK     1      28.115  -6.991  39.400  1.00  0.00    -0.275 OA
HETATM   12  O2  UNK     1      27.272  -9.057  39.900  1.00  0.00    -0.260 OA
HETATM   13  C12 UNK     1      29.087  -6.218  38.734  1.00  0.00     0.090 A 
HETATM   14  C19 UNK     1      28.991  -4.833  38.878  1.00  0.00     0.039 A 
HETATM   15  C8  UNK     1      30.089  -6.820  37.971  1.00  0.00     0.007 A 
HETATM   16  C21 UNK     1      29.922  -4.018  38.244  1.00  0.00     0.010 A 
HETATM   17  C15 UNK     1      30.934  -4.591  37.476  1.00  0.00    -0.058 A 
HETATM   18  C13 UNK     1      31.017  -5.982  37.340  1.00  0.00     0.022 A 
BRANCH  17  19
HETATM   19  C22 UNK     1      31.933  -3.718  36.794  1.00  0.00     0.034 C 
HETATM   20  C23 UNK     1      32.421  -4.313  35.476  1.00  0.00     0.010 C 
ENDBRANCH  17  19
ENDBRANCH   7   8
ENDBRANCH   1   7
BRANCH   2  21
HETATM   21  C6  UNK     1      28.498  -8.112  32.184  1.00  0.00     0.037 A 
HETATM   22  C10 UNK     1      28.567  -9.035  31.141  1.00  0.00     0.053 A 
HETATM   23  C17 UNK     1      27.885  -8.793  29.949  1.00  0.00     0.036 A 
HETATM   24  C20 UNK     1      27.134  -7.628  29.799  1.00  0.00     0.024 A 
HETATM   25 Cl1  UNK     1      27.970  -9.933  28.662  1.00  0.00    -0.084 Cl
HETATM   26  C14 UNK     1      27.065  -6.703  30.842  1.00  0.00     0.011 A 
HETATM   27  C9  UNK     1      27.747  -6.945  32.035  1.00  0.00    -0.035 A 
HETATM   28  C16 UNK     1      27.655  -5.938  33.135  1.00  0.00     0.050 C 
ENDBRANCH   2  21
TORSDOF 4
ENDMDL
MODEL 7
REMARK VINA RESULT:      -8.4     10.518     12.794
REMARK  4 active torsions:
REMARK  status: ('A' for Active; 'I' for Inactive)
REMARK    1  A    between atoms: C5_10  and  N1_4 
REMARK    2  A    between atoms: C6_11  and  N2_5 
REMARK    3  A    between atoms: C5_10  and  C7_12 
REMARK    4  A    between atoms: C15_20  and  C22_27 
ROOT
HETATM    1  N1  UNK     1      31.104  -8.722  35.133  1.00  0.00     0.095 N 
HETATM    2  N2  UNK     1      31.056  -8.925  32.284  1.00  0.00    -0.377 N 
HETATM    3  C1  UNK     1      31.796  -9.826  34.455  1.00  0.00     0.292 C 
HETATM    4  C2  UNK     1      31.156  -7.513  34.302  1.00  0.00     0.292 C 
HETATM    5  C3  UNK     1      31.145 -10.137  33.106  1.00  0.00     0.153 C 
HETATM    6  C4  UNK     1      30.482  -7.749  32.948  1.00  0.00     0.153 C 
ENDROOT
BRANCH   1   7
HETATM    7  C5  UNK     1      31.702  -8.470  36.443  1.00  0.00     0.312 C 
BRANCH   7   8
HETATM    8  C7  UNK     1      30.552  -8.345  37.400  1.00  0.00    -0.011 A 
HETATM    9  C11 UNK     1      29.930  -9.430  37.881  1.00  0.00     0.092 A 
HETATM   10  C18 UNK     1      28.800  -9.358  38.821  1.00  0.00     0.288 A 
HETATM   11  O1  UNK     1      28.386  -8.091  39.202  1.00  0.00    -0.275 OA
HETATM   12  O2  UNK     1      28.254 -10.373  39.239  1.00  0.00    -0.260 OA
HETATM   13  C12 UNK     1      29.020  -6.931  38.713  1.00  0.00     0.090 A 
HETATM   14  C19 UNK     1      28.521  -5.708  39.164  1.00  0.00     0.039 A 
HETATM   15  C8  UNK     1      30.091  -7.016  37.822  1.00  0.00     0.007 A 
HETATM   16  C21 UNK     1      29.105  -4.529  38.716  1.00  0.00     0.010 A 
HETATM   17  C15 UNK     1      30.176  -4.582  37.826  1.00  0.00    -0.058 A 
HETATM   18  C13 UNK     1      30.666  -5.816  37.382  1.00  0.00     0.022 A 
BRANCH  17  19
HETATM   19  C22 UNK     1      30.804  -3.318  37.343  1.00  0.00     0.034 C 
HETATM   20  C23 UNK     1      32.070  -3.571  36.531  1.00  0.00     0.010 C 
ENDBRANCH  17  19
ENDBRANCH   7   8
ENDBRANCH   1   7
BRANCH   2  21
HETATM   21  C6  UNK     1      30.907  -9.037  30.897  1.00  0.00     0.037 A 
HETATM   22  C10 UNK     1      29.674  -9.423  30.373  1.00  0.00     0.053 A 
HETATM   23  C17 UNK     1      29.508  -9.540  28.993  1.00  0.00     0.036 A 
HETATM   24  C20 UNK     1      30.576  -9.271  28.137  1.00  0.00     0.024 A 
HETATM   25 Cl1  UNK     1      27.986 -10.017  28.346  1.00  0.00    -0.084 Cl
HETATM   26  C14 UNK     1      31.809  -8.885  28.661  1.00  0.00     0.011 A 
HETATM   27  C9  UNK     1      31.976  -8.768  30.041  1.00  0.00    -0.035 A 
HETATM   28  C16 UNK     1      33.308  -8.353  30.575  1.00  0.00     0.050 C 
ENDBRANCH   2  21
TORSDOF 4
ENDMDL
MODEL 8
REMARK VINA RESULT:      -8.4      7.109     11.800
REMARK  4 active torsions:
REMARK  status: ('A' for Active; 'I' for Inactive)
REMARK    1  A    between atoms: C5_10  and  N1_4 
REMARK    2  A    between atoms: C6_11  and  N2_5 
REMARK    3  A    between atoms: C5_10  and  C7_12 
REMARK    4  A    between atoms: C15_20  and  C22_27 
ROOT
HETATM    1  N1  UNK     1      18.583   2.911  31.205  1.00  0.00     0.095 N 
HETATM    2  N2  UNK     1      18.679   5.509  32.390  1.00  0.00    -0.377 N 
HETATM    3  C1  UNK     1      17.827   3.197  32.431  1.00  0.00     0.292 C 
HETATM    4  C2  UNK     1      18.637   4.111  30.360  1.00  0.00     0.292 C 
HETATM    5  C3  UNK     1      18.484   4.323  33.232  1.00  0.00     0.153 C 
HETATM    6  C4  UNK     1      19.322   5.267  31.093  1.00  0.00     0.153 C 
ENDROOT
BRANCH   1   7
HETATM    7  C5  UNK     1      17.976   1.798  30.477  1.00  0.00     0.312 C 
BRANCH   7   8
HETATM    8  C7  UNK     1      19.024   0.724  30.425  1.00  0.00    -0.011 A 
HETATM    9  C11 UNK     1      19.797   0.563  29.342  1.00  0.00     0.092 A 
HETATM   10  C18 UNK     1      20.837  -0.475  29.245  1.00  0.00     0.288 A 
HETATM   11  O1  UNK     1      20.993  -1.305  30.344  1.00  0.00    -0.275 OA
HETATM   12  O2  UNK     1      21.524  -0.595  28.237  1.00  0.00    -0.260 OA
HETATM   13  C12 UNK     1      20.196  -1.159  31.497  1.00  0.00     0.090 A 
HETATM   14  C19 UNK     1      20.441  -2.050  32.544  1.00  0.00     0.039 A 
HETATM   15  C8  UNK     1      19.214  -0.170  31.575  1.00  0.00     0.007 A 
HETATM   16  C21 UNK     1      19.685  -1.955  33.707  1.00  0.00     0.010 A 
HETATM   17  C15 UNK     1      18.698  -0.978  33.813  1.00  0.00    -0.058 A 
HETATM   18  C13 UNK     1      18.463  -0.092  32.755  1.00  0.00     0.022 A 
BRANCH  17  19
HETATM   19  C22 UNK     1      17.885  -0.876  35.060  1.00  0.00     0.034 C 
HETATM   20  C23 UNK     1      16.414  -0.586  34.773  1.00  0.00     0.010 C 
ENDBRANCH  17  19
ENDBRANCH   7   8
ENDBRANCH   1   7
BRANCH   2  21
HETATM   21  C6  UNK     1      18.850   6.762  32.987  1.00  0.00     0.037 A 
HETATM   22  C10 UNK     1      17.731   7.550  33.253  1.00  0.00     0.053 A 
HETATM   23  C17 UNK     1      17.885   8.803  33.846  1.00  0.00     0.036 A 
HETATM   24  C20 UNK     1      19.158   9.268  34.174  1.00  0.00     0.024 A 
HETATM   25 Cl1  UNK     1      16.503   9.776  34.175  1.00  0.00    -0.084 Cl
HETATM   26  C14 UNK     1      20.278   8.481  33.907  1.00  0.00     0.011 A 
HETATM   27  C9  UNK     1      20.125   7.227  33.313  1.00  0.00    -0.035 A 
HETATM   28  C16 UNK     1      21.342   6.405  33.039  1.00  0.00     0.050 C 
ENDBRANCH   2  21
TORSDOF 4
ENDMDL
MODEL 9
REMARK VINA RESULT:      -8.4      6.965     12.269
REMARK  4 active torsions:
REMARK  status: ('A' for Active; 'I' for Inactive)
REMARK    1  A    between atoms: C5_10  and  N1_4 
REMARK    2  A    between atoms: C6_11  and  N2_5 
REMARK    3  A    between atoms: C5_10  and  C7_12 
REMARK    4  A    between atoms: C15_20  and  C22_27 
ROOT
HETATM    1  N1  UNK     1      18.620   3.034  32.713  1.00  0.00     0.095 N 
HETATM    2  N2  UNK     1      18.313   5.811  33.303  1.00  0.00    -0.377 N 
HETATM    3  C1  UNK     1      18.379   3.478  34.092  1.00  0.00     0.292 C 
HETATM    4  C2  UNK     1      17.922   3.919  31.773  1.00  0.00     0.292 C 
HETATM    5  C3  UNK     1      18.886   4.907  34.305  1.00  0.00     0.153 C 
HETATM    6  C4  UNK     1      18.416   5.361  31.909  1.00  0.00     0.153 C 
ENDROOT
BRANCH   1   7
HETATM    7  C5  UNK     1      18.181   1.650  32.537  1.00  0.00     0.312 C 
BRANCH   7   8
HETATM    8  C7  UNK     1      18.476   1.307  31.106  1.00  0.00    -0.011 A 
HETATM    9  C11 UNK     1      18.037   2.081  30.104  1.00  0.00     0.092 A 
HETATM   10  C18 UNK     1      18.301   1.786  28.686  1.00  0.00     0.288 A 
HETATM   11  O1  UNK     1      19.041   0.645  28.414  1.00  0.00    -0.275 OA
HETATM   12  O2  UNK     1      17.881   2.516  27.795  1.00  0.00    -0.260 OA
HETATM   13  C12 UNK     1      19.516  -0.188  29.446  1.00  0.00     0.090 A 
HETATM   14  C19 UNK     1      20.251  -1.309  29.057  1.00  0.00     0.039 A 
HETATM   15  C8  UNK     1      19.258   0.105  30.787  1.00  0.00     0.007 A 
HETATM   16  C21 UNK     1      20.747  -2.169  30.031  1.00  0.00     0.010 A 
HETATM   17  C15 UNK     1      20.504  -1.902  31.377  1.00  0.00    -0.058 A 
HETATM   18  C13 UNK     1      19.765  -0.774  31.753  1.00  0.00     0.022 A 
BRANCH  17  19
HETATM   19  C22 UNK     1      21.033  -2.824  32.424  1.00  0.00     0.034 C 
HETATM   20  C23 UNK     1      20.461  -2.524  33.806  1.00  0.00     0.010 C 
ENDBRANCH  17  19
ENDBRANCH   7   8
ENDBRANCH   1   7
BRANCH   2  21
HETATM   21  C6  UNK     1      18.282   7.188  33.549  1.00  0.00     0.037 A 
HETATM   22  C10 UNK     1      19.455   7.841  33.927  1.00  0.00     0.053 A 
HETATM   23  C17 UNK     1      19.440   9.213  34.177  1.00  0.00     0.036 A 
HETATM   24  C20 UNK     1      18.252   9.933  34.050  1.00  0.00     0.024 A 
HETATM   25 Cl1  UNK     1      20.888  10.019  34.643  1.00  0.00    -0.084 Cl
HETATM   26  C14 UNK     1      17.079   9.281  33.672  1.00  0.00     0.011 A 
HETATM   27  C9  UNK     1      17.093   7.908  33.422  1.00  0.00    -0.035 A 
HETATM   28  C16 UNK     1      15.821   7.235  33.019  1.00  0.00     0.050 C 
ENDBRANCH   2  21
TORSDOF 4
ENDMDL
MODEL 10
REMARK VINA RESULT:      -8.4     10.284     12.837
REMARK  4 active torsions:
REMARK  status: ('A' for Active; 'I' for Inactive)
REMARK    1  A    between atoms: C5_10  and  N1_4 
REMARK    2  A    between atoms: C6_11  and  N2_5 
REMARK    3  A    between atoms: C5_10  and  C7_12 
REMARK    4  A    between atoms: C15_20  and  C22_27 
ROOT
HETATM    1  N1  UNK     1      31.819  -7.264  34.696  1.00  0.00     0.095 N 
HETATM    2  N2  UNK     1      31.422  -8.063  31.983  1.00  0.00    -0.377 N 
HETATM    3  C1  UNK     1      32.263  -8.587  34.238  1.00  0.00     0.292 C 
HETATM    4  C2  UNK     1      31.953  -6.288  33.609  1.00  0.00     0.292 C 
HETATM    5  C3  UNK     1      31.426  -9.067  33.051  1.00  0.00     0.153 C 
HETATM    6  C4  UNK     1      31.103  -6.692  32.401  1.00  0.00     0.153 C 
ENDROOT
BRANCH   1   7
HETATM    7  C5  UNK     1      32.591  -6.841  35.864  1.00  0.00     0.312 C 
BRANCH   7   8
HETATM    8  C7  UNK     1      31.815  -5.713  36.480  1.00  0.00    -0.011 A 
HETATM    9  C11 UNK     1      32.159  -4.436  36.264  1.00  0.00     0.092 A 
HETATM   10  C18 UNK     1      31.428  -3.298  36.845  1.00  0.00     0.288 A 
HETATM   11  O1  UNK     1      30.340  -3.601  37.649  1.00  0.00    -0.275 OA
HETATM   12  O2  UNK     1      31.773  -2.142  36.627  1.00  0.00    -0.260 OA
HETATM   13  C12 UNK     1      29.954  -4.934  37.895  1.00  0.00     0.090 A 
HETATM   14  C19 UNK     1      28.843  -5.122  38.719  1.00  0.00     0.039 A 
HETATM   15  C8  UNK     1      30.657  -6.003  37.336  1.00  0.00     0.007 A 
HETATM   16  C21 UNK     1      28.415  -6.415  38.998  1.00  0.00     0.010 A 
HETATM   17  C15 UNK     1      29.097  -7.502  38.454  1.00  0.00    -0.058 A 
HETATM   18  C13 UNK     1      30.210  -7.298  37.629  1.00  0.00     0.022 A 
BRANCH  17  19
HETATM   19  C22 UNK     1      28.640  -8.890  38.753  1.00  0.00     0.034 C 
HETATM   20  C23 UNK     1      27.527  -8.923  39.796  1.00  0.00     0.010 C 
ENDBRANCH  17  19
ENDBRANCH   7   8
ENDBRANCH   1   7
BRANCH   2  21
HETATM   21  C6  UNK     1      31.103  -8.442  30.675  1.00  0.00     0.037 A 
HETATM   22  C10 UNK     1      29.799  -8.840  30.379  1.00  0.00     0.053 A 
HETATM   23  C17 UNK     1      29.465  -9.222  29.080  1.00  0.00     0.036 A 
HETATM   24  C20 UNK     1      30.433  -9.208  28.077  1.00  0.00     0.024 A 
HETATM   25 Cl1  UNK     1      27.855  -9.712  28.714  1.00  0.00    -0.084 Cl
HETATM   26  C14 UNK     1      31.737  -8.811  28.372  1.00  0.00     0.011 A 
HETATM   27  C9  UNK     1      32.073  -8.428  29.671  1.00  0.00    -0.035 A 
HETATM   28  C16 UNK     1      33.477  -8.008  29.960  1.00  0.00     0.050 C 
ENDBRANCH   2  21
TORSDOF 4
ENDMDL
