MODEL 1
REMARK VINA RESULT:      -9.6      0.000      0.000
REMARK  3 active torsions:
REMARK  status: ('A' for Active; 'I' for Inactive)
REMARK    1  A    between atoms: C10_16  and  N1_5 
REMARK       I    between atoms: C12_18  and  N1_5 
REMARK    2  A    between atoms: C1_7  and  C7_13 
REMARK    3  A    between atoms: C12_18  and  C13_19 
ROOT
HETATM    1  S1  UNK     1      16.759   6.200  32.257  1.00  0.00    -0.075 SA
HETATM    2  N2  UNK     1      21.821   6.416  32.766  1.00  0.00    -0.191 NA
HETATM    3  C1  UNK     1      16.764  10.018  33.781  1.00  0.00    -0.010 C 
HETATM    4  C2  UNK     1      18.054   9.845  34.612  1.00  0.00     0.009 C 
HETATM    5  C3  UNK     1      16.122   8.648  33.461  1.00  0.00     0.051 C 
HETATM    6  C4  UNK     1      19.113   9.030  33.852  1.00  0.00     0.042 C 
HETATM    7  C5  UNK     1      18.524   7.811  33.213  1.00  0.00    -0.021 A 
HETATM    8  C6  UNK     1      17.163   7.666  33.023  1.00  0.00    -0.007 A 
HETATM    9  C8  UNK     1      19.242   6.687  32.705  1.00  0.00     0.085 A 
HETATM   10  C10 UNK     1      18.406   5.739  32.159  1.00  0.00     0.098 A 
HETATM   11  C11 UNK     1      20.665   6.539  32.739  1.00  0.00     0.103 C 
ENDROOT
BRANCH  10  12
HETATM   12  N1  UNK     1      18.665   4.529  31.571  1.00  0.00    -0.316 N 
HETATM   13  C12 UNK     1      18.272   3.239  31.991  1.00  0.00     0.262 C 
HETATM   14  O2  UNK     1      17.611   2.950  32.982  1.00  0.00    -0.267 OA
HETATM   15  H13 UNK     1      19.201   4.597  30.709  1.00  0.00     0.170 HD
BRANCH  13  16
HETATM   16  C13 UNK     1      18.740   2.164  31.093  1.00  0.00     0.108 A 
HETATM   17  C14 UNK     1      19.157   1.038  31.687  1.00  0.00     0.037 A 
HETATM   18  C15 UNK     1      19.637  -0.078  30.886  1.00  0.00    -0.001 A 
HETATM   19  C17 UNK     1      19.654   0.047  29.500  1.00  0.00     0.089 A 
HETATM   20  C18 UNK     1      20.082  -1.270  31.461  1.00  0.00     0.014 A 
HETATM   21  O1  UNK     1      19.213   1.233  28.881  1.00  0.00    -0.274 OA
HETATM   22  C19 UNK     1      20.101  -0.984  28.677  1.00  0.00     0.038 A 
HETATM   23  C16 UNK     1      18.749   2.317  29.621  1.00  0.00     0.304 A 
HETATM   24  O3  UNK     1      18.368   3.347  29.075  1.00  0.00    -0.259 OA
HETATM   25  C21 UNK     1      20.544  -2.171  29.258  1.00  0.00     0.003 A 
HETATM   26  C20 UNK     1      20.533  -2.313  30.648  1.00  0.00     0.001 A 
ENDBRANCH  13  16
ENDBRANCH  10  12
BRANCH   3  27
HETATM   27  C7  UNK     1      15.767  10.918  34.509  1.00  0.00     0.000 C 
HETATM   28  C9  UNK     1      14.517  10.155  34.902  1.00  0.00     0.005 C 
ENDBRANCH   3  27
TORSDOF 3
ENDMDL
MODEL 2
REMARK VINA RESULT:      -9.3      1.406      2.348
REMARK  3 active torsions:
REMARK  status: ('A' for Active; 'I' for Inactive)
REMARK    1  A    between atoms: C10_16  and  N1_5 
REMARK       I    between atoms: C12_18  and  N1_5 
REMARK    2  A    between atoms: C1_7  and  C7_13 
REMARK    3  A    between atoms: C12_18  and  C13_19 
ROOT
HETATM    1  S1  UNK     1      15.423   6.546  32.532  1.00  0.00    -0.075 SA
HETATM    2  N2  UNK     1      20.317   7.433  33.620  1.00  0.00    -0.191 NA
HETATM    3  C1  UNK     1      14.882  10.570  33.173  1.00  0.00    -0.010 C 
HETATM    4  C2  UNK     1      16.045  10.718  34.179  1.00  0.00     0.009 C 
HETATM    5  C3  UNK     1      14.411   9.101  33.081  1.00  0.00     0.051 C 
HETATM    6  C4  UNK     1      17.268   9.890  33.756  1.00  0.00     0.042 C 
HETATM    7  C5  UNK     1      16.885   8.508  33.329  1.00  0.00    -0.021 A 
HETATM    8  C6  UNK     1      15.584   8.173  33.004  1.00  0.00    -0.007 A 
HETATM    9  C8  UNK     1      17.762   7.393  33.175  1.00  0.00     0.085 A 
HETATM   10  C10 UNK     1      17.098   6.264  32.747  1.00  0.00     0.098 A 
HETATM   11  C11 UNK     1      19.172   7.416  33.421  1.00  0.00     0.103 C 
ENDROOT
BRANCH  10  12
HETATM   12  N1  UNK     1      17.542   4.997  32.476  1.00  0.00    -0.316 N 
HETATM   13  C12 UNK     1      18.239   4.528  31.340  1.00  0.00     0.262 C 
HETATM   14  O2  UNK     1      18.584   5.178  30.360  1.00  0.00    -0.267 OA
HETATM   15  H13 UNK     1      17.346   4.325  33.214  1.00  0.00     0.170 HD
BRANCH  13  16
HETATM   16  C13 UNK     1      18.556   3.087  31.402  1.00  0.00     0.108 A 
HETATM   17  C14 UNK     1      19.021   2.535  30.274  1.00  0.00     0.037 A 
HETATM   18  C15 UNK     1      19.361   1.120  30.237  1.00  0.00    -0.001 A 
HETATM   19  C17 UNK     1      19.194   0.357  31.389  1.00  0.00     0.089 A 
HETATM   20  C18 UNK     1      19.849   0.502  29.084  1.00  0.00     0.014 A 
HETATM   21  O1  UNK     1      18.705   0.944  32.572  1.00  0.00    -0.274 OA
HETATM   22  C19 UNK     1      19.502  -1.001  31.419  1.00  0.00     0.038 A 
HETATM   23  C16 UNK     1      18.371   2.294  32.638  1.00  0.00     0.304 A 
HETATM   24  O3  UNK     1      17.945   2.797  33.672  1.00  0.00    -0.259 OA
HETATM   25  C21 UNK     1      19.988  -1.610  30.264  1.00  0.00     0.003 A 
HETATM   26  C20 UNK     1      20.162  -0.860  29.099  1.00  0.00     0.001 A 
ENDBRANCH  13  16
ENDBRANCH  10  12
BRANCH   3  27
HETATM   27  C7  UNK     1      13.716  11.481  33.554  1.00  0.00     0.000 C 
HETATM   28  C9  UNK     1      12.504  11.222  32.681  1.00  0.00     0.005 C 
ENDBRANCH   3  27
TORSDOF 3
ENDMDL
MODEL 3
REMARK VINA RESULT:      -9.3      7.285     12.415
REMARK  3 active torsions:
REMARK  status: ('A' for Active; 'I' for Inactive)
REMARK    1  A    between atoms: C10_16  and  N1_5 
REMARK       I    between atoms: C12_18  and  N1_5 
REMARK    2  A    between atoms: C1_7  and  C7_13 
REMARK    3  A    between atoms: C12_18  and  C13_19 
ROOT
HETATM    1  S1  UNK     1      19.550  -5.409  36.990  1.00  0.00    -0.075 SA
HETATM    2  N2  UNK     1      21.075  -7.454  32.583  1.00  0.00    -0.191 NA
HETATM    3  C1  UNK     1      20.476  -9.059  38.637  1.00  0.00    -0.010 C 
HETATM    4  C2  UNK     1      20.208  -9.874  37.352  1.00  0.00     0.009 C 
HETATM    5  C3  UNK     1      19.744  -7.698  38.593  1.00  0.00     0.051 C 
HETATM    6  C4  UNK     1      20.716  -9.142  36.100  1.00  0.00     0.042 C 
HETATM    7  C5  UNK     1      20.328  -7.697  36.104  1.00  0.00    -0.021 A 
HETATM    8  C6  UNK     1      19.910  -7.051  37.253  1.00  0.00    -0.007 A 
HETATM    9  C8  UNK     1      20.355  -6.807  34.989  1.00  0.00     0.085 A 
HETATM   10  C10 UNK     1      19.957  -5.533  35.331  1.00  0.00     0.098 A 
HETATM   11  C11 UNK     1      20.753  -7.165  33.662  1.00  0.00     0.103 C 
ENDROOT
BRANCH  10  12
HETATM   12  N1  UNK     1      19.835  -4.389  34.587  1.00  0.00    -0.316 N 
HETATM   13  C12 UNK     1      20.385  -3.111  34.833  1.00  0.00     0.262 C 
HETATM   14  O2  UNK     1      21.088  -2.775  35.779  1.00  0.00    -0.267 OA
HETATM   15  H13 UNK     1      19.284  -4.505  33.740  1.00  0.00     0.170 HD
BRANCH  13  16
HETATM   16  C13 UNK     1      20.036  -2.116  33.799  1.00  0.00     0.108 A 
HETATM   17  C14 UNK     1      20.576  -2.307  32.588  1.00  0.00     0.037 A 
HETATM   18  C15 UNK     1      20.292  -1.379  31.504  1.00  0.00    -0.001 A 
HETATM   19  C17 UNK     1      19.454  -0.296  31.748  1.00  0.00     0.089 A 
HETATM   20  C18 UNK     1      20.833  -1.539  30.227  1.00  0.00     0.014 A 
HETATM   21  O1  UNK     1      18.888  -0.101  33.023  1.00  0.00    -0.274 OA
HETATM   22  C19 UNK     1      19.142   0.628  30.753  1.00  0.00     0.038 A 
HETATM   23  C16 UNK     1      19.141  -0.971  34.080  1.00  0.00     0.304 A 
HETATM   24  O3  UNK     1      18.646  -0.793  35.187  1.00  0.00    -0.259 OA
HETATM   25  C21 UNK     1      19.685   0.461  29.481  1.00  0.00     0.003 A 
HETATM   26  C20 UNK     1      20.529  -0.621  29.218  1.00  0.00     0.001 A 
ENDBRANCH  13  16
ENDBRANCH  10  12
BRANCH   3  27
HETATM   27  C7  UNK     1      20.061  -9.849  39.877  1.00  0.00     0.000 C 
HETATM   28  C9  UNK     1      19.296 -11.104  39.503  1.00  0.00     0.005 C 
ENDBRANCH   3  27
TORSDOF 3
ENDMDL
MODEL 4
REMARK VINA RESULT:      -9.0     14.967     20.086
REMARK  3 active torsions:
REMARK  status: ('A' for Active; 'I' for Inactive)
REMARK    1  A    between atoms: C10_16  and  N1_5 
REMARK       I    between atoms: C12_18  and  N1_5 
REMARK    2  A    between atoms: C1_7  and  C7_13 
REMARK    3  A    between atoms: C12_18  and  C13_19 
ROOT
HETATM    1  S1  UNK     1      20.321  -4.525  14.751  1.00  0.00    -0.075 SA
HETATM    2  N2  UNK     1      18.906  -0.871  11.499  1.00  0.00    -0.191 NA
HETATM    3  C1  UNK     1      20.742  -6.888  11.415  1.00  0.00    -0.010 C 
HETATM    4  C2  UNK     1      19.671  -6.155  10.577  1.00  0.00     0.009 C 
HETATM    5  C3  UNK     1      20.531  -6.640  12.925  1.00  0.00     0.051 C 
HETATM    6  C4  UNK     1      19.732  -4.634  10.785  1.00  0.00     0.042 C 
HETATM    7  C5  UNK     1      19.854  -4.274  12.232  1.00  0.00    -0.021 A 
HETATM    8  C6  UNK     1      20.241  -5.195  13.189  1.00  0.00    -0.007 A 
HETATM    9  C8  UNK     1      19.629  -2.989  12.811  1.00  0.00     0.085 A 
HETATM   10  C10 UNK     1      19.847  -2.985  14.171  1.00  0.00     0.098 A 
HETATM   11  C11 UNK     1      19.230  -1.821  12.086  1.00  0.00     0.103 C 
ENDROOT
BRANCH  10  12
HETATM   12  N1  UNK     1      19.748  -1.987  15.104  1.00  0.00    -0.316 N 
HETATM   13  C12 UNK     1      18.673  -1.688  15.970  1.00  0.00     0.262 C 
HETATM   14  O2  UNK     1      17.601  -2.276  16.053  1.00  0.00    -0.267 OA
HETATM   15  H13 UNK     1      20.581  -1.406  15.174  1.00  0.00     0.170 HD
BRANCH  13  16
HETATM   16  C13 UNK     1      18.934  -0.529  16.847  1.00  0.00     0.108 A 
HETATM   17  C14 UNK     1      18.923  -0.769  18.164  1.00  0.00     0.037 A 
HETATM   18  C15 UNK     1      19.169   0.311  19.108  1.00  0.00    -0.001 A 
HETATM   19  C17 UNK     1      19.414   1.590  18.619  1.00  0.00     0.089 A 
HETATM   20  C18 UNK     1      19.167   0.106  20.490  1.00  0.00     0.014 A 
HETATM   21  O1  UNK     1      19.424   1.837  17.232  1.00  0.00    -0.274 OA
HETATM   22  C19 UNK     1      19.657   2.666  19.469  1.00  0.00     0.038 A 
HETATM   23  C16 UNK     1      19.193   0.824  16.305  1.00  0.00     0.304 A 
HETATM   24  O3  UNK     1      19.203   1.048  15.099  1.00  0.00    -0.259 OA
HETATM   25  C21 UNK     1      19.653   2.454  20.847  1.00  0.00     0.003 A 
HETATM   26  C20 UNK     1      19.410   1.176  21.355  1.00  0.00     0.001 A 
ENDBRANCH  13  16
ENDBRANCH  10  12
BRANCH   3  27
HETATM   27  C7  UNK     1      20.735  -8.386  11.114  1.00  0.00     0.000 C 
HETATM   28  C9  UNK     1      20.979  -9.203  12.367  1.00  0.00     0.005 C 
ENDBRANCH   3  27
TORSDOF 3
ENDMDL
MODEL 5
REMARK VINA RESULT:      -8.9      5.965      8.628
REMARK  3 active torsions:
REMARK  status: ('A' for Active; 'I' for Inactive)
REMARK    1  A    between atoms: C10_16  and  N1_5 
REMARK       I    between atoms: C12_18  and  N1_5 
REMARK    2  A    between atoms: C1_7  and  C7_13 
REMARK    3  A    between atoms: C12_18  and  C13_19 
ROOT
HETATM    1  S1  UNK     1      19.131  -1.256  32.417  1.00  0.00    -0.075 SA
HETATM    2  N2  UNK     1      18.245   1.029  36.880  1.00  0.00    -0.191 NA
HETATM    3  C1  UNK     1      18.822   2.507  30.792  1.00  0.00    -0.010 C 
HETATM    4  C2  UNK     1      17.862   3.056  31.871  1.00  0.00     0.009 C 
HETATM    5  C3  UNK     1      18.776   0.963  30.744  1.00  0.00     0.051 C 
HETATM    6  C4  UNK     1      18.243   2.560  33.274  1.00  0.00     0.042 C 
HETATM    7  C5  UNK     1      18.540   1.094  33.285  1.00  0.00    -0.021 A 
HETATM    8  C6  UNK     1      18.803   0.389  32.126  1.00  0.00    -0.007 A 
HETATM    9  C8  UNK     1      18.621   0.252  34.435  1.00  0.00     0.085 A 
HETATM   10  C10 UNK     1      18.934  -1.049  34.106  1.00  0.00     0.098 A 
HETATM   11  C11 UNK     1      18.413   0.682  35.784  1.00  0.00     0.103 C 
ENDROOT
BRANCH  10  12
HETATM   12  N1  UNK     1      19.107  -2.165  34.880  1.00  0.00    -0.316 N 
HETATM   13  C12 UNK     1      20.312  -2.771  35.302  1.00  0.00     0.262 C 
HETATM   14  O2  UNK     1      21.454  -2.407  35.049  1.00  0.00    -0.267 OA
HETATM   15  H13 UNK     1      18.237  -2.587  35.195  1.00  0.00     0.170 HD
BRANCH  13  16
HETATM   16  C13 UNK     1      20.101  -3.970  36.138  1.00  0.00     0.108 A 
HETATM   17  C14 UNK     1      19.769  -5.093  35.487  1.00  0.00     0.037 A 
HETATM   18  C15 UNK     1      19.540  -6.327  36.224  1.00  0.00    -0.001 A 
HETATM   19  C17 UNK     1      19.673  -6.318  37.609  1.00  0.00     0.089 A 
HETATM   20  C18 UNK     1      19.192  -7.520  35.587  1.00  0.00     0.014 A 
HETATM   21  O1  UNK     1      20.023  -5.134  38.287  1.00  0.00    -0.274 OA
HETATM   22  C19 UNK     1      19.468  -7.465  38.372  1.00  0.00     0.038 A 
HETATM   23  C16 UNK     1      20.248  -3.939  37.610  1.00  0.00     0.304 A 
HETATM   24  O3  UNK     1      20.551  -2.913  38.209  1.00  0.00    -0.259 OA
HETATM   25  C21 UNK     1      19.121  -8.652  37.729  1.00  0.00     0.003 A 
HETATM   26  C20 UNK     1      18.984  -8.679  36.339  1.00  0.00     0.001 A 
ENDBRANCH  13  16
ENDBRANCH  10  12
BRANCH   3  27
HETATM   27  C7  UNK     1      18.492   3.095  29.421  1.00  0.00     0.000 C 
HETATM   28  C9  UNK     1      17.881   2.052  28.505  1.00  0.00     0.005 C 
ENDBRANCH   3  27
TORSDOF 3
ENDMDL
MODEL 6
REMARK VINA RESULT:      -8.9      6.936     10.250
REMARK  3 active torsions:
REMARK  status: ('A' for Active; 'I' for Inactive)
REMARK    1  A    between atoms: C10_16  and  N1_5 
REMARK       I    between atoms: C12_18  and  N1_5 
REMARK    2  A    between atoms: C1_7  and  C7_13 
REMARK    3  A    between atoms: C12_18  and  C13_19 
ROOT
HETATM    1  S1  UNK     1      19.173  -1.443  33.953  1.00  0.00    -0.075 SA
HETATM    2  N2  UNK     1      21.992  -4.935  31.549  1.00  0.00    -0.191 NA
HETATM    3  C1  UNK     1      19.117   0.531  30.348  1.00  0.00    -0.010 C 
HETATM    4  C2  UNK     1      20.476  -0.016  29.858  1.00  0.00     0.009 C 
HETATM    5  C3  UNK     1      19.005   0.442  31.887  1.00  0.00     0.051 C 
HETATM    6  C4  UNK     1      20.658  -1.496  30.228  1.00  0.00     0.042 C 
HETATM    7  C5  UNK     1      20.266  -1.769  31.646  1.00  0.00    -0.021 A 
HETATM    8  C6  UNK     1      19.494  -0.885  32.377  1.00  0.00    -0.007 A 
HETATM    9  C8  UNK     1      20.587  -2.931  32.408  1.00  0.00     0.085 A 
HETATM   10  C10 UNK     1      20.056  -2.884  33.679  1.00  0.00     0.098 A 
HETATM   11  C11 UNK     1      21.362  -4.037  31.933  1.00  0.00     0.103 C 
ENDROOT
BRANCH  10  12
HETATM   12  N1  UNK     1      20.118  -3.768  34.722  1.00  0.00    -0.316 N 
HETATM   13  C12 UNK     1      20.212  -3.499  36.106  1.00  0.00     0.262 C 
HETATM   14  O2  UNK     1      20.260  -2.401  36.647  1.00  0.00    -0.267 OA
HETATM   15  H13 UNK     1      20.071  -4.744  34.439  1.00  0.00     0.170 HD
BRANCH  13  16
HETATM   16  C13 UNK     1      20.254  -4.719  36.937  1.00  0.00     0.108 A 
HETATM   17  C14 UNK     1      21.413  -4.972  37.558  1.00  0.00     0.037 A 
HETATM   18  C15 UNK     1      21.553  -6.151  38.399  1.00  0.00    -0.001 A 
HETATM   19  C17 UNK     1      20.465  -7.006  38.546  1.00  0.00     0.089 A 
HETATM   20  C18 UNK     1      22.742  -6.454  39.066  1.00  0.00     0.014 A 
HETATM   21  O1  UNK     1      19.247  -6.734  37.890  1.00  0.00    -0.274 OA
HETATM   22  C19 UNK     1      20.532  -8.150  39.337  1.00  0.00     0.038 A 
HETATM   23  C16 UNK     1      19.084  -5.614  37.079  1.00  0.00     0.304 A 
HETATM   24  O3  UNK     1      18.022  -5.386  36.512  1.00  0.00    -0.259 OA
HETATM   25  C21 UNK     1      21.723  -8.446  39.998  1.00  0.00     0.003 A 
HETATM   26  C20 UNK     1      22.825  -7.598  39.863  1.00  0.00     0.001 A 
ENDBRANCH  13  16
ENDBRANCH  10  12
BRANCH   3  27
HETATM   27  C7  UNK     1      18.910   1.970  29.879  1.00  0.00     0.000 C 
HETATM   28  C9  UNK     1      17.953   2.037  28.705  1.00  0.00     0.005 C 
ENDBRANCH   3  27
TORSDOF 3
ENDMDL
MODEL 7
REMARK VINA RESULT:      -8.9      8.625     13.790
REMARK  3 active torsions:
REMARK  status: ('A' for Active; 'I' for Inactive)
REMARK    1  A    between atoms: C10_16  and  N1_5 
REMARK       I    between atoms: C12_18  and  N1_5 
REMARK    2  A    between atoms: C1_7  and  C7_13 
REMARK    3  A    between atoms: C12_18  and  C13_19 
ROOT
HETATM    1  S1  UNK     1      18.842  -6.979  38.114  1.00  0.00    -0.075 SA
HETATM    2  N2  UNK     1      20.934  -7.150  33.476  1.00  0.00    -0.191 NA
HETATM    3  C1  UNK     1      19.883 -10.946  38.381  1.00  0.00    -0.010 C 
HETATM    4  C2  UNK     1      19.802 -11.224  36.864  1.00  0.00     0.009 C 
HETATM    5  C3  UNK     1      19.057  -9.696  38.761  1.00  0.00     0.051 C 
HETATM    6  C4  UNK     1      20.370 -10.055  36.043  1.00  0.00     0.042 C 
HETATM    7  C5  UNK     1      19.874  -8.733  36.539  1.00  0.00    -0.021 A 
HETATM    8  C6  UNK     1      19.300  -8.585  37.788  1.00  0.00    -0.007 A 
HETATM    9  C8  UNK     1      19.940  -7.487  35.847  1.00  0.00     0.085 A 
HETATM   10  C10 UNK     1      19.414  -6.452  36.589  1.00  0.00     0.098 A 
HETATM   11  C11 UNK     1      20.489  -7.302  34.538  1.00  0.00     0.103 C 
ENDROOT
BRANCH  10  12
HETATM   12  N1  UNK     1      19.277  -5.117  36.315  1.00  0.00    -0.316 N 
HETATM   13  C12 UNK     1      20.209  -4.073  36.511  1.00  0.00     0.262 C 
HETATM   14  O2  UNK     1      21.340  -4.165  36.975  1.00  0.00    -0.267 OA
HETATM   15  H13 UNK     1      18.381  -4.871  35.900  1.00  0.00     0.170 HD
BRANCH  13  16
HETATM   16  C13 UNK     1      19.703  -2.751  36.092  1.00  0.00     0.108 A 
HETATM   17  C14 UNK     1      18.988  -2.076  37.001  1.00  0.00     0.037 A 
HETATM   18  C15 UNK     1      18.446  -0.764  36.680  1.00  0.00    -0.001 A 
HETATM   19  C17 UNK     1      18.684  -0.227  35.418  1.00  0.00     0.089 A 
HETATM   20  C18 UNK     1      17.695  -0.024  37.596  1.00  0.00     0.014 A 
HETATM   21  O1  UNK     1      19.437  -0.942  34.466  1.00  0.00    -0.274 OA
HETATM   22  C19 UNK     1      18.194   1.023  35.049  1.00  0.00     0.038 A 
HETATM   23  C16 UNK     1      19.969  -2.199  34.744  1.00  0.00     0.304 A 
HETATM   24  O3  UNK     1      20.622  -2.814  33.910  1.00  0.00    -0.259 OA
HETATM   25  C21 UNK     1      17.445   1.755  35.969  1.00  0.00     0.003 A 
HETATM   26  C20 UNK     1      17.197   1.232  37.240  1.00  0.00     0.001 A 
ENDBRANCH  13  16
ENDBRANCH  10  12
BRANCH   3  27
HETATM   27  C7  UNK     1      19.413 -12.161  39.180  1.00  0.00     0.000 C 
HETATM   28  C9  UNK     1      19.093 -11.789  40.615  1.00  0.00     0.005 C 
ENDBRANCH   3  27
TORSDOF 3
ENDMDL
MODEL 8
REMARK VINA RESULT:      -8.8      6.977     11.704
REMARK  3 active torsions:
REMARK  status: ('A' for Active; 'I' for Inactive)
REMARK    1  A    between atoms: C10_16  and  N1_5 
REMARK       I    between atoms: C12_18  and  N1_5 
REMARK    2  A    between atoms: C1_7  and  C7_13 
REMARK    3  A    between atoms: C12_18  and  C13_19 
ROOT
HETATM    1  S1  UNK     1      19.984  -6.259  34.988  1.00  0.00    -0.075 SA
HETATM    2  N2  UNK     1      19.738  -2.409  38.311  1.00  0.00    -0.191 NA
HETATM    3  C1  UNK     1      19.952  -8.697  38.298  1.00  0.00    -0.010 C 
HETATM    4  C2  UNK     1      20.618  -7.673  39.243  1.00  0.00     0.009 C 
HETATM    5  C3  UNK     1      20.251  -8.363  36.819  1.00  0.00     0.051 C 
HETATM    6  C4  UNK     1      20.094  -6.249  38.998  1.00  0.00     0.042 C 
HETATM    7  C5  UNK     1      20.037  -5.920  37.539  1.00  0.00    -0.021 A 
HETATM    8  C6  UNK     1      20.088  -6.898  36.563  1.00  0.00    -0.007 A 
HETATM    9  C8  UNK     1      19.903  -4.621  36.966  1.00  0.00     0.085 A 
HETATM   10  C10 UNK     1      19.861  -4.660  35.590  1.00  0.00     0.098 A 
HETATM   11  C11 UNK     1      19.812  -3.401  37.709  1.00  0.00     0.103 C 
ENDROOT
BRANCH  10  12
HETATM   12  N1  UNK     1      19.743  -3.666  34.655  1.00  0.00    -0.316 N 
HETATM   13  C12 UNK     1      20.576  -2.545  34.446  1.00  0.00     0.262 C 
HETATM   14  O2  UNK     1      21.584  -2.241  35.074  1.00  0.00    -0.267 OA
HETATM   15  H13 UNK     1      18.949  -3.781  34.029  1.00  0.00     0.170 HD
BRANCH  13  16
HETATM   16  C13 UNK     1      20.129  -1.684  33.333  1.00  0.00     0.108 A 
HETATM   17  C14 UNK     1      20.564  -2.022  32.112  1.00  0.00     0.037 A 
HETATM   18  C15 UNK     1      20.178  -1.234  30.951  1.00  0.00    -0.001 A 
HETATM   19  C17 UNK     1      19.353  -0.129  31.133  1.00  0.00     0.089 A 
HETATM   20  C18 UNK     1      20.608  -1.550  29.661  1.00  0.00     0.014 A 
HETATM   21  O1  UNK     1      18.898   0.222  32.419  1.00  0.00    -0.274 OA
HETATM   22  C19 UNK     1      18.946   0.666  30.064  1.00  0.00     0.038 A 
HETATM   23  C16 UNK     1      19.250  -0.513  33.548  1.00  0.00     0.304 A 
HETATM   24  O3  UNK     1      18.851  -0.200  34.664  1.00  0.00    -0.259 OA
HETATM   25  C21 UNK     1      19.380   0.345  28.779  1.00  0.00     0.003 A 
HETATM   26  C20 UNK     1      20.208  -0.762  28.578  1.00  0.00     0.001 A 
ENDBRANCH  13  16
ENDBRANCH  10  12
BRANCH   3  27
HETATM   27  C7  UNK     1      20.407 -10.117  38.629  1.00  0.00     0.000 C 
HETATM   28  C9  UNK     1      20.000 -11.095  37.543  1.00  0.00     0.005 C 
ENDBRANCH   3  27
TORSDOF 3
ENDMDL
MODEL 9
REMARK VINA RESULT:      -8.7      1.898      3.542
REMARK  3 active torsions:
REMARK  status: ('A' for Active; 'I' for Inactive)
REMARK    1  A    between atoms: C10_16  and  N1_5 
REMARK       I    between atoms: C12_18  and  N1_5 
REMARK    2  A    between atoms: C1_7  and  C7_13 
REMARK    3  A    between atoms: C12_18  and  C13_19 
ROOT
HETATM    1  S1  UNK     1      18.321   8.145  33.652  1.00  0.00    -0.075 SA
HETATM    2  N2  UNK     1      13.826   6.653  31.783  1.00  0.00    -0.191 NA
HETATM    3  C1  UNK     1      16.411  11.670  34.562  1.00  0.00    -0.010 C 
HETATM    4  C2  UNK     1      15.378  11.579  33.418  1.00  0.00     0.009 C 
HETATM    5  C3  UNK     1      17.651  10.797  34.261  1.00  0.00     0.051 C 
HETATM    6  C4  UNK     1      14.868  10.142  33.226  1.00  0.00     0.042 C 
HETATM    7  C5  UNK     1      15.986   9.148  33.239  1.00  0.00    -0.021 A 
HETATM    8  C6  UNK     1      17.239   9.457  33.735  1.00  0.00    -0.007 A 
HETATM    9  C8  UNK     1      15.925   7.795  32.791  1.00  0.00     0.085 A 
HETATM   10  C10 UNK     1      17.124   7.136  32.957  1.00  0.00     0.098 A 
HETATM   11  C11 UNK     1      14.766   7.165  32.235  1.00  0.00     0.103 C 
ENDROOT
BRANCH  10  12
HETATM   12  N1  UNK     1      17.503   5.853  32.668  1.00  0.00    -0.316 N 
HETATM   13  C12 UNK     1      18.107   5.352  31.493  1.00  0.00     0.262 C 
HETATM   14  O2  UNK     1      18.411   5.983  30.488  1.00  0.00    -0.267 OA
HETATM   15  H13 UNK     1      17.331   5.192  33.422  1.00  0.00     0.170 HD
BRANCH  13  16
HETATM   16  C13 UNK     1      18.375   3.901  31.546  1.00  0.00     0.108 A 
HETATM   17  C14 UNK     1      18.756   3.327  30.397  1.00  0.00     0.037 A 
HETATM   18  C15 UNK     1      19.041   1.901  30.350  1.00  0.00    -0.001 A 
HETATM   19  C17 UNK     1      18.913   1.149  31.513  1.00  0.00     0.089 A 
HETATM   20  C18 UNK     1      19.441   1.261  29.175  1.00  0.00     0.014 A 
HETATM   21  O1  UNK     1      18.512   1.758  32.719  1.00  0.00    -0.274 OA
HETATM   22  C19 UNK     1      19.172  -0.219  31.535  1.00  0.00     0.038 A 
HETATM   23  C16 UNK     1      18.232   3.120  32.796  1.00  0.00     0.304 A 
HETATM   24  O3  UNK     1      17.883   3.642  33.849  1.00  0.00    -0.259 OA
HETATM   25  C21 UNK     1      19.570  -0.850  30.358  1.00  0.00     0.003 A 
HETATM   26  C20 UNK     1      19.705  -0.111  29.181  1.00  0.00     0.001 A 
ENDBRANCH  13  16
ENDBRANCH  10  12
BRANCH   3  27
HETATM   27  C7  UNK     1      16.826  13.120  34.806  1.00  0.00     0.000 C 
HETATM   28  C9  UNK     1      18.163  13.429  34.162  1.00  0.00     0.005 C 
ENDBRANCH   3  27
TORSDOF 3
ENDMDL
MODEL 10
REMARK VINA RESULT:      -8.7     14.265     17.465
REMARK  3 active torsions:
REMARK  status: ('A' for Active; 'I' for Inactive)
REMARK    1  A    between atoms: C10_16  and  N1_5 
REMARK       I    between atoms: C12_18  and  N1_5 
REMARK    2  A    between atoms: C1_7  and  C7_13 
REMARK    3  A    between atoms: C12_18  and  C13_19 
ROOT
HETATM    1  S1  UNK     1      29.191  -6.030  38.687  1.00  0.00    -0.075 SA
HETATM    2  N2  UNK     1      27.750  -9.882  35.685  1.00  0.00    -0.191 NA
HETATM    3  C1  UNK     1      32.962  -6.700  37.196  1.00  0.00    -0.010 C 
HETATM    4  C2  UNK     1      32.750  -8.206  36.925  1.00  0.00     0.009 C 
HETATM    5  C3  UNK     1      31.954  -6.177  38.243  1.00  0.00     0.051 C 
HETATM    6  C4  UNK     1      31.348  -8.489  36.365  1.00  0.00     0.042 C 
HETATM    7  C5  UNK     1      30.286  -7.760  37.126  1.00  0.00    -0.021 A 
HETATM    8  C6  UNK     1      30.578  -6.695  37.958  1.00  0.00    -0.007 A 
HETATM    9  C8  UNK     1      28.883  -8.020  37.089  1.00  0.00     0.085 A 
HETATM   10  C10 UNK     1      28.172  -7.154  37.891  1.00  0.00     0.098 A 
HETATM   11  C11 UNK     1      28.259  -9.048  36.314  1.00  0.00     0.103 C 
ENDROOT
BRANCH  10  12
HETATM   12  N1  UNK     1      26.831  -7.048  38.149  1.00  0.00    -0.316 N 
HETATM   13  C12 UNK     1      26.005  -7.910  38.904  1.00  0.00     0.262 C 
HETATM   14  O2  UNK     1      26.336  -8.938  39.483  1.00  0.00    -0.267 OA
HETATM   15  H13 UNK     1      26.398  -6.221  37.745  1.00  0.00     0.170 HD
BRANCH  13  16
HETATM   16  C13 UNK     1      24.597  -7.467  38.963  1.00  0.00     0.108 A 
HETATM   17  C14 UNK     1      23.675  -8.435  39.043  1.00  0.00     0.037 A 
HETATM   18  C15 UNK     1      22.261  -8.097  39.105  1.00  0.00    -0.001 A 
HETATM   19  C17 UNK     1      21.888  -6.757  39.081  1.00  0.00     0.089 A 
HETATM   20  C18 UNK     1      21.266  -9.072  39.189  1.00  0.00     0.014 A 
HETATM   21  O1  UNK     1      22.863  -5.743  38.997  1.00  0.00    -0.274 OA
HETATM   22  C19 UNK     1      20.552  -6.367  39.138  1.00  0.00     0.038 A 
HETATM   23  C16 UNK     1      24.222  -6.035  38.936  1.00  0.00     0.304 A 
HETATM   24  O3  UNK     1      25.064  -5.146  38.863  1.00  0.00    -0.259 OA
HETATM   25  C21 UNK     1      19.564  -7.346  39.221  1.00  0.00     0.003 A 
HETATM   26  C20 UNK     1      19.921  -8.697  39.248  1.00  0.00     0.001 A 
ENDBRANCH  13  16
ENDBRANCH  10  12
BRANCH   3  27
HETATM   27  C7  UNK     1      34.395  -6.427  37.651  1.00  0.00     0.000 C 
HETATM   28  C9  UNK     1      35.220  -5.808  36.539  1.00  0.00     0.005 C 
ENDBRANCH   3  27
TORSDOF 3
ENDMDL
