MODEL 1
REMARK VINA RESULT:     -10.0      0.000      0.000
REMARK  8 active torsions:
REMARK  status: ('A' for Active; 'I' for Inactive)
REMARK    1  A    between atoms: C7_18  and  S1_1 
REMARK    2  A    between atoms: N1_10  and  S1_1 
REMARK    3  A    between atoms: C11_22  and  O2_3 
REMARK    4  A    between atoms: C9_20  and  O2_3 
REMARK    5  A    between atoms: C1_12  and  N1_10 
REMARK    6  A    between atoms: C25_36  and  N2_11 
REMARK    7  A    between atoms: C1_12  and  C11_22 
REMARK    8  A    between atoms: C3_14  and  C8_19 
ROOT
HETATM    1  O1  UNK     1      15.645   6.259  32.240  1.00  0.00    -0.313 OA
HETATM    2  O5  UNK     1      18.047   9.315  33.439  1.00  0.00    -0.286 OA
HETATM    3  C2  UNK     1      17.876   7.165  32.506  1.00  0.00     0.049 A 
HETATM    4  C3  UNK     1      15.836   8.470  33.203  1.00  0.00     0.054 A 
HETATM    5  C4  UNK     1      17.003   6.156  32.115  1.00  0.00     0.092 A 
HETATM    6  C5  UNK     1      17.320   8.397  33.080  1.00  0.00     0.198 A 
HETATM    7  C6  UNK     1      15.102   7.417  32.782  1.00  0.00     0.065 A 
HETATM    8  C9  UNK     1      18.880   4.808  31.412  1.00  0.00     0.082 A 
HETATM    9  C10 UNK     1      17.505   4.973  31.566  1.00  0.00     0.075 A 
HETATM   10  C13 UNK     1      19.256   7.003  32.353  1.00  0.00     0.021 A 
HETATM   11  C14 UNK     1      19.755   5.822  31.804  1.00  0.00     0.038 A 
HETATM   12  C17 UNK     1      13.602   7.342  32.841  1.00  0.00     0.077 C 
ENDROOT
BRANCH   8  13
HETATM   13  O2  UNK     1      19.371   3.656  30.878  1.00  0.00    -0.277 OA
BRANCH  13  14
HETATM   14  C11 UNK     1      18.631   2.502  31.205  1.00  0.00     0.287 C 
HETATM   15  O6  UNK     1      17.876   2.404  32.163  1.00  0.00    -0.262 OA
BRANCH  14  16
HETATM   16  C1  UNK     1      18.921   1.408  30.202  1.00  0.00     0.189 C 
HETATM   17  C12 UNK     1      18.042   1.543  28.970  1.00  0.00     0.043 C 
BRANCH  16  18
HETATM   18  N1  UNK     1      18.634   0.115  30.861  1.00  0.00    -0.301 N 
HETATM   19  H2  UNK     1      17.715  -0.001  31.303  1.00  0.00     0.173 HD
BRANCH  18  20
HETATM   20  S1  UNK     1      19.907  -0.953  31.223  1.00  0.00     0.259 S 
HETATM   21  O3  UNK     1      21.169  -0.243  31.144  1.00  0.00    -0.201 OA
HETATM   22  O4  UNK     1      19.713  -2.183  30.479  1.00  0.00    -0.201 OA
BRANCH  20  23
HETATM   23  C7  UNK     1      19.596  -1.325  32.923  1.00  0.00     0.079 A 
HETATM   24  C15 UNK     1      18.594  -0.643  33.592  1.00  0.00     0.026 A 
HETATM   25  C21 UNK     1      18.349  -0.935  34.933  1.00  0.00     0.008 A 
HETATM   26  C20 UNK     1      19.110  -1.905  35.586  1.00  0.00    -0.062 A 
HETATM   27  C22 UNK     1      20.117  -2.582  34.897  1.00  0.00     0.008 A 
HETATM   28  C26 UNK     1      18.848  -2.218  37.020  1.00  0.00     0.048 C 
HETATM   29  C16 UNK     1      20.362  -2.290  33.555  1.00  0.00     0.026 A 
ENDBRANCH  20  23
ENDBRANCH  18  20
ENDBRANCH  16  18
ENDBRANCH  14  16
ENDBRANCH  13  14
ENDBRANCH   8  13
BRANCH   4  30
HETATM   30  C8  UNK     1      15.225   9.665  33.767  1.00  0.00    -0.019 A 
HETATM   31  C18 UNK     1      15.154   9.823  35.150  1.00  0.00     0.015 A 
HETATM   32  C23 UNK     1      14.570  10.967  35.691  1.00  0.00     0.037 A 
HETATM   33  C25 UNK     1      14.058  11.955  34.848  1.00  0.00     0.102 A 
HETATM   34  C24 UNK     1      14.129  11.795  33.464  1.00  0.00     0.037 A 
HETATM   35  C19 UNK     1      14.714  10.650  32.923  1.00  0.00     0.015 A 
BRANCH  33  36
HETATM   36  N2  UNK     1      13.464  13.121  35.399  1.00  0.00    -0.116 N 
HETATM   37  O7  UNK     1      13.980  13.643  36.417  1.00  0.00    -0.532 OA
HETATM   38  O8  UNK     1      12.440  13.597  34.853  1.00  0.00    -0.532 OA
ENDBRANCH  33  36
ENDBRANCH   4  30
TORSDOF 8
ENDMDL
MODEL 2
REMARK VINA RESULT:     -10.0     17.320     20.758
REMARK  8 active torsions:
REMARK  status: ('A' for Active; 'I' for Inactive)
REMARK    1  A    between atoms: C7_18  and  S1_1 
REMARK    2  A    between atoms: N1_10  and  S1_1 
REMARK    3  A    between atoms: C11_22  and  O2_3 
REMARK    4  A    between atoms: C9_20  and  O2_3 
REMARK    5  A    between atoms: C1_12  and  N1_10 
REMARK    6  A    between atoms: C25_36  and  N2_11 
REMARK    7  A    between atoms: C1_12  and  C11_22 
REMARK    8  A    between atoms: C3_14  and  C8_19 
ROOT
HETATM    1  O1  UNK     1      33.742  -8.927  35.131  1.00  0.00    -0.313 OA
HETATM    2  O5  UNK     1      33.388  -4.891  34.770  1.00  0.00    -0.286 OA
HETATM    3  C2  UNK     1      34.435  -6.870  34.057  1.00  0.00     0.049 A 
HETATM    4  C3  UNK     1      32.674  -6.882  35.859  1.00  0.00     0.054 A 
HETATM    5  C4  UNK     1      34.511  -8.248  34.227  1.00  0.00     0.092 A 
HETATM    6  C5  UNK     1      33.491  -6.107  34.883  1.00  0.00     0.198 A 
HETATM    7  C6  UNK     1      32.845  -8.221  35.922  1.00  0.00     0.065 A 
HETATM    8  C9  UNK     1      36.211  -8.363  32.515  1.00  0.00     0.082 A 
HETATM    9  C10 UNK     1      35.400  -8.998  33.454  1.00  0.00     0.075 A 
HETATM   10  C13 UNK     1      35.246  -6.229  33.116  1.00  0.00     0.021 A 
HETATM   11  C14 UNK     1      36.133  -6.981  32.344  1.00  0.00     0.038 A 
HETATM   12  C17 UNK     1      32.097  -9.136  36.852  1.00  0.00     0.077 C 
ENDROOT
BRANCH   8  13
HETATM   13  O2  UNK     1      37.078  -9.093  31.761  1.00  0.00    -0.277 OA
BRANCH  13  14
HETATM   14  C11 UNK     1      36.495  -9.702  30.631  1.00  0.00     0.287 C 
HETATM   15  O6  UNK     1      36.633  -9.314  29.478  1.00  0.00    -0.262 OA
BRANCH  14  16
HETATM   16  C1  UNK     1      35.671 -10.896  31.061  1.00  0.00     0.189 C 
HETATM   17  C12 UNK     1      36.286 -12.195  30.570  1.00  0.00     0.043 C 
BRANCH  16  18
HETATM   18  N1  UNK     1      34.325 -10.741  30.469  1.00  0.00    -0.301 N 
HETATM   19  H2  UNK     1      34.238 -10.153  29.631  1.00  0.00     0.173 HD
BRANCH  18  20
HETATM   20  S1  UNK     1      32.948 -11.173  31.367  1.00  0.00     0.259 S 
HETATM   21  O3  UNK     1      33.360 -11.770  32.623  1.00  0.00    -0.201 OA
HETATM   22  O4  UNK     1      32.019 -11.870  30.498  1.00  0.00    -0.201 OA
BRANCH  20  23
HETATM   23  C7  UNK     1      32.236  -9.595  31.722  1.00  0.00     0.079 A 
HETATM   24  C15 UNK     1      31.282  -9.493  32.721  1.00  0.00     0.026 A 
HETATM   25  C21 UNK     1      30.719  -8.249  33.001  1.00  0.00     0.008 A 
HETATM   26  C20 UNK     1      31.118  -7.124  32.279  1.00  0.00    -0.062 A 
HETATM   27  C22 UNK     1      32.080  -7.245  31.276  1.00  0.00     0.008 A 
HETATM   28  C26 UNK     1      30.516  -5.793  32.578  1.00  0.00     0.048 C 
HETATM   29  C16 UNK     1      32.644  -8.490  30.995  1.00  0.00     0.026 A 
ENDBRANCH  20  23
ENDBRANCH  18  20
ENDBRANCH  16  18
ENDBRANCH  14  16
ENDBRANCH  13  14
ENDBRANCH   8  13
BRANCH   4  30
HETATM   30  C8  UNK     1      31.722  -6.181  36.709  1.00  0.00    -0.019 A 
HETATM   31  C18 UNK     1      30.379  -6.118  36.343  1.00  0.00     0.015 A 
HETATM   32  C23 UNK     1      29.467  -5.447  37.156  1.00  0.00     0.037 A 
HETATM   33  C25 UNK     1      29.899  -4.840  38.337  1.00  0.00     0.102 A 
HETATM   34  C24 UNK     1      31.244  -4.904  38.701  1.00  0.00     0.037 A 
HETATM   35  C19 UNK     1      32.156  -5.575  37.887  1.00  0.00     0.015 A 
BRANCH  33  36
HETATM   36  N2  UNK     1      28.970  -4.158  39.165  1.00  0.00    -0.116 N 
HETATM   37  O7  UNK     1      29.395  -3.516  40.157  1.00  0.00    -0.532 OA
HETATM   38  O8  UNK     1      27.748  -4.216  38.885  1.00  0.00    -0.532 OA
ENDBRANCH  33  36
ENDBRANCH   4  30
TORSDOF 8
ENDMDL
MODEL 3
REMARK VINA RESULT:      -9.8     13.888     17.220
REMARK  8 active torsions:
REMARK  status: ('A' for Active; 'I' for Inactive)
REMARK    1  A    between atoms: C7_18  and  S1_1 
REMARK    2  A    between atoms: N1_10  and  S1_1 
REMARK    3  A    between atoms: C11_22  and  O2_3 
REMARK    4  A    between atoms: C9_20  and  O2_3 
REMARK    5  A    between atoms: C1_12  and  N1_10 
REMARK    6  A    between atoms: C25_36  and  N2_11 
REMARK    7  A    between atoms: C1_12  and  C11_22 
REMARK    8  A    between atoms: C3_14  and  C8_19 
ROOT
HETATM    1  O1  UNK     1      24.364 -10.290  36.367  1.00  0.00    -0.313 OA
HETATM    2  O5  UNK     1      22.895  -6.963  38.187  1.00  0.00    -0.286 OA
HETATM    3  C2  UNK     1      24.709  -8.423  37.870  1.00  0.00     0.049 A 
HETATM    4  C3  UNK     1      22.504  -8.782  36.705  1.00  0.00     0.054 A 
HETATM    5  C4  UNK     1      25.153  -9.568  37.219  1.00  0.00     0.092 A 
HETATM    6  C5  UNK     1      23.333  -7.966  37.637  1.00  0.00     0.198 A 
HETATM    7  C6  UNK     1      23.060  -9.874  36.136  1.00  0.00     0.065 A 
HETATM    8  C9  UNK     1      27.310  -9.331  38.279  1.00  0.00     0.082 A 
HETATM    9  C10 UNK     1      26.457 -10.025  37.422  1.00  0.00     0.075 A 
HETATM   10  C13 UNK     1      25.561  -7.725  38.730  1.00  0.00     0.021 A 
HETATM   11  C14 UNK     1      26.863  -8.182  38.932  1.00  0.00     0.038 A 
HETATM   12  C17 UNK     1      22.353 -10.792  35.178  1.00  0.00     0.077 C 
ENDROOT
BRANCH   8  13
HETATM   13  O2  UNK     1      28.582  -9.775  38.479  1.00  0.00    -0.277 OA
BRANCH  13  14
HETATM   14  C11 UNK     1      29.575  -8.993  37.855  1.00  0.00     0.287 C 
HETATM   15  O6  UNK     1      29.955  -7.899  38.250  1.00  0.00    -0.262 OA
BRANCH  14  16
HETATM   16  C1  UNK     1      30.088  -9.707  36.624  1.00  0.00     0.189 C 
HETATM   17  C12 UNK     1      31.592  -9.909  36.692  1.00  0.00     0.043 C 
BRANCH  16  18
HETATM   18  N1  UNK     1      29.766  -8.860  35.454  1.00  0.00    -0.301 N 
HETATM   19  H2  UNK     1      28.999  -8.184  35.553  1.00  0.00     0.173 HD
BRANCH  18  20
HETATM   20  S1  UNK     1      30.353  -9.280  33.916  1.00  0.00     0.259 S 
HETATM   21  O3  UNK     1      30.253 -10.716  33.737  1.00  0.00    -0.201 OA
HETATM   22  O4  UNK     1      31.616  -8.603  33.694  1.00  0.00    -0.201 OA
BRANCH  20  23
HETATM   23  C7  UNK     1      29.165  -8.516  32.852  1.00  0.00     0.079 A 
HETATM   24  C15 UNK     1      28.776  -9.169  31.694  1.00  0.00     0.026 A 
HETATM   25  C21 UNK     1      27.840  -8.566  30.854  1.00  0.00     0.008 A 
HETATM   26  C20 UNK     1      27.307  -7.321  31.185  1.00  0.00    -0.062 A 
HETATM   27  C22 UNK     1      27.710  -6.677  32.355  1.00  0.00     0.008 A 
HETATM   28  C26 UNK     1      26.306  -6.676  30.287  1.00  0.00     0.048 C 
HETATM   29  C16 UNK     1      28.647  -7.279  33.195  1.00  0.00     0.026 A 
ENDBRANCH  20  23
ENDBRANCH  18  20
ENDBRANCH  16  18
ENDBRANCH  14  16
ENDBRANCH  13  14
ENDBRANCH   8  13
BRANCH   4  30
HETATM   30  C8  UNK     1      21.130  -8.381  36.436  1.00  0.00    -0.019 A 
HETATM   31  C18 UNK     1      20.841  -7.591  35.325  1.00  0.00     0.015 A 
HETATM   32  C23 UNK     1      19.526  -7.207  35.066  1.00  0.00     0.037 A 
HETATM   33  C25 UNK     1      18.499  -7.616  35.918  1.00  0.00     0.102 A 
HETATM   34  C24 UNK     1      18.790  -8.407  37.030  1.00  0.00     0.037 A 
HETATM   35  C19 UNK     1      20.106  -8.791  37.288  1.00  0.00     0.015 A 
BRANCH  33  36
HETATM   36  N2  UNK     1      17.160  -7.227  35.654  1.00  0.00    -0.116 N 
HETATM   37  O7  UNK     1      16.583  -7.682  34.637  1.00  0.00    -0.532 OA
HETATM   38  O8  UNK     1      16.589  -6.437  36.445  1.00  0.00    -0.532 OA
ENDBRANCH  33  36
ENDBRANCH   4  30
TORSDOF 8
ENDMDL
MODEL 4
REMARK VINA RESULT:      -9.8     13.949     17.145
REMARK  8 active torsions:
REMARK  status: ('A' for Active; 'I' for Inactive)
REMARK    1  A    between atoms: C7_18  and  S1_1 
REMARK    2  A    between atoms: N1_10  and  S1_1 
REMARK    3  A    between atoms: C11_22  and  O2_3 
REMARK    4  A    between atoms: C9_20  and  O2_3 
REMARK    5  A    between atoms: C1_12  and  N1_10 
REMARK    6  A    between atoms: C25_36  and  N2_11 
REMARK    7  A    between atoms: C1_12  and  C11_22 
REMARK    8  A    between atoms: C3_14  and  C8_19 
ROOT
HETATM    1  O1  UNK     1      24.510 -10.452  36.349  1.00  0.00    -0.313 OA
HETATM    2  O5  UNK     1      23.241  -7.059  38.198  1.00  0.00    -0.286 OA
HETATM    3  C2  UNK     1      24.990  -8.580  37.808  1.00  0.00     0.049 A 
HETATM    4  C3  UNK     1      22.718  -8.882  36.762  1.00  0.00     0.054 A 
HETATM    5  C4  UNK     1      25.364  -9.746  37.150  1.00  0.00     0.092 A 
HETATM    6  C5  UNK     1      23.619  -8.082  37.639  1.00  0.00     0.198 A 
HETATM    7  C6  UNK     1      23.209  -9.997  36.180  1.00  0.00     0.065 A 
HETATM    8  C9  UNK     1      27.579  -9.566  38.096  1.00  0.00     0.082 A 
HETATM    9  C10 UNK     1      26.662 -10.242  37.293  1.00  0.00     0.075 A 
HETATM   10  C13 UNK     1      25.906  -7.899  38.614  1.00  0.00     0.021 A 
HETATM   11  C14 UNK     1      27.203  -8.395  38.756  1.00  0.00     0.038 A 
HETATM   12  C17 UNK     1      22.426 -10.904  35.271  1.00  0.00     0.077 C 
ENDROOT
BRANCH   8  13
HETATM   13  O2  UNK     1      28.845 -10.048  38.237  1.00  0.00    -0.277 OA
BRANCH  13  14
HETATM   14  C11 UNK     1      29.853  -9.175  37.780  1.00  0.00     0.287 C 
HETATM   15  O6  UNK     1      30.725  -8.684  38.485  1.00  0.00    -0.262 OA
BRANCH  14  16
HETATM   16  C1  UNK     1      29.686  -8.933  36.297  1.00  0.00     0.189 C 
HETATM   17  C12 UNK     1      30.049 -10.169  35.493  1.00  0.00     0.043 C 
BRANCH  16  18
HETATM   18  N1  UNK     1      30.595  -7.828  35.923  1.00  0.00    -0.301 N 
HETATM   19  H2  UNK     1      31.606  -8.002  35.982  1.00  0.00     0.173 HD
BRANCH  18  20
HETATM   20  S1  UNK     1      29.998  -6.241  35.806  1.00  0.00     0.259 S 
HETATM   21  O3  UNK     1      31.100  -5.303  35.901  1.00  0.00    -0.201 OA
HETATM   22  O4  UNK     1      28.847  -6.106  36.678  1.00  0.00    -0.201 OA
BRANCH  20  23
HETATM   23  C7  UNK     1      29.392  -6.202  34.145  1.00  0.00     0.079 A 
HETATM   24  C15 UNK     1      28.078  -6.559  33.897  1.00  0.00     0.026 A 
HETATM   25  C21 UNK     1      27.599  -6.529  32.588  1.00  0.00     0.008 A 
HETATM   26  C20 UNK     1      28.442  -6.142  31.546  1.00  0.00    -0.062 A 
HETATM   27  C22 UNK     1      29.764  -5.786  31.814  1.00  0.00     0.008 A 
HETATM   28  C26 UNK     1      27.931  -6.110  30.146  1.00  0.00     0.048 C 
HETATM   29  C16 UNK     1      30.243  -5.815  33.124  1.00  0.00     0.026 A 
ENDBRANCH  20  23
ENDBRANCH  18  20
ENDBRANCH  16  18
ENDBRANCH  14  16
ENDBRANCH  13  14
ENDBRANCH   8  13
BRANCH   4  30
HETATM   30  C8  UNK     1      21.345  -8.441  36.558  1.00  0.00    -0.019 A 
HETATM   31  C18 UNK     1      21.006  -7.732  35.406  1.00  0.00     0.015 A 
HETATM   32  C23 UNK     1      19.692  -7.310  35.209  1.00  0.00     0.037 A 
HETATM   33  C25 UNK     1      18.717  -7.598  36.165  1.00  0.00     0.102 A 
HETATM   34  C24 UNK     1      19.057  -8.307  37.317  1.00  0.00     0.037 A 
HETATM   35  C19 UNK     1      20.372  -8.729  37.513  1.00  0.00     0.015 A 
BRANCH  33  36
HETATM   36  N2  UNK     1      17.378  -7.169  35.964  1.00  0.00    -0.116 N 
HETATM   37  O7  UNK     1      16.881  -6.336  36.760  1.00  0.00    -0.532 OA
HETATM   38  O8  UNK     1      16.729  -7.636  34.997  1.00  0.00    -0.532 OA
ENDBRANCH  33  36
ENDBRANCH   4  30
TORSDOF 8
ENDMDL
MODEL 5
REMARK VINA RESULT:      -9.7     23.648     25.536
REMARK  8 active torsions:
REMARK  status: ('A' for Active; 'I' for Inactive)
REMARK    1  A    between atoms: C7_18  and  S1_1 
REMARK    2  A    between atoms: N1_10  and  S1_1 
REMARK    3  A    between atoms: C11_22  and  O2_3 
REMARK    4  A    between atoms: C9_20  and  O2_3 
REMARK    5  A    between atoms: C1_12  and  N1_10 
REMARK    6  A    between atoms: C25_36  and  N2_11 
REMARK    7  A    between atoms: C1_12  and  C11_22 
REMARK    8  A    between atoms: C3_14  and  C8_19 
ROOT
HETATM    1  O1  UNK     1      14.518  10.067   8.557  1.00  0.00    -0.313 OA
HETATM    2  O5  UNK     1      17.879   8.365  10.092  1.00  0.00    -0.286 OA
HETATM    3  C2  UNK     1      15.588   8.164   9.605  1.00  0.00     0.049 A 
HETATM    4  C3  UNK     1      16.874  10.262   9.066  1.00  0.00     0.054 A 
HETATM    5  C4  UNK     1      14.474   8.799   9.068  1.00  0.00     0.092 A 
HETATM    6  C5  UNK     1      16.869   8.882   9.629  1.00  0.00     0.198 A 
HETATM    7  C6  UNK     1      15.720  10.762   8.573  1.00  0.00     0.065 A 
HETATM    8  C9  UNK     1      13.136   6.844   9.538  1.00  0.00     0.082 A 
HETATM    9  C10 UNK     1      13.244   8.139   9.032  1.00  0.00     0.075 A 
HETATM   10  C13 UNK     1      15.484   6.866  10.113  1.00  0.00     0.021 A 
HETATM   11  C14 UNK     1      14.254   6.208  10.076  1.00  0.00     0.038 A 
HETATM   12  C17 UNK     1      15.568  12.133   7.974  1.00  0.00     0.077 C 
ENDROOT
BRANCH   8  13
HETATM   13  O2  UNK     1      11.937   6.200   9.505  1.00  0.00    -0.277 OA
BRANCH  13  14
HETATM   14  C11 UNK     1      11.791   5.299   8.430  1.00  0.00     0.287 C 
HETATM   15  O6  UNK     1      12.476   4.300   8.256  1.00  0.00    -0.262 OA
BRANCH  14  16
HETATM   16  C1  UNK     1      10.671   5.762   7.524  1.00  0.00     0.189 C 
HETATM   17  C12 UNK     1      11.181   6.728   6.469  1.00  0.00     0.043 C 
BRANCH  16  18
HETATM   18  N1  UNK     1       9.673   6.451   8.370  1.00  0.00    -0.301 N 
HETATM   19  H2  UNK     1      10.000   6.867   9.250  1.00  0.00     0.173 HD
BRANCH  18  20
HETATM   20  S1  UNK     1       8.014   6.201   8.099  1.00  0.00     0.259 S 
HETATM   21  O3  UNK     1       7.789   4.816   7.731  1.00  0.00    -0.201 OA
HETATM   22  O4  UNK     1       7.508   7.270   7.260  1.00  0.00    -0.201 OA
BRANCH  20  23
HETATM   23  C7  UNK     1       7.339   6.451   9.714  1.00  0.00     0.079 A 
HETATM   24  C15 UNK     1       7.013   7.735  10.118  1.00  0.00     0.026 A 
HETATM   25  C21 UNK     1       6.482   7.934  11.392  1.00  0.00     0.008 A 
HETATM   26  C20 UNK     1       6.284   6.846  12.242  1.00  0.00    -0.062 A 
HETATM   27  C22 UNK     1       6.618   5.560  11.819  1.00  0.00     0.008 A 
HETATM   28  C26 UNK     1       5.716   7.058  13.604  1.00  0.00     0.048 C 
HETATM   29  C16 UNK     1       7.150   5.360  10.544  1.00  0.00     0.026 A 
ENDBRANCH  20  23
ENDBRANCH  18  20
ENDBRANCH  16  18
ENDBRANCH  14  16
ENDBRANCH  13  14
ENDBRANCH   8  13
BRANCH   4  30
HETATM   30  C8  UNK     1      18.114  11.027   9.064  1.00  0.00    -0.019 A 
HETATM   31  C18 UNK     1      18.538  11.667  10.227  1.00  0.00     0.015 A 
HETATM   32  C23 UNK     1      19.725  12.398  10.226  1.00  0.00     0.037 A 
HETATM   33  C25 UNK     1      20.489  12.487   9.062  1.00  0.00     0.102 A 
HETATM   34  C24 UNK     1      20.063  11.846   7.898  1.00  0.00     0.037 A 
HETATM   35  C19 UNK     1      18.875  11.115   7.900  1.00  0.00     0.015 A 
BRANCH  33  36
HETATM   36  N2  UNK     1      21.698  13.231   9.061  1.00  0.00    -0.116 N 
HETATM   37  O7  UNK     1      22.630  12.876   9.822  1.00  0.00    -0.532 OA
HETATM   38  O8  UNK     1      21.801  14.223   8.300  1.00  0.00    -0.532 OA
ENDBRANCH  33  36
ENDBRANCH   4  30
TORSDOF 8
ENDMDL
MODEL 6
REMARK VINA RESULT:      -9.7     17.212     19.593
REMARK  8 active torsions:
REMARK  status: ('A' for Active; 'I' for Inactive)
REMARK    1  A    between atoms: C7_18  and  S1_1 
REMARK    2  A    between atoms: N1_10  and  S1_1 
REMARK    3  A    between atoms: C11_22  and  O2_3 
REMARK    4  A    between atoms: C9_20  and  O2_3 
REMARK    5  A    between atoms: C1_12  and  N1_10 
REMARK    6  A    between atoms: C25_36  and  N2_11 
REMARK    7  A    between atoms: C1_12  and  C11_22 
REMARK    8  A    between atoms: C3_14  and  C8_19 
ROOT
HETATM    1  O1  UNK     1      29.474  -9.464  38.185  1.00  0.00    -0.313 OA
HETATM    2  O5  UNK     1      27.832  -9.500  34.464  1.00  0.00    -0.286 OA
HETATM    3  C2  UNK     1      29.751  -9.222  35.792  1.00  0.00     0.049 A 
HETATM    4  C3  UNK     1      27.506  -9.745  36.808  1.00  0.00     0.054 A 
HETATM    5  C4  UNK     1      30.254  -9.223  37.088  1.00  0.00     0.092 A 
HETATM    6  C5  UNK     1      28.322  -9.490  35.587  1.00  0.00     0.198 A 
HETATM    7  C6  UNK     1      28.120  -9.718  38.011  1.00  0.00     0.065 A 
HETATM    8  C9  UNK     1      32.455  -8.717  36.232  1.00  0.00     0.082 A 
HETATM    9  C10 UNK     1      31.609  -8.970  37.311  1.00  0.00     0.075 A 
HETATM   10  C13 UNK     1      30.596  -8.969  34.707  1.00  0.00     0.021 A 
HETATM   11  C14 UNK     1      31.950  -8.717  34.932  1.00  0.00     0.038 A 
HETATM   12  C17 UNK     1      27.434  -9.955  39.327  1.00  0.00     0.077 C 
ENDROOT
BRANCH   8  13
HETATM   13  O2  UNK     1      33.777  -8.471  36.448  1.00  0.00    -0.277 OA
BRANCH  13  14
HETATM   14  C11 UNK     1      34.046  -7.219  37.036  1.00  0.00     0.287 C 
HETATM   15  O6  UNK     1      34.273  -7.039  38.226  1.00  0.00    -0.262 OA
BRANCH  14  16
HETATM   16  C1  UNK     1      34.001  -6.138  35.979  1.00  0.00     0.189 C 
HETATM   17  C12 UNK     1      35.373  -5.907  35.370  1.00  0.00     0.043 C 
BRANCH  16  18
HETATM   18  N1  UNK     1      33.548  -4.893  36.637  1.00  0.00    -0.301 N 
HETATM   19  H2  UNK     1      33.878  -4.712  37.593  1.00  0.00     0.173 HD
BRANCH  18  20
HETATM   20  S1  UNK     1      32.228  -4.030  36.002  1.00  0.00     0.259 S 
HETATM   21  O3  UNK     1      32.042  -4.390  34.610  1.00  0.00    -0.201 OA
HETATM   22  O4  UNK     1      32.349  -2.637  36.386  1.00  0.00    -0.201 OA
BRANCH  20  23
HETATM   23  C7  UNK     1      30.877  -4.702  36.924  1.00  0.00     0.079 A 
HETATM   24  C15 UNK     1      30.722  -4.344  38.252  1.00  0.00     0.026 A 
HETATM   25  C21 UNK     1      29.657  -4.875  38.980  1.00  0.00     0.008 A 
HETATM   26  C20 UNK     1      28.763  -5.754  38.369  1.00  0.00    -0.062 A 
HETATM   27  C22 UNK     1      28.935  -6.104  37.029  1.00  0.00     0.008 A 
HETATM   28  C26 UNK     1      27.624  -6.321  39.146  1.00  0.00     0.048 C 
HETATM   29  C16 UNK     1      30.001  -5.574  36.300  1.00  0.00     0.026 A 
ENDBRANCH  20  23
ENDBRANCH  18  20
ENDBRANCH  16  18
ENDBRANCH  14  16
ENDBRANCH  13  14
ENDBRANCH   8  13
BRANCH   4  30
HETATM   30  C8  UNK     1      26.081 -10.014  36.670  1.00  0.00    -0.019 A 
HETATM   31  C18 UNK     1      25.152  -9.039  37.026  1.00  0.00     0.015 A 
HETATM   32  C23 UNK     1      23.788  -9.296  36.893  1.00  0.00     0.037 A 
HETATM   33  C25 UNK     1      23.354 -10.529  36.404  1.00  0.00     0.102 A 
HETATM   34  C24 UNK     1      24.286 -11.505  36.049  1.00  0.00     0.037 A 
HETATM   35  C19 UNK     1      25.651 -11.247  36.182  1.00  0.00     0.015 A 
BRANCH  33  36
HETATM   36  N2  UNK     1      21.966 -10.790  36.268  1.00  0.00    -0.116 N 
HETATM   37  O7  UNK     1      21.189 -10.449  37.193  1.00  0.00    -0.532 OA
HETATM   38  O8  UNK     1      21.552 -11.356  35.227  1.00  0.00    -0.532 OA
ENDBRANCH  33  36
ENDBRANCH   4  30
TORSDOF 8
ENDMDL
MODEL 7
REMARK VINA RESULT:      -9.7      2.768      3.850
REMARK  8 active torsions:
REMARK  status: ('A' for Active; 'I' for Inactive)
REMARK    1  A    between atoms: C7_18  and  S1_1 
REMARK    2  A    between atoms: N1_10  and  S1_1 
REMARK    3  A    between atoms: C11_22  and  O2_3 
REMARK    4  A    between atoms: C9_20  and  O2_3 
REMARK    5  A    between atoms: C1_12  and  N1_10 
REMARK    6  A    between atoms: C25_36  and  N2_11 
REMARK    7  A    between atoms: C1_12  and  C11_22 
REMARK    8  A    between atoms: C3_14  and  C8_19 
ROOT
HETATM    1  O1  UNK     1      16.092   8.958  33.380  1.00  0.00    -0.313 OA
HETATM    2  O5  UNK     1      18.428  11.997  34.741  1.00  0.00    -0.286 OA
HETATM    3  C2  UNK     1      18.287   9.772  33.997  1.00  0.00     0.049 A 
HETATM    4  C3  UNK     1      16.249  11.245  34.151  1.00  0.00     0.054 A 
HETATM    5  C4  UNK     1      17.437   8.773  33.537  1.00  0.00     0.092 A 
HETATM    6  C5  UNK     1      17.720  11.084  34.332  1.00  0.00     0.198 A 
HETATM    7  C6  UNK     1      15.537  10.192  33.694  1.00  0.00     0.065 A 
HETATM    8  C9  UNK     1      19.315   7.264  33.350  1.00  0.00     0.082 A 
HETATM    9  C10 UNK     1      17.950   7.515  33.212  1.00  0.00     0.075 A 
HETATM   10  C13 UNK     1      19.656   9.525  34.137  1.00  0.00     0.021 A 
HETATM   11  C14 UNK     1      20.167   8.268  33.811  1.00  0.00     0.038 A 
HETATM   12  C17 UNK     1      14.052  10.200  33.460  1.00  0.00     0.077 C 
ENDROOT
BRANCH   8  13
HETATM   13  O2  UNK     1      19.816   6.039  33.034  1.00  0.00    -0.277 OA
BRANCH  13  14
HETATM   14  C11 UNK     1      19.704   5.700  31.670  1.00  0.00     0.287 C 
HETATM   15  O6  UNK     1      20.339   6.224  30.764  1.00  0.00    -0.262 OA
BRANCH  14  16
HETATM   16  C1  UNK     1      18.677   4.602  31.500  1.00  0.00     0.189 C 
HETATM   17  C12 UNK     1      18.344   3.950  32.830  1.00  0.00     0.043 C 
BRANCH  16  18
HETATM   18  N1  UNK     1      19.259   3.587  30.594  1.00  0.00    -0.301 N 
HETATM   19  H2  UNK     1      20.243   3.700  30.323  1.00  0.00     0.173 HD
BRANCH  18  20
HETATM   20  S1  UNK     1      18.239   2.538  29.729  1.00  0.00     0.259 S 
HETATM   21  O3  UNK     1      18.302   2.861  28.317  1.00  0.00    -0.201 OA
HETATM   22  O4  UNK     1      16.959   2.464  30.405  1.00  0.00    -0.201 OA
BRANCH  20  23
HETATM   23  C7  UNK     1      19.037   0.978  29.967  1.00  0.00     0.079 A 
HETATM   24  C15 UNK     1      19.564   0.315  28.871  1.00  0.00     0.026 A 
HETATM   25  C21 UNK     1      20.192  -0.916  29.057  1.00  0.00     0.008 A 
HETATM   26  C20 UNK     1      20.286  -1.465  30.336  1.00  0.00    -0.062 A 
HETATM   27  C22 UNK     1      19.749  -0.783  31.428  1.00  0.00     0.008 A 
HETATM   28  C26 UNK     1      20.958  -2.781  30.535  1.00  0.00     0.048 C 
HETATM   29  C16 UNK     1      19.120   0.448  31.243  1.00  0.00     0.026 A 
ENDBRANCH  20  23
ENDBRANCH  18  20
ENDBRANCH  16  18
ENDBRANCH  14  16
ENDBRANCH  13  14
ENDBRANCH   8  13
BRANCH   4  30
HETATM   30  C8  UNK     1      15.627  12.523  34.468  1.00  0.00    -0.019 A 
HETATM   31  C18 UNK     1      15.176  12.774  35.763  1.00  0.00     0.015 A 
HETATM   32  C23 UNK     1      14.582  13.997  36.068  1.00  0.00     0.037 A 
HETATM   33  C25 UNK     1      14.439  14.970  35.077  1.00  0.00     0.102 A 
HETATM   34  C24 UNK     1      14.890  14.717  33.782  1.00  0.00     0.037 A 
HETATM   35  C19 UNK     1      15.486  13.493  33.477  1.00  0.00     0.015 A 
BRANCH  33  36
HETATM   36  N2  UNK     1      13.834  16.216  35.388  1.00  0.00    -0.116 N 
HETATM   37  O7  UNK     1      13.222  16.837  34.486  1.00  0.00    -0.532 OA
HETATM   38  O8  UNK     1      13.929  16.663  36.557  1.00  0.00    -0.532 OA
ENDBRANCH  33  36
ENDBRANCH   4  30
TORSDOF 8
ENDMDL
MODEL 8
REMARK VINA RESULT:      -9.6      4.152     11.923
REMARK  8 active torsions:
REMARK  status: ('A' for Active; 'I' for Inactive)
REMARK    1  A    between atoms: C7_18  and  S1_1 
REMARK    2  A    between atoms: N1_10  and  S1_1 
REMARK    3  A    between atoms: C11_22  and  O2_3 
REMARK    4  A    between atoms: C9_20  and  O2_3 
REMARK    5  A    between atoms: C1_12  and  N1_10 
REMARK    6  A    between atoms: C25_36  and  N2_11 
REMARK    7  A    between atoms: C1_12  and  C11_22 
REMARK    8  A    between atoms: C3_14  and  C8_19 
ROOT
HETATM    1  O1  UNK     1      18.554  -0.925  35.163  1.00  0.00    -0.313 OA
HETATM    2  O5  UNK     1      20.860  -3.999  33.830  1.00  0.00    -0.286 OA
HETATM    3  C2  UNK     1      19.773  -1.971  33.351  1.00  0.00     0.049 A 
HETATM    4  C3  UNK     1      19.674  -3.014  35.643  1.00  0.00     0.054 A 
HETATM    5  C4  UNK     1      18.983  -0.949  33.865  1.00  0.00     0.092 A 
HETATM    6  C5  UNK     1      20.165  -3.075  34.236  1.00  0.00     0.198 A 
HETATM    7  C6  UNK     1      18.914  -1.962  36.014  1.00  0.00     0.065 A 
HETATM    8  C9  UNK     1      19.001   0.145  31.712  1.00  0.00     0.082 A 
HETATM    9  C10 UNK     1      18.596   0.113  33.045  1.00  0.00     0.075 A 
HETATM   10  C13 UNK     1      20.182  -1.943  32.015  1.00  0.00     0.021 A 
HETATM   11  C14 UNK     1      19.794  -0.881  31.197  1.00  0.00     0.038 A 
HETATM   12  C17 UNK     1      18.348  -1.760  37.393  1.00  0.00     0.077 C 
ENDROOT
BRANCH   8  13
HETATM   13  O2  UNK     1      18.624   1.180  30.911  1.00  0.00    -0.277 OA
BRANCH  13  14
HETATM   14  C11 UNK     1      18.258   2.349  31.607  1.00  0.00     0.287 C 
HETATM   15  O6  UNK     1      17.844   2.378  32.759  1.00  0.00    -0.262 OA
BRANCH  14  16
HETATM   16  C1  UNK     1      18.444   3.555  30.713  1.00  0.00     0.189 C 
HETATM   17  C12 UNK     1      18.439   3.159  29.247  1.00  0.00     0.043 C 
BRANCH  16  18
HETATM   18  N1  UNK     1      19.753   4.158  31.048  1.00  0.00    -0.301 N 
HETATM   19  H2  UNK     1      20.448   3.559  31.510  1.00  0.00     0.173 HD
BRANCH  18  20
HETATM   20  S1  UNK     1      19.935   5.847  31.044  1.00  0.00     0.259 S 
HETATM   21  O3  UNK     1      19.867   6.336  29.680  1.00  0.00    -0.201 OA
HETATM   22  O4  UNK     1      21.057   6.201  31.891  1.00  0.00    -0.201 OA
BRANCH  20  23
HETATM   23  C7  UNK     1      18.470   6.373  31.884  1.00  0.00     0.079 A 
HETATM   24  C15 UNK     1      17.509   7.083  31.185  1.00  0.00     0.026 A 
HETATM   25  C21 UNK     1      16.354   7.498  31.847  1.00  0.00     0.008 A 
HETATM   26  C20 UNK     1      16.177   7.197  33.197  1.00  0.00    -0.062 A 
HETATM   27  C22 UNK     1      17.157   6.482  33.886  1.00  0.00     0.008 A 
HETATM   28  C26 UNK     1      14.943   7.641  33.906  1.00  0.00     0.048 C 
HETATM   29  C16 UNK     1      18.313   6.066  33.224  1.00  0.00     0.026 A 
ENDBRANCH  20  23
ENDBRANCH  18  20
ENDBRANCH  16  18
ENDBRANCH  14  16
ENDBRANCH  13  14
ENDBRANCH   8  13
BRANCH   4  30
HETATM   30  C8  UNK     1      20.028  -4.081  36.568  1.00  0.00    -0.019 A 
HETATM   31  C18 UNK     1      21.194  -3.987  37.325  1.00  0.00     0.015 A 
HETATM   32  C23 UNK     1      21.533  -5.009  38.212  1.00  0.00     0.037 A 
HETATM   33  C25 UNK     1      20.703  -6.123  38.342  1.00  0.00     0.102 A 
HETATM   34  C24 UNK     1      19.536  -6.216  37.584  1.00  0.00     0.037 A 
HETATM   35  C19 UNK     1      19.198  -5.194  36.697  1.00  0.00     0.015 A 
BRANCH  33  36
HETATM   36  N2  UNK     1      21.047  -7.162  39.246  1.00  0.00    -0.116 N 
HETATM   37  O7  UNK     1      20.215  -8.075  39.469  1.00  0.00    -0.532 OA
HETATM   38  O8  UNK     1      22.174  -7.140  39.798  1.00  0.00    -0.532 OA
ENDBRANCH  33  36
ENDBRANCH   4  30
TORSDOF 8
ENDMDL
MODEL 9
REMARK VINA RESULT:      -9.6     18.366     21.046
REMARK  8 active torsions:
REMARK  status: ('A' for Active; 'I' for Inactive)
REMARK    1  A    between atoms: C7_18  and  S1_1 
REMARK    2  A    between atoms: N1_10  and  S1_1 
REMARK    3  A    between atoms: C11_22  and  O2_3 
REMARK    4  A    between atoms: C9_20  and  O2_3 
REMARK    5  A    between atoms: C1_12  and  N1_10 
REMARK    6  A    between atoms: C25_36  and  N2_11 
REMARK    7  A    between atoms: C1_12  and  C11_22 
REMARK    8  A    between atoms: C3_14  and  C8_19 
ROOT
HETATM    1  O1  UNK     1      32.929 -10.242  33.836  1.00  0.00    -0.313 OA
HETATM    2  O5  UNK     1      31.945  -6.949  36.011  1.00  0.00    -0.286 OA
HETATM    3  C2  UNK     1      33.235  -7.881  34.282  1.00  0.00     0.049 A 
HETATM    4  C3  UNK     1      31.610  -9.271  35.615  1.00  0.00     0.054 A 
HETATM    5  C4  UNK     1      33.529  -9.041  33.574  1.00  0.00     0.092 A 
HETATM    6  C5  UNK     1      32.239  -7.944  35.359  1.00  0.00     0.198 A 
HETATM    7  C6  UNK     1      31.986 -10.320  34.852  1.00  0.00     0.065 A 
HETATM    8  C9  UNK     1      35.119  -7.816  32.231  1.00  0.00     0.082 A 
HETATM    9  C10 UNK     1      34.473  -9.011  32.546  1.00  0.00     0.075 A 
HETATM   10  C13 UNK     1      33.881  -6.682  33.970  1.00  0.00     0.021 A 
HETATM   11  C14 UNK     1      34.823  -6.653  32.941  1.00  0.00     0.038 A 
HETATM   12  C17 UNK     1      31.443 -11.715  34.990  1.00  0.00     0.077 C 
ENDROOT
BRANCH   8  13
HETATM   13  O2  UNK     1      36.040  -7.785  31.228  1.00  0.00    -0.277 OA
BRANCH  13  14
HETATM   14  C11 UNK     1      35.636  -7.054  30.092  1.00  0.00     0.287 C 
HETATM   15  O6  UNK     1      35.706  -5.837  29.982  1.00  0.00    -0.262 OA
BRANCH  14  16
HETATM   16  C1  UNK     1      35.098  -8.000  29.041  1.00  0.00     0.189 C 
HETATM   17  C12 UNK     1      35.818  -7.818  27.717  1.00  0.00     0.043 C 
BRANCH  16  18
HETATM   18  N1  UNK     1      33.663  -7.691  28.860  1.00  0.00    -0.301 N 
HETATM   19  H2  UNK     1      33.384  -6.703  28.872  1.00  0.00     0.173 HD
BRANCH  18  20
HETATM   20  S1  UNK     1      32.502  -8.919  29.040  1.00  0.00     0.259 S 
HETATM   21  O3  UNK     1      33.153 -10.138  29.480  1.00  0.00    -0.201 OA
HETATM   22  O4  UNK     1      31.644  -8.930  27.870  1.00  0.00    -0.201 OA
BRANCH  20  23
HETATM   23  C7  UNK     1      31.530  -8.306  30.384  1.00  0.00     0.079 A 
HETATM   24  C15 UNK     1      30.728  -9.184  31.093  1.00  0.00     0.026 A 
HETATM   25  C21 UNK     1      29.961  -8.701  32.153  1.00  0.00     0.008 A 
HETATM   26  C20 UNK     1      30.008  -7.348  32.488  1.00  0.00    -0.062 A 
HETATM   27  C22 UNK     1      30.821  -6.477  31.762  1.00  0.00     0.008 A 
HETATM   28  C26 UNK     1      29.188  -6.831  33.621  1.00  0.00     0.048 C 
HETATM   29  C16 UNK     1      31.588  -6.960  30.702  1.00  0.00     0.026 A 
ENDBRANCH  20  23
ENDBRANCH  18  20
ENDBRANCH  16  18
ENDBRANCH  14  16
ENDBRANCH  13  14
ENDBRANCH   8  13
BRANCH   4  30
HETATM   30  C8  UNK     1      30.616  -9.397  36.673  1.00  0.00    -0.019 A 
HETATM   31  C18 UNK     1      29.277  -9.124  36.403  1.00  0.00     0.015 A 
HETATM   32  C23 UNK     1      28.324  -9.245  37.414  1.00  0.00     0.037 A 
HETATM   33  C25 UNK     1      28.713  -9.640  38.695  1.00  0.00     0.102 A 
HETATM   34  C24 UNK     1      30.055  -9.912  38.963  1.00  0.00     0.037 A 
HETATM   35  C19 UNK     1      31.007  -9.791  37.951  1.00  0.00     0.015 A 
BRANCH  33  36
HETATM   36  N2  UNK     1      27.744  -9.764  39.724  1.00  0.00    -0.116 N 
HETATM   37  O7  UNK     1      28.083 -10.269  40.822  1.00  0.00    -0.532 OA
HETATM   38  O8  UNK     1      26.573  -9.366  39.509  1.00  0.00    -0.532 OA
ENDBRANCH  33  36
ENDBRANCH   4  30
TORSDOF 8
ENDMDL
MODEL 10
REMARK VINA RESULT:      -9.6      3.438     11.258
REMARK  8 active torsions:
REMARK  status: ('A' for Active; 'I' for Inactive)
REMARK    1  A    between atoms: C7_18  and  S1_1 
REMARK    2  A    between atoms: N1_10  and  S1_1 
REMARK    3  A    between atoms: C11_22  and  O2_3 
REMARK    4  A    between atoms: C9_20  and  O2_3 
REMARK    5  A    between atoms: C1_12  and  N1_10 
REMARK    6  A    between atoms: C25_36  and  N2_11 
REMARK    7  A    between atoms: C1_12  and  C11_22 
REMARK    8  A    between atoms: C3_14  and  C8_19 
ROOT
HETATM    1  O1  UNK     1      18.158   2.580  35.292  1.00  0.00    -0.313 OA
HETATM    2  O5  UNK     1      18.969  -0.516  32.783  1.00  0.00    -0.286 OA
HETATM    3  C2  UNK     1      18.489   1.771  33.034  1.00  0.00     0.049 A 
HETATM    4  C3  UNK     1      18.649   0.228  35.020  1.00  0.00     0.054 A 
HETATM    5  C4  UNK     1      18.216   2.788  33.942  1.00  0.00     0.092 A 
HETATM    6  C5  UNK     1      18.725   0.414  33.542  1.00  0.00     0.198 A 
HETATM    7  C6  UNK     1      18.376   1.303  35.791  1.00  0.00     0.065 A 
HETATM    8  C9  UNK     1      18.033   4.362  32.120  1.00  0.00     0.082 A 
HETATM    9  C10 UNK     1      17.988   4.088  33.486  1.00  0.00     0.075 A 
HETATM   10  C13 UNK     1      18.536   2.042  31.664  1.00  0.00     0.021 A 
HETATM   11  C14 UNK     1      18.308   3.341  31.209  1.00  0.00     0.038 A 
HETATM   12  C17 UNK     1      18.268   1.274  37.290  1.00  0.00     0.077 C 
ENDROOT
BRANCH   8  13
HETATM   13  O2  UNK     1      17.811   5.629  31.673  1.00  0.00    -0.277 OA
BRANCH  13  14
HETATM   14  C11 UNK     1      18.756   6.576  32.117  1.00  0.00     0.287 C 
HETATM   15  O6  UNK     1      19.966   6.490  31.947  1.00  0.00    -0.262 OA
BRANCH  14  16
HETATM   16  C1  UNK     1      18.051   7.702  32.839  1.00  0.00     0.189 C 
HETATM   17  C12 UNK     1      18.695   7.981  34.185  1.00  0.00     0.043 C 
BRANCH  16  18
HETATM   18  N1  UNK     1      16.648   7.284  33.050  1.00  0.00    -0.301 N 
HETATM   19  H2  UNK     1      16.483   6.428  33.592  1.00  0.00     0.173 HD
BRANCH  18  20
HETATM   20  S1  UNK     1      15.411   7.952  32.095  1.00  0.00     0.259 S 
HETATM   21  O3  UNK     1      14.375   6.960  31.884  1.00  0.00    -0.201 OA
HETATM   22  O4  UNK     1      16.007   8.636  30.964  1.00  0.00    -0.201 OA
BRANCH  20  23
HETATM   23  C7  UNK     1      14.759   9.200  33.165  1.00  0.00     0.079 A 
HETATM   24  C15 UNK     1      13.848  10.113  32.662  1.00  0.00     0.026 A 
HETATM   25  C21 UNK     1      13.335  11.098  33.505  1.00  0.00     0.008 A 
HETATM   26  C20 UNK     1      13.739  11.154  34.839  1.00  0.00    -0.062 A 
HETATM   27  C22 UNK     1      14.658  10.226  35.329  1.00  0.00     0.008 A 
HETATM   28  C26 UNK     1      13.189  12.207  35.741  1.00  0.00     0.048 C 
HETATM   29  C16 UNK     1      15.172   9.241  34.486  1.00  0.00     0.026 A 
ENDBRANCH  20  23
ENDBRANCH  18  20
ENDBRANCH  16  18
ENDBRANCH  14  16
ENDBRANCH  13  14
ENDBRANCH   8  13
BRANCH   4  30
HETATM   30  C8  UNK     1      18.871  -1.096  35.584  1.00  0.00    -0.019 A 
HETATM   31  C18 UNK     1      17.805  -1.805  36.134  1.00  0.00     0.015 A 
HETATM   32  C23 UNK     1      18.016  -3.073  36.674  1.00  0.00     0.037 A 
HETATM   33  C25 UNK     1      19.295  -3.632  36.663  1.00  0.00     0.102 A 
HETATM   34  C24 UNK     1      20.362  -2.920  36.113  1.00  0.00     0.037 A 
HETATM   35  C19 UNK     1      20.150  -1.652  35.573  1.00  0.00     0.015 A 
BRANCH  33  36
HETATM   36  N2  UNK     1      19.510  -4.923  37.212  1.00  0.00    -0.116 N 
HETATM   37  O7  UNK     1      18.771  -5.870  36.848  1.00  0.00    -0.532 OA
HETATM   38  O8  UNK     1      20.433  -5.082  38.047  1.00  0.00    -0.532 OA
ENDBRANCH  33  36
ENDBRANCH   4  30
TORSDOF 8
ENDMDL
