MODEL 1
REMARK VINA RESULT:      -7.9      0.000      0.000
REMARK  2 active torsions:
REMARK  status: ('A' for Active; 'I' for Inactive)
REMARK    1  A    between atoms: C5_12  and  N1_6 
REMARK       I    between atoms: C10_17  and  N2_7 
REMARK    2  A    between atoms: C10_17  and  C4_11 
ROOT
HETATM    1  O1  UNK     1      18.550   0.767  32.288  1.00  0.00    -0.271 OA
HETATM    2  O2  UNK     1      17.931   0.837  34.486  1.00  0.00    -0.259 OA
HETATM    3  C1  UNK     1      19.822  -1.131  31.459  1.00  0.00     0.002 A 
HETATM    4  C2  UNK     1      19.201   0.094  31.237  1.00  0.00     0.122 A 
HETATM    5  C3  UNK     1      19.789  -1.705  32.796  1.00  0.00     0.037 A 
HETATM    6  C4  UNK     1      19.168  -1.060  33.791  1.00  0.00     0.108 A 
HETATM    7  C5  UNK     1      19.197   0.697  29.981  1.00  0.00     0.137 A 
HETATM    8  C6  UNK     1      20.457  -1.768  30.391  1.00  0.00     0.014 A 
HETATM    9  C7  UNK     1      19.834   0.055  28.921  1.00  0.00     0.039 A 
HETATM   10  C8  UNK     1      18.500   0.243  33.578  1.00  0.00     0.304 A 
HETATM   11  C9  UNK     1      20.462  -1.176  29.126  1.00  0.00     0.003 A 
ENDROOT
BRANCH   6  12
HETATM   12  C10 UNK     1      19.187  -1.721  35.102  1.00  0.00     0.257 C 
HETATM   13  O3  UNK     1      20.216  -2.233  35.536  1.00  0.00    -0.267 OA
HETATM   14  N2  UNK     1      17.959  -1.688  35.738  1.00  0.00    -0.361 N 
HETATM   15  C11 UNK     1      17.730  -2.275  37.039  1.00  0.00     0.149 C 
HETATM   16  H5  UNK     1      17.177  -1.198  35.315  1.00  0.00     0.162 HD
ENDBRANCH   6  12
BRANCH   7  17
HETATM   17  N1  UNK     1      18.560   1.948  29.760  1.00  0.00    -0.113 N 
HETATM   18  O4  UNK     1      17.405   1.963  29.271  1.00  0.00    -0.532 OA
HETATM   19  O5  UNK     1      19.171   3.001  30.061  1.00  0.00    -0.532 OA
ENDBRANCH   7  17
TORSDOF 2
ENDMDL
MODEL 2
REMARK VINA RESULT:      -7.6     14.325     17.239
REMARK  2 active torsions:
REMARK  status: ('A' for Active; 'I' for Inactive)
REMARK    1  A    between atoms: C5_12  and  N1_6 
REMARK       I    between atoms: C10_17  and  N2_7 
REMARK    2  A    between atoms: C10_17  and  C4_11 
ROOT
HETATM    1  O1  UNK     1      19.495  -0.028  14.364  1.00  0.00    -0.271 OA
HETATM    2  O2  UNK     1      19.806   1.879  15.582  1.00  0.00    -0.259 OA
HETATM    3  C1  UNK     1      18.740  -2.053  15.476  1.00  0.00     0.002 A 
HETATM    4  C2  UNK     1      19.128  -1.387  14.319  1.00  0.00     0.122 A 
HETATM    5  C3  UNK     1      18.719  -1.323  16.735  1.00  0.00     0.037 A 
HETATM    6  C4  UNK     1      19.069  -0.032  16.772  1.00  0.00     0.108 A 
HETATM    7  C5  UNK     1      19.170  -2.028  13.082  1.00  0.00     0.137 A 
HETATM    8  C6  UNK     1      18.383  -3.401  15.392  1.00  0.00     0.014 A 
HETATM    9  C7  UNK     1      18.813  -3.373  13.006  1.00  0.00     0.039 A 
HETATM   10  C8  UNK     1      19.485   0.697  15.553  1.00  0.00     0.304 A 
HETATM   11  C9  UNK     1      18.420  -4.058  14.159  1.00  0.00     0.003 A 
ENDROOT
BRANCH   6  12
HETATM   12  C10 UNK     1      19.014   0.617  18.087  1.00  0.00     0.257 C 
HETATM   13  O3  UNK     1      18.520   1.735  18.219  1.00  0.00    -0.267 OA
HETATM   14  N2  UNK     1      19.564  -0.157  19.093  1.00  0.00    -0.361 N 
HETATM   15  C11 UNK     1      19.627   0.271  20.472  1.00  0.00     0.149 C 
HETATM   16  H5  UNK     1      19.907  -1.090  18.889  1.00  0.00     0.162 HD
ENDBRANCH   6  12
BRANCH   7  17
HETATM   17  N1  UNK     1      19.567  -1.342  11.903  1.00  0.00    -0.113 N 
HETATM   18  O4  UNK     1      20.768  -1.396  11.545  1.00  0.00    -0.532 OA
HETATM   19  O5  UNK     1      18.705  -0.702  11.254  1.00  0.00    -0.532 OA
ENDBRANCH   7  17
TORSDOF 2
ENDMDL
MODEL 3
REMARK VINA RESULT:      -7.6      2.168      5.410
REMARK  2 active torsions:
REMARK  status: ('A' for Active; 'I' for Inactive)
REMARK    1  A    between atoms: C5_12  and  N1_6 
REMARK       I    between atoms: C10_17  and  N2_7 
REMARK    2  A    between atoms: C10_17  and  C4_11 
ROOT
HETATM    1  O1  UNK     1      19.033   0.432  32.208  1.00  0.00    -0.271 OA
HETATM    2  O2  UNK     1      18.116   2.517  32.382  1.00  0.00    -0.259 OA
HETATM    3  C1  UNK     1      19.937  -0.307  30.076  1.00  0.00     0.002 A 
HETATM    4  C2  UNK     1      19.662  -0.549  31.418  1.00  0.00     0.122 A 
HETATM    5  C3  UNK     1      19.563   0.976  29.502  1.00  0.00     0.037 A 
HETATM    6  C4  UNK     1      18.965   1.904  30.257  1.00  0.00     0.108 A 
HETATM    7  C5  UNK     1      19.994  -1.757  32.029  1.00  0.00     0.137 A 
HETATM    8  C6  UNK     1      20.563  -1.305  29.326  1.00  0.00     0.014 A 
HETATM    9  C7  UNK     1      20.618  -2.748  31.273  1.00  0.00     0.039 A 
HETATM   10  C8  UNK     1      18.663   1.670  31.687  1.00  0.00     0.304 A 
HETATM   11  C9  UNK     1      20.902  -2.522  29.924  1.00  0.00     0.003 A 
ENDROOT
BRANCH   6  12
HETATM   12  C10 UNK     1      18.628   3.167  29.588  1.00  0.00     0.257 C 
HETATM   13  O3  UNK     1      17.925   3.179  28.580  1.00  0.00    -0.267 OA
HETATM   14  N2  UNK     1      19.182   4.271  30.210  1.00  0.00    -0.361 N 
HETATM   15  C11 UNK     1      18.993   5.622  29.734  1.00  0.00     0.149 C 
HETATM   16  H5  UNK     1      19.714   4.160  31.068  1.00  0.00     0.162 HD
ENDBRANCH   6  12
BRANCH   7  17
HETATM   17  N1  UNK     1      19.712  -1.998  33.401  1.00  0.00    -0.113 N 
HETATM   18  O4  UNK     1      20.488  -2.730  34.061  1.00  0.00    -0.532 OA
HETATM   19  O5  UNK     1      18.695  -1.472  33.912  1.00  0.00    -0.532 OA
ENDBRANCH   7  17
TORSDOF 2
ENDMDL
MODEL 4
REMARK VINA RESULT:      -7.4     23.886     26.007
REMARK  2 active torsions:
REMARK  status: ('A' for Active; 'I' for Inactive)
REMARK    1  A    between atoms: C5_12  and  N1_6 
REMARK       I    between atoms: C10_17  and  N2_7 
REMARK    2  A    between atoms: C10_17  and  C4_11 
ROOT
HETATM    1  O1  UNK     1      11.324   7.194   9.573  1.00  0.00    -0.271 OA
HETATM    2  O2  UNK     1      13.077   7.466  11.013  1.00  0.00    -0.259 OA
HETATM    3  C1  UNK     1      11.734   6.359   7.327  1.00  0.00     0.002 A 
HETATM    4  C2  UNK     1      10.852   6.815   8.302  1.00  0.00     0.122 A 
HETATM    5  C3  UNK     1      13.153   6.284   7.642  1.00  0.00     0.037 A 
HETATM    6  C4  UNK     1      13.595   6.646   8.852  1.00  0.00     0.108 A 
HETATM    7  C5  UNK     1       9.482   6.912   8.064  1.00  0.00     0.137 A 
HETATM    8  C6  UNK     1      11.228   5.991   6.079  1.00  0.00     0.014 A 
HETATM    9  C7  UNK     1       8.985   6.543   6.816  1.00  0.00     0.039 A 
HETATM   10  C8  UNK     1      12.675   7.133   9.905  1.00  0.00     0.304 A 
HETATM   11  C9  UNK     1       9.857   6.083   5.825  1.00  0.00     0.003 A 
ENDROOT
BRANCH   6  12
HETATM   12  C10 UNK     1      15.042   6.532   9.074  1.00  0.00     0.257 C 
HETATM   13  O3  UNK     1      15.654   5.521   8.738  1.00  0.00    -0.267 OA
HETATM   14  N2  UNK     1      15.584   7.652   9.678  1.00  0.00    -0.361 N 
HETATM   15  C11 UNK     1      16.987   7.773  10.000  1.00  0.00     0.149 C 
HETATM   16  H5  UNK     1      14.999   8.458   9.877  1.00  0.00     0.162 HD
ENDBRANCH   6  12
BRANCH   7  17
HETATM   17  N1  UNK     1       8.586   7.377   9.065  1.00  0.00    -0.113 N 
HETATM   18  O4  UNK     1       8.474   8.612   9.252  1.00  0.00    -0.532 OA
HETATM   19  O5  UNK     1       7.934   6.539   9.731  1.00  0.00    -0.532 OA
ENDBRANCH   7  17
TORSDOF 2
ENDMDL
MODEL 5
REMARK VINA RESULT:      -7.4      2.834      3.864
REMARK  2 active torsions:
REMARK  status: ('A' for Active; 'I' for Inactive)
REMARK    1  A    between atoms: C5_12  and  N1_6 
REMARK       I    between atoms: C10_17  and  N2_7 
REMARK    2  A    between atoms: C10_17  and  C4_11 
ROOT
HETATM    1  O1  UNK     1      18.401   1.463  31.872  1.00  0.00    -0.271 OA
HETATM    2  O2  UNK     1      18.186  -0.200  33.423  1.00  0.00    -0.259 OA
HETATM    3  C1  UNK     1      18.476   3.781  32.599  1.00  0.00     0.002 A 
HETATM    4  C2  UNK     1      18.502   2.837  31.578  1.00  0.00     0.122 A 
HETATM    5  C3  UNK     1      18.342   3.327  33.975  1.00  0.00     0.037 A 
HETATM    6  C4  UNK     1      18.247   2.020  34.247  1.00  0.00     0.108 A 
HETATM    7  C5  UNK     1      18.627   3.206  30.241  1.00  0.00     0.137 A 
HETATM    8  C6  UNK     1      18.579   5.134  32.269  1.00  0.00     0.014 A 
HETATM    9  C7  UNK     1      18.728   4.558  29.919  1.00  0.00     0.039 A 
HETATM   10  C8  UNK     1      18.273   0.997  33.178  1.00  0.00     0.304 A 
HETATM   11  C9  UNK     1      18.705   5.520  30.932  1.00  0.00     0.003 A 
ENDROOT
BRANCH   6  12
HETATM   12  C10 UNK     1      18.118   1.661  35.665  1.00  0.00     0.257 C 
HETATM   13  O3  UNK     1      18.964   2.012  36.485  1.00  0.00    -0.267 OA
HETATM   14  N2  UNK     1      16.983   0.916  35.930  1.00  0.00    -0.361 N 
HETATM   15  C11 UNK     1      16.641   0.444  37.253  1.00  0.00     0.149 C 
HETATM   16  H5  UNK     1      16.319   0.715  35.189  1.00  0.00     0.162 HD
ENDBRANCH   6  12
BRANCH   7  17
HETATM   17  N1  UNK     1      18.653   2.236  29.202  1.00  0.00    -0.113 N 
HETATM   18  O4  UNK     1      17.868   2.364  28.233  1.00  0.00    -0.532 OA
HETATM   19  O5  UNK     1      19.462   1.281  29.284  1.00  0.00    -0.532 OA
ENDBRANCH   7  17
TORSDOF 2
ENDMDL
MODEL 6
REMARK VINA RESULT:      -7.2      3.701      5.254
REMARK  2 active torsions:
REMARK  status: ('A' for Active; 'I' for Inactive)
REMARK    1  A    between atoms: C5_12  and  N1_6 
REMARK       I    between atoms: C10_17  and  N2_7 
REMARK    2  A    between atoms: C10_17  and  C4_11 
ROOT
HETATM    1  O1  UNK     1      19.270  -0.897  34.710  1.00  0.00    -0.271 OA
HETATM    2  O2  UNK     1      20.434  -2.656  33.833  1.00  0.00    -0.259 OA
HETATM    3  C1  UNK     1      18.483  -1.004  37.008  1.00  0.00     0.002 A 
HETATM    4  C2  UNK     1      18.594  -0.319  35.802  1.00  0.00     0.122 A 
HETATM    5  C3  UNK     1      19.075  -2.329  37.122  1.00  0.00     0.037 A 
HETATM    6  C4  UNK     1      19.716  -2.872  36.080  1.00  0.00     0.108 A 
HETATM    7  C5  UNK     1      18.049   0.951  35.627  1.00  0.00     0.137 A 
HETATM    8  C6  UNK     1      17.805  -0.398  38.068  1.00  0.00     0.014 A 
HETATM    9  C7  UNK     1      17.373   1.549  36.690  1.00  0.00     0.039 A 
HETATM   10  C8  UNK     1      19.848  -2.161  34.789  1.00  0.00     0.304 A 
HETATM   11  C9  UNK     1      17.252   0.875  37.908  1.00  0.00     0.003 A 
ENDROOT
BRANCH   6  12
HETATM   12  C10 UNK     1      20.282  -4.210  36.294  1.00  0.00     0.257 C 
HETATM   13  O3  UNK     1      21.193  -4.389  37.099  1.00  0.00    -0.267 OA
HETATM   14  N2  UNK     1      19.683  -5.179  35.509  1.00  0.00    -0.361 N 
HETATM   15  C11 UNK     1      20.071  -6.571  35.542  1.00  0.00     0.149 C 
HETATM   16  H5  UNK     1      18.903  -4.937  34.905  1.00  0.00     0.162 HD
ENDBRANCH   6  12
BRANCH   7  17
HETATM   17  N1  UNK     1      18.166   1.647  34.394  1.00  0.00    -0.113 N 
HETATM   18  O4  UNK     1      17.398   1.343  33.450  1.00  0.00    -0.532 OA
HETATM   19  O5  UNK     1      19.035   2.545  34.284  1.00  0.00    -0.532 OA
ENDBRANCH   7  17
TORSDOF 2
ENDMDL
MODEL 7
REMARK VINA RESULT:      -7.1      2.058      5.808
REMARK  2 active torsions:
REMARK  status: ('A' for Active; 'I' for Inactive)
REMARK    1  A    between atoms: C5_12  and  N1_6 
REMARK       I    between atoms: C10_17  and  N2_7 
REMARK    2  A    between atoms: C10_17  and  C4_11 
ROOT
HETATM    1  O1  UNK     1      17.920   0.973  34.687  1.00  0.00    -0.271 OA
HETATM    2  O2  UNK     1      17.930   2.279  32.812  1.00  0.00    -0.259 OA
HETATM    3  C1  UNK     1      19.022  -1.193  34.647  1.00  0.00     0.002 A 
HETATM    4  C2  UNK     1      18.292  -0.224  35.328  1.00  0.00     0.122 A 
HETATM    5  C3  UNK     1      19.392  -0.950  33.261  1.00  0.00     0.037 A 
HETATM    6  C4  UNK     1      19.035   0.190  32.657  1.00  0.00     0.108 A 
HETATM    7  C5  UNK     1      17.906  -0.395  36.656  1.00  0.00     0.137 A 
HETATM    8  C6  UNK     1      19.374  -2.366  35.317  1.00  0.00     0.014 A 
HETATM    9  C7  UNK     1      18.260  -1.569  37.317  1.00  0.00     0.039 A 
HETATM   10  C8  UNK     1      18.259   1.235  33.362  1.00  0.00     0.304 A 
HETATM   11  C9  UNK     1      18.994  -2.553  36.648  1.00  0.00     0.003 A 
ENDROOT
BRANCH   6  12
HETATM   12  C10 UNK     1      19.457   0.343  31.259  1.00  0.00     0.257 C 
HETATM   13  O3  UNK     1      20.621   0.134  30.925  1.00  0.00    -0.267 OA
HETATM   14  N2  UNK     1      18.425   0.733  30.425  1.00  0.00    -0.361 N 
HETATM   15  C11 UNK     1      18.597   0.950  29.007  1.00  0.00     0.149 C 
HETATM   16  H5  UNK     1      17.483   0.837  30.791  1.00  0.00     0.162 HD
ENDBRANCH   6  12
BRANCH   7  17
HETATM   17  N1  UNK     1      17.162   0.599  37.346  1.00  0.00    -0.113 N 
HETATM   18  O4  UNK     1      15.946   0.746  37.073  1.00  0.00    -0.532 OA
HETATM   19  O5  UNK     1      17.741   1.301  38.209  1.00  0.00    -0.532 OA
ENDBRANCH   7  17
TORSDOF 2
ENDMDL
MODEL 8
REMARK VINA RESULT:      -7.1      7.589      9.288
REMARK  2 active torsions:
REMARK  status: ('A' for Active; 'I' for Inactive)
REMARK    1  A    between atoms: C5_12  and  N1_6 
REMARK       I    between atoms: C10_17  and  N2_7 
REMARK    2  A    between atoms: C10_17  and  C4_11 
ROOT
HETATM    1  O1  UNK     1      16.379   6.590  32.031  1.00  0.00    -0.271 OA
HETATM    2  O2  UNK     1      14.180   7.201  31.914  1.00  0.00    -0.259 OA
HETATM    3  C1  UNK     1      17.925   7.918  33.355  1.00  0.00     0.002 A 
HETATM    4  C2  UNK     1      17.675   6.831  32.523  1.00  0.00     0.122 A 
HETATM    5  C3  UNK     1      16.825   8.804  33.705  1.00  0.00     0.037 A 
HETATM    6  C4  UNK     1      15.595   8.570  33.233  1.00  0.00     0.108 A 
HETATM    7  C5  UNK     1      18.685   5.946  32.150  1.00  0.00     0.137 A 
HETATM    8  C6  UNK     1      19.224   8.124  33.824  1.00  0.00     0.014 A 
HETATM    9  C7  UNK     1      19.979   6.159  32.622  1.00  0.00     0.039 A 
HETATM   10  C8  UNK     1      15.305   7.419  32.348  1.00  0.00     0.304 A 
HETATM   11  C9  UNK     1      20.248   7.245  33.458  1.00  0.00     0.003 A 
ENDROOT
BRANCH   6  12
HETATM   12  C10 UNK     1      14.551   9.517  33.645  1.00  0.00     0.257 C 
HETATM   13  O3  UNK     1      14.243   9.642  34.828  1.00  0.00    -0.267 OA
HETATM   14  N2  UNK     1      13.998  10.204  32.579  1.00  0.00    -0.361 N 
HETATM   15  C11 UNK     1      12.952  11.189  32.735  1.00  0.00     0.149 C 
HETATM   16  H5  UNK     1      14.354  10.062  31.639  1.00  0.00     0.162 HD
ENDBRANCH   6  12
BRANCH   7  17
HETATM   17  N1  UNK     1      18.423   4.837  31.301  1.00  0.00    -0.113 N 
HETATM   18  O4  UNK     1      17.790   3.857  31.762  1.00  0.00    -0.532 OA
HETATM   19  O5  UNK     1      18.832   4.869  30.117  1.00  0.00    -0.532 OA
ENDBRANCH   7  17
TORSDOF 2
ENDMDL
MODEL 9
REMARK VINA RESULT:      -7.0      3.517      5.266
REMARK  2 active torsions:
REMARK  status: ('A' for Active; 'I' for Inactive)
REMARK    1  A    between atoms: C5_12  and  N1_6 
REMARK       I    between atoms: C10_17  and  N2_7 
REMARK    2  A    between atoms: C10_17  and  C4_11 
ROOT
HETATM    1  O1  UNK     1      18.673   1.797  33.056  1.00  0.00    -0.271 OA
HETATM    2  O2  UNK     1      18.323   3.115  34.889  1.00  0.00    -0.259 OA
HETATM    3  C1  UNK     1      18.543   2.772  30.833  1.00  0.00     0.002 A 
HETATM    4  C2  UNK     1      18.750   1.670  31.656  1.00  0.00     0.122 A 
HETATM    5  C3  UNK     1      18.244   4.059  31.443  1.00  0.00     0.037 A 
HETATM    6  C4  UNK     1      18.171   4.174  32.774  1.00  0.00     0.108 A 
HETATM    7  C5  UNK     1      19.040   0.410  31.135  1.00  0.00     0.137 A 
HETATM    8  C6  UNK     1      18.629   2.607  29.449  1.00  0.00     0.014 A 
HETATM    9  C7  UNK     1      19.123   0.253  29.753  1.00  0.00     0.039 A 
HETATM   10  C8  UNK     1      18.389   3.015  33.669  1.00  0.00     0.304 A 
HETATM   11  C9  UNK     1      18.919   1.350  28.912  1.00  0.00     0.003 A 
ENDROOT
BRANCH   6  12
HETATM   12  C10 UNK     1      17.866   5.512  33.295  1.00  0.00     0.257 C 
HETATM   13  O3  UNK     1      16.820   6.083  32.994  1.00  0.00    -0.267 OA
HETATM   14  N2  UNK     1      18.862   6.010  34.116  1.00  0.00    -0.361 N 
HETATM   15  C11 UNK     1      18.788   7.309  34.745  1.00  0.00     0.149 C 
HETATM   16  H5  UNK     1      19.672   5.440  34.341  1.00  0.00     0.162 HD
ENDBRANCH   6  12
BRANCH   7  17
HETATM   17  N1  UNK     1      19.251  -0.712  31.980  1.00  0.00    -0.113 N 
HETATM   18  O4  UNK     1      18.258  -1.277  32.498  1.00  0.00    -0.532 OA
HETATM   19  O5  UNK     1      20.424  -1.106  32.184  1.00  0.00    -0.532 OA
ENDBRANCH   7  17
TORSDOF 2
ENDMDL
MODEL 10
REMARK VINA RESULT:      -7.0      1.991      6.182
REMARK  2 active torsions:
REMARK  status: ('A' for Active; 'I' for Inactive)
REMARK    1  A    between atoms: C5_12  and  N1_6 
REMARK       I    between atoms: C10_17  and  N2_7 
REMARK    2  A    between atoms: C10_17  and  C4_11 
ROOT
HETATM    1  O1  UNK     1      18.971  -1.217  33.753  1.00  0.00    -0.271 OA
HETATM    2  O2  UNK     1      19.488  -1.922  31.642  1.00  0.00    -0.259 OA
HETATM    3  C1  UNK     1      18.408   1.117  34.135  1.00  0.00     0.002 A 
HETATM    4  C2  UNK     1      18.599  -0.173  34.621  1.00  0.00     0.122 A 
HETATM    5  C3  UNK     1      18.602   1.369  32.714  1.00  0.00     0.037 A 
HETATM    6  C4  UNK     1      18.956   0.372  31.895  1.00  0.00     0.108 A 
HETATM    7  C5  UNK     1      18.430  -0.480  35.969  1.00  0.00     0.137 A 
HETATM    8  C6  UNK     1      18.039   2.126  35.026  1.00  0.00     0.014 A 
HETATM    9  C7  UNK     1      18.062   0.533  36.853  1.00  0.00     0.039 A 
HETATM   10  C8  UNK     1      19.164  -1.007  32.390  1.00  0.00     0.304 A 
HETATM   11  C9  UNK     1      17.866   1.833  36.381  1.00  0.00     0.003 A 
ENDROOT
BRANCH   6  12
HETATM   12  C10 UNK     1      19.125   0.726  30.480  1.00  0.00     0.257 C 
HETATM   13  O3  UNK     1      20.194   0.533  29.904  1.00  0.00    -0.267 OA
HETATM   14  N2  UNK     1      17.984   1.273  29.922  1.00  0.00    -0.361 N 
HETATM   15  C11 UNK     1      17.908   1.701  28.544  1.00  0.00     0.149 C 
HETATM   16  H5  UNK     1      17.133   1.349  30.470  1.00  0.00     0.162 HD
ENDBRANCH   6  12
BRANCH   7  17
HETATM   17  N1  UNK     1      18.625  -1.799  36.460  1.00  0.00    -0.113 N 
HETATM   18  O4  UNK     1      17.621  -2.513  36.697  1.00  0.00    -0.532 OA
HETATM   19  O5  UNK     1      19.795  -2.213  36.642  1.00  0.00    -0.532 OA
ENDBRANCH   7  17
TORSDOF 2
ENDMDL
