MODEL 1
REMARK VINA RESULT:      -8.4      0.000      0.000
REMARK  6 active torsions:
REMARK  status: ('A' for Active; 'I' for Inactive)
REMARK    1  A    between atoms: C2_6  and  O1_1 
REMARK    2  A    between atoms: C4_8  and  O2_2 
REMARK    3  A    between atoms: C5_9  and  O3_3 
REMARK    4  A    between atoms: C1_5  and  C7_11 
REMARK    5  A    between atoms: C10_14  and  C8_12 
REMARK    6  A    between atoms: C10_14  and  C9_13 
ROOT
HETATM    1  C1  UNK     1      18.840   5.280  31.504  1.00  0.00     0.000 A 
HETATM    2  C2  UNK     1      19.944   6.025  31.887  1.00  0.00     0.081 A 
HETATM    3  C3  UNK     1      17.595   5.494  32.076  1.00  0.00     0.054 A 
HETATM    4  C4  UNK     1      17.451   6.478  33.054  1.00  0.00     0.102 A 
HETATM    5  C5  UNK     1      18.554   7.235  33.449  1.00  0.00     0.104 A 
HETATM    6  C6  UNK     1      19.800   7.008  32.866  1.00  0.00     0.077 A 
ENDROOT
BRANCH   1   7
HETATM    7  C7  UNK     1      18.965   4.233  30.474  1.00  0.00     0.018 C 
HETATM    8  C8  UNK     1      18.223   3.117  30.430  1.00  0.00     0.056 C 
BRANCH   8   9
HETATM    9  C10 UNK     1      18.436   2.099  29.344  1.00  0.00     0.182 C 
HETATM   10  O4  UNK     1      18.053   2.323  28.187  1.00  0.00    -0.288 OA
BRANCH   9  11
HETATM   11  C9  UNK     1      19.128   0.862  29.675  1.00  0.00     0.014 A 
HETATM   12  C11 UNK     1      19.573   0.019  28.658  1.00  0.00     0.015 A 
HETATM   13  C14 UNK     1      20.239  -1.166  28.976  1.00  0.00     0.001 A 
HETATM   14  C18 UNK     1      20.457  -1.506  30.311  1.00  0.00     0.000 A 
HETATM   15  C15 UNK     1      20.012  -0.662  31.328  1.00  0.00     0.001 A 
HETATM   16  C12 UNK     1      19.347   0.523  31.010  1.00  0.00     0.015 A 
ENDBRANCH   9  11
ENDBRANCH   8   9
ENDBRANCH   1   7
BRANCH   2  17
HETATM   17  O1  UNK     1      21.174   5.824  31.333  1.00  0.00    -0.355 OA
HETATM   18  C13 UNK     1      22.292   5.839  32.218  1.00  0.00     0.210 C 
ENDBRANCH   2  17
BRANCH   4  19
HETATM   19  O2  UNK     1      16.229   6.689  33.618  1.00  0.00    -0.353 OA
HETATM   20  C16 UNK     1      15.278   7.424  32.848  1.00  0.00     0.210 C 
ENDBRANCH   4  19
BRANCH   5  21
HETATM   21  O3  UNK     1      18.426   8.199  34.403  1.00  0.00    -0.353 OA
HETATM   22  C17 UNK     1      18.281   9.544  33.950  1.00  0.00     0.210 C 
ENDBRANCH   5  21
TORSDOF 6
ENDMDL
MODEL 2
REMARK VINA RESULT:      -7.6      1.804      2.303
REMARK  6 active torsions:
REMARK  status: ('A' for Active; 'I' for Inactive)
REMARK    1  A    between atoms: C2_6  and  O1_1 
REMARK    2  A    between atoms: C4_8  and  O2_2 
REMARK    3  A    between atoms: C5_9  and  O3_3 
REMARK    4  A    between atoms: C1_5  and  C7_11 
REMARK    5  A    between atoms: C10_14  and  C8_12 
REMARK    6  A    between atoms: C10_14  and  C9_13 
ROOT
HETATM    1  C1  UNK     1      17.932   4.412  31.992  1.00  0.00     0.000 A 
HETATM    2  C2  UNK     1      18.225   4.198  33.330  1.00  0.00     0.081 A 
HETATM    3  C3  UNK     1      17.661   5.684  31.510  1.00  0.00     0.054 A 
HETATM    4  C4  UNK     1      17.684   6.768  32.388  1.00  0.00     0.102 A 
HETATM    5  C5  UNK     1      17.977   6.567  33.737  1.00  0.00     0.104 A 
HETATM    6  C6  UNK     1      18.247   5.282  34.208  1.00  0.00     0.077 A 
ENDROOT
BRANCH   1   7
HETATM    7  C7  UNK     1      17.899   3.284  31.044  1.00  0.00     0.018 C 
HETATM    8  C8  UNK     1      18.882   2.987  30.182  1.00  0.00     0.056 C 
BRANCH   8   9
HETATM    9  C10 UNK     1      18.748   1.821  29.242  1.00  0.00     0.182 C 
HETATM   10  O4  UNK     1      18.188   1.958  28.144  1.00  0.00    -0.288 OA
BRANCH   9  11
HETATM   11  C9  UNK     1      19.317   0.541  29.635  1.00  0.00     0.014 A 
HETATM   12  C11 UNK     1      19.371   0.186  30.983  1.00  0.00     0.015 A 
HETATM   13  C14 UNK     1      19.915  -1.043  31.358  1.00  0.00     0.001 A 
HETATM   14  C18 UNK     1      20.405  -1.915  30.386  1.00  0.00     0.000 A 
HETATM   15  C15 UNK     1      20.351  -1.559  29.039  1.00  0.00     0.001 A 
HETATM   16  C12 UNK     1      19.807  -0.331  28.663  1.00  0.00     0.015 A 
ENDBRANCH   9  11
ENDBRANCH   8   9
ENDBRANCH   1   7
BRANCH   2  17
HETATM   17  O1  UNK     1      18.492   2.953  33.816  1.00  0.00    -0.355 OA
HETATM   18  C13 UNK     1      18.573   2.815  35.233  1.00  0.00     0.210 C 
ENDBRANCH   2  17
BRANCH   4  19
HETATM   19  O2  UNK     1      17.417   8.018  31.918  1.00  0.00    -0.353 OA
HETATM   20  C16 UNK     1      16.049   8.335  31.660  1.00  0.00     0.210 C 
ENDBRANCH   4  19
BRANCH   5  21
HETATM   21  O3  UNK     1      18.004   7.617  34.604  1.00  0.00    -0.353 OA
HETATM   22  C17 UNK     1      16.822   7.862  35.363  1.00  0.00     0.210 C 
ENDBRANCH   5  21
TORSDOF 6
ENDMDL
MODEL 3
REMARK VINA RESULT:      -7.5      7.846     10.000
REMARK  6 active torsions:
REMARK  status: ('A' for Active; 'I' for Inactive)
REMARK    1  A    between atoms: C2_6  and  O1_1 
REMARK    2  A    between atoms: C4_8  and  O2_2 
REMARK    3  A    between atoms: C5_9  and  O3_3 
REMARK    4  A    between atoms: C1_5  and  C7_11 
REMARK    5  A    between atoms: C10_14  and  C8_12 
REMARK    6  A    between atoms: C10_14  and  C9_13 
ROOT
HETATM    1  C1  UNK     1      19.722  -2.421  36.148  1.00  0.00     0.000 A 
HETATM    2  C2  UNK     1      19.851  -2.212  34.783  1.00  0.00     0.081 A 
HETATM    3  C3  UNK     1      18.785  -1.724  36.896  1.00  0.00     0.054 A 
HETATM    4  C4  UNK     1      17.957  -0.795  36.264  1.00  0.00     0.102 A 
HETATM    5  C5  UNK     1      18.078  -0.575  34.892  1.00  0.00     0.104 A 
HETATM    6  C6  UNK     1      19.025  -1.283  34.152  1.00  0.00     0.077 A 
ENDROOT
BRANCH   1   7
HETATM    7  C7  UNK     1      20.585  -3.395  36.841  1.00  0.00     0.018 C 
HETATM    8  C8  UNK     1      20.302  -4.698  36.979  1.00  0.00     0.056 C 
BRANCH   8   9
HETATM    9  C10 UNK     1      21.241  -5.611  37.717  1.00  0.00     0.182 C 
HETATM   10  O4  UNK     1      22.411  -5.265  37.940  1.00  0.00    -0.288 OA
BRANCH   9  11
HETATM   11  C9  UNK     1      20.739  -6.892  38.190  1.00  0.00     0.014 A 
HETATM   12  C11 UNK     1      21.540  -7.699  38.997  1.00  0.00     0.015 A 
HETATM   13  C14 UNK     1      21.057  -8.927  39.452  1.00  0.00     0.001 A 
HETATM   14  C18 UNK     1      19.774  -9.345  39.099  1.00  0.00     0.000 A 
HETATM   15  C15 UNK     1      18.974  -8.538  38.292  1.00  0.00     0.001 A 
HETATM   16  C12 UNK     1      19.457  -7.310  37.837  1.00  0.00     0.015 A 
ENDBRANCH   9  11
ENDBRANCH   8   9
ENDBRANCH   1   7
BRANCH   2  17
HETATM   17  O1  UNK     1      20.769  -2.890  34.037  1.00  0.00    -0.355 OA
HETATM   18  C13 UNK     1      20.883  -2.525  32.664  1.00  0.00     0.210 C 
ENDBRANCH   2  17
BRANCH   4  19
HETATM   19  O2  UNK     1      17.038  -0.109  36.996  1.00  0.00    -0.353 OA
HETATM   20  C16 UNK     1      17.533   0.884  37.894  1.00  0.00     0.210 C 
ENDBRANCH   4  19
BRANCH   5  21
HETATM   21  O3  UNK     1      17.275   0.328  34.262  1.00  0.00    -0.353 OA
HETATM   22  C17 UNK     1      17.849   1.593  33.941  1.00  0.00     0.210 C 
ENDBRANCH   5  21
TORSDOF 6
ENDMDL
MODEL 4
REMARK VINA RESULT:      -7.4      4.411      7.890
REMARK  6 active torsions:
REMARK  status: ('A' for Active; 'I' for Inactive)
REMARK    1  A    between atoms: C2_6  and  O1_1 
REMARK    2  A    between atoms: C4_8  and  O2_2 
REMARK    3  A    between atoms: C5_9  and  O3_3 
REMARK    4  A    between atoms: C1_5  and  C7_11 
REMARK    5  A    between atoms: C10_14  and  C8_12 
REMARK    6  A    between atoms: C10_14  and  C9_13 
ROOT
HETATM    1  C1  UNK     1      18.225   0.997  34.349  1.00  0.00     0.000 A 
HETATM    2  C2  UNK     1      18.530  -0.215  33.748  1.00  0.00     0.081 A 
HETATM    3  C3  UNK     1      18.086   1.102  35.724  1.00  0.00     0.054 A 
HETATM    4  C4  UNK     1      18.256  -0.032  36.519  1.00  0.00     0.102 A 
HETATM    5  C5  UNK     1      18.563  -1.257  35.928  1.00  0.00     0.104 A 
HETATM    6  C6  UNK     1      18.699  -1.349  34.542  1.00  0.00     0.077 A 
ENDROOT
BRANCH   1   7
HETATM    7  C7  UNK     1      18.039   2.210  33.532  1.00  0.00     0.018 C 
HETATM    8  C8  UNK     1      18.311   3.455  33.947  1.00  0.00     0.056 C 
BRANCH   8   9
HETATM    9  C10 UNK     1      18.073   4.632  33.044  1.00  0.00     0.182 C 
HETATM   10  O4  UNK     1      17.525   4.480  31.942  1.00  0.00    -0.288 OA
BRANCH   9  11
HETATM   11  C9  UNK     1      18.469   5.955  33.503  1.00  0.00     0.014 A 
HETATM   12  C11 UNK     1      19.767   6.413  33.273  1.00  0.00     0.015 A 
HETATM   13  C14 UNK     1      20.145   7.682  33.712  1.00  0.00     0.001 A 
HETATM   14  C18 UNK     1      19.227   8.491  34.381  1.00  0.00     0.000 A 
HETATM   15  C15 UNK     1      17.931   8.033  34.611  1.00  0.00     0.001 A 
HETATM   16  C12 UNK     1      17.551   6.764  34.172  1.00  0.00     0.015 A 
ENDBRANCH   9  11
ENDBRANCH   8   9
ENDBRANCH   1   7
BRANCH   2  17
HETATM   17  O1  UNK     1      18.669  -0.332  32.397  1.00  0.00    -0.355 OA
HETATM   18  C13 UNK     1      19.443  -1.429  31.919  1.00  0.00     0.210 C 
ENDBRANCH   2  17
BRANCH   4  19
HETATM   19  O2  UNK     1      18.119   0.069  37.870  1.00  0.00    -0.353 OA
HETATM   20  C16 UNK     1      17.682   1.326  38.385  1.00  0.00     0.210 C 
ENDBRANCH   4  19
BRANCH   5  21
HETATM   21  O3  UNK     1      18.732  -2.372  36.692  1.00  0.00    -0.353 OA
HETATM   22  C17 UNK     1      20.069  -2.828  36.886  1.00  0.00     0.210 C 
ENDBRANCH   5  21
TORSDOF 6
ENDMDL
MODEL 5
REMARK VINA RESULT:      -7.3      2.420      7.533
REMARK  6 active torsions:
REMARK  status: ('A' for Active; 'I' for Inactive)
REMARK    1  A    between atoms: C2_6  and  O1_1 
REMARK    2  A    between atoms: C4_8  and  O2_2 
REMARK    3  A    between atoms: C5_9  and  O3_3 
REMARK    4  A    between atoms: C1_5  and  C7_11 
REMARK    5  A    between atoms: C10_14  and  C8_12 
REMARK    6  A    between atoms: C10_14  and  C9_13 
ROOT
HETATM    1  C1  UNK     1      18.658   2.052  31.561  1.00  0.00     0.000 A 
HETATM    2  C2  UNK     1      18.330   1.278  32.664  1.00  0.00     0.081 A 
HETATM    3  C3  UNK     1      19.328   1.507  30.476  1.00  0.00     0.054 A 
HETATM    4  C4  UNK     1      19.678   0.157  30.494  1.00  0.00     0.102 A 
HETATM    5  C5  UNK     1      19.355  -0.632  31.598  1.00  0.00     0.104 A 
HETATM    6  C6  UNK     1      18.681  -0.072  32.683  1.00  0.00     0.077 A 
ENDROOT
BRANCH   1   7
HETATM    7  C7  UNK     1      18.301   3.481  31.518  1.00  0.00     0.018 C 
HETATM    8  C8  UNK     1      19.038   4.431  30.924  1.00  0.00     0.056 C 
BRANCH   8   9
HETATM    9  C10 UNK     1      18.596   5.867  30.946  1.00  0.00     0.182 C 
HETATM   10  O4  UNK     1      18.370   6.473  29.887  1.00  0.00    -0.288 OA
BRANCH   9  11
HETATM   11  C9  UNK     1      18.411   6.520  32.233  1.00  0.00     0.014 A 
HETATM   12  C11 UNK     1      17.124   6.727  32.730  1.00  0.00     0.015 A 
HETATM   13  C14 UNK     1      16.947   7.351  33.966  1.00  0.00     0.001 A 
HETATM   14  C18 UNK     1      18.056   7.768  34.701  1.00  0.00     0.000 A 
HETATM   15  C15 UNK     1      19.342   7.561  34.204  1.00  0.00     0.001 A 
HETATM   16  C12 UNK     1      19.520   6.937  32.968  1.00  0.00     0.015 A 
ENDBRANCH   9  11
ENDBRANCH   8   9
ENDBRANCH   1   7
BRANCH   2  17
HETATM   17  O1  UNK     1      17.672   1.801  33.738  1.00  0.00    -0.355 OA
HETATM   18  C13 UNK     1      17.964   1.236  35.014  1.00  0.00     0.210 C 
ENDBRANCH   2  17
BRANCH   4  19
HETATM   19  O2  UNK     1      20.337  -0.379  29.430  1.00  0.00    -0.353 OA
HETATM   20  C16 UNK     1      19.572  -0.628  28.252  1.00  0.00     0.210 C 
ENDBRANCH   4  19
BRANCH   5  21
HETATM   21  O3  UNK     1      19.690  -1.952  31.628  1.00  0.00    -0.353 OA
HETATM   22  C17 UNK     1      20.868  -2.306  32.349  1.00  0.00     0.210 C 
ENDBRANCH   5  21
TORSDOF 6
ENDMDL
MODEL 6
REMARK VINA RESULT:      -7.3      2.513      7.523
REMARK  6 active torsions:
REMARK  status: ('A' for Active; 'I' for Inactive)
REMARK    1  A    between atoms: C2_6  and  O1_1 
REMARK    2  A    between atoms: C4_8  and  O2_2 
REMARK    3  A    between atoms: C5_9  and  O3_3 
REMARK    4  A    between atoms: C1_5  and  C7_11 
REMARK    5  A    between atoms: C10_14  and  C8_12 
REMARK    6  A    between atoms: C10_14  and  C9_13 
ROOT
HETATM    1  C1  UNK     1      18.287   2.832  31.977  1.00  0.00     0.000 A 
HETATM    2  C2  UNK     1      18.697   2.123  30.858  1.00  0.00     0.081 A 
HETATM    3  C3  UNK     1      18.264   2.243  33.232  1.00  0.00     0.054 A 
HETATM    4  C4  UNK     1      18.661   0.913  33.371  1.00  0.00     0.102 A 
HETATM    5  C5  UNK     1      19.076   0.188  32.254  1.00  0.00     0.104 A 
HETATM    6  C6  UNK     1      19.093   0.793  30.997  1.00  0.00     0.077 A 
ENDROOT
BRANCH   1   7
HETATM    7  C7  UNK     1      17.860   4.238  31.856  1.00  0.00     0.018 C 
HETATM    8  C8  UNK     1      17.839   5.115  32.870  1.00  0.00     0.056 C 
BRANCH   8   9
HETATM    9  C10 UNK     1      17.372   6.527  32.650  1.00  0.00     0.182 C 
HETATM   10  O4  UNK     1      16.340   6.756  32.002  1.00  0.00    -0.288 OA
BRANCH   9  11
HETATM   11  C9  UNK     1      18.139   7.614  33.239  1.00  0.00     0.014 A 
HETATM   12  C11 UNK     1      19.451   7.394  33.659  1.00  0.00     0.015 A 
HETATM   13  C14 UNK     1      20.186   8.438  34.223  1.00  0.00     0.001 A 
HETATM   14  C18 UNK     1      19.609   9.699  34.367  1.00  0.00     0.000 A 
HETATM   15  C15 UNK     1      18.297   9.918  33.947  1.00  0.00     0.001 A 
HETATM   16  C12 UNK     1      17.562   8.875  33.383  1.00  0.00     0.015 A 
ENDBRANCH   9  11
ENDBRANCH   8   9
ENDBRANCH   1   7
BRANCH   2  17
HETATM   17  O1  UNK     1      18.722   2.691  29.618  1.00  0.00    -0.355 OA
HETATM   18  C13 UNK     1      17.953   2.055  28.600  1.00  0.00     0.210 C 
ENDBRANCH   2  17
BRANCH   4  19
HETATM   19  O2  UNK     1      18.639   0.332  34.603  1.00  0.00    -0.353 OA
HETATM   20  C16 UNK     1      18.768   1.198  35.730  1.00  0.00     0.210 C 
ENDBRANCH   4  19
BRANCH   5  21
HETATM   21  O3  UNK     1      19.467  -1.111  32.377  1.00  0.00    -0.353 OA
HETATM   22  C17 UNK     1      20.424  -1.591  31.436  1.00  0.00     0.210 C 
ENDBRANCH   5  21
TORSDOF 6
ENDMDL
MODEL 7
REMARK VINA RESULT:      -7.3      9.176     12.853
REMARK  6 active torsions:
REMARK  status: ('A' for Active; 'I' for Inactive)
REMARK    1  A    between atoms: C2_6  and  O1_1 
REMARK    2  A    between atoms: C4_8  and  O2_2 
REMARK    3  A    between atoms: C5_9  and  O3_3 
REMARK    4  A    between atoms: C1_5  and  C7_11 
REMARK    5  A    between atoms: C10_14  and  C8_12 
REMARK    6  A    between atoms: C10_14  and  C9_13 
ROOT
HETATM    1  C1  UNK     1      19.783  -5.754  37.277  1.00  0.00     0.000 A 
HETATM    2  C2  UNK     1      18.732  -6.653  37.166  1.00  0.00     0.081 A 
HETATM    3  C3  UNK     1      20.858  -6.007  38.116  1.00  0.00     0.054 A 
HETATM    4  C4  UNK     1      20.884  -7.186  38.861  1.00  0.00     0.102 A 
HETATM    5  C5  UNK     1      19.833  -8.098  38.760  1.00  0.00     0.104 A 
HETATM    6  C6  UNK     1      18.757  -7.831  37.912  1.00  0.00     0.077 A 
ENDROOT
BRANCH   1   7
HETATM    7  C7  UNK     1      19.780  -4.501  36.503  1.00  0.00     0.018 C 
HETATM    8  C8  UNK     1      20.176  -3.312  36.979  1.00  0.00     0.056 C 
BRANCH   8   9
HETATM    9  C10 UNK     1      20.122  -2.084  36.113  1.00  0.00     0.182 C 
HETATM   10  O4  UNK     1      21.102  -1.751  35.429  1.00  0.00    -0.288 OA
BRANCH   9  11
HETATM   11  C9  UNK     1      18.888  -1.315  36.071  1.00  0.00     0.014 A 
HETATM   12  C11 UNK     1      18.214  -1.012  37.254  1.00  0.00     0.015 A 
HETATM   13  C14 UNK     1      17.032  -0.273  37.213  1.00  0.00     0.001 A 
HETATM   14  C18 UNK     1      16.523   0.162  35.989  1.00  0.00     0.000 A 
HETATM   15  C15 UNK     1      17.197  -0.142  34.807  1.00  0.00     0.001 A 
HETATM   16  C12 UNK     1      18.380  -0.881  34.847  1.00  0.00     0.015 A 
ENDBRANCH   9  11
ENDBRANCH   8   9
ENDBRANCH   1   7
BRANCH   2  17
HETATM   17  O1  UNK     1      17.668  -6.416  36.347  1.00  0.00    -0.355 OA
HETATM   18  C13 UNK     1      17.363  -7.416  35.378  1.00  0.00     0.210 C 
ENDBRANCH   2  17
BRANCH   4  19
HETATM   19  O2  UNK     1      21.938  -7.435  39.686  1.00  0.00    -0.353 OA
HETATM   20  C16 UNK     1      23.165  -6.769  39.389  1.00  0.00     0.210 C 
ENDBRANCH   4  19
BRANCH   5  21
HETATM   21  O3  UNK     1      19.846  -9.253  39.481  1.00  0.00    -0.353 OA
HETATM   22  C17 UNK     1      19.439 -10.442  38.809  1.00  0.00     0.210 C 
ENDBRANCH   5  21
TORSDOF 6
ENDMDL
MODEL 8
REMARK VINA RESULT:      -6.9     13.579     18.304
REMARK  6 active torsions:
REMARK  status: ('A' for Active; 'I' for Inactive)
REMARK    1  A    between atoms: C2_6  and  O1_1 
REMARK    2  A    between atoms: C4_8  and  O2_2 
REMARK    3  A    between atoms: C5_9  and  O3_3 
REMARK    4  A    between atoms: C1_5  and  C7_11 
REMARK    5  A    between atoms: C10_14  and  C8_12 
REMARK    6  A    between atoms: C10_14  and  C9_13 
ROOT
HETATM    1  C1  UNK     1      18.287  -3.418  14.993  1.00  0.00     0.000 A 
HETATM    2  C2  UNK     1      18.740  -4.030  13.834  1.00  0.00     0.081 A 
HETATM    3  C3  UNK     1      17.534  -4.115  15.926  1.00  0.00     0.054 A 
HETATM    4  C4  UNK     1      17.229  -5.456  15.695  1.00  0.00     0.102 A 
HETATM    5  C5  UNK     1      17.678  -6.084  14.534  1.00  0.00     0.104 A 
HETATM    6  C6  UNK     1      18.434  -5.370  13.603  1.00  0.00     0.077 A 
ENDROOT
BRANCH   1   7
HETATM    7  C7  UNK     1      18.594  -2.001  15.260  1.00  0.00     0.018 C 
HETATM    8  C8  UNK     1      18.753  -1.475  16.483  1.00  0.00     0.056 C 
BRANCH   8   9
HETATM    9  C10 UNK     1      19.051  -0.012  16.654  1.00  0.00     0.182 C 
HETATM   10  O4  UNK     1      19.289   0.702  15.669  1.00  0.00    -0.288 OA
BRANCH   9  11
HETATM   11  C9  UNK     1      19.024   0.552  17.995  1.00  0.00     0.014 A 
HETATM   12  C11 UNK     1      18.953   1.935  18.168  1.00  0.00     0.015 A 
HETATM   13  C14 UNK     1      18.925   2.475  19.455  1.00  0.00     0.001 A 
HETATM   14  C18 UNK     1      18.968   1.633  20.565  1.00  0.00     0.000 A 
HETATM   15  C15 UNK     1      19.038   0.251  20.392  1.00  0.00     0.001 A 
HETATM   16  C12 UNK     1      19.066  -0.290  19.106  1.00  0.00     0.015 A 
ENDBRANCH   9  11
ENDBRANCH   8   9
ENDBRANCH   1   7
BRANCH   2  17
HETATM   17  O1  UNK     1      19.480  -3.355  12.908  1.00  0.00    -0.355 OA
HETATM   18  C13 UNK     1      19.851  -4.070  11.732  1.00  0.00     0.210 C 
ENDBRANCH   2  17
BRANCH   4  19
HETATM   19  O2  UNK     1      16.489  -6.143  16.610  1.00  0.00    -0.353 OA
HETATM   20  C16 UNK     1      15.609  -5.381  17.435  1.00  0.00     0.210 C 
ENDBRANCH   4  19
BRANCH   5  21
HETATM   21  O3  UNK     1      17.387  -7.394  14.297  1.00  0.00    -0.353 OA
HETATM   22  C17 UNK     1      16.982  -7.739  12.974  1.00  0.00     0.210 C 
ENDBRANCH   5  21
TORSDOF 6
ENDMDL
MODEL 9
REMARK VINA RESULT:      -6.8     13.643     18.294
REMARK  6 active torsions:
REMARK  status: ('A' for Active; 'I' for Inactive)
REMARK    1  A    between atoms: C2_6  and  O1_1 
REMARK    2  A    between atoms: C4_8  and  O2_2 
REMARK    3  A    between atoms: C5_9  and  O3_3 
REMARK    4  A    between atoms: C1_5  and  C7_11 
REMARK    5  A    between atoms: C10_14  and  C8_12 
REMARK    6  A    between atoms: C10_14  and  C9_13 
ROOT
HETATM    1  C1  UNK     1      19.045  -2.806  15.460  1.00  0.00     0.000 A 
HETATM    2  C2  UNK     1      19.593  -2.500  14.224  1.00  0.00     0.081 A 
HETATM    3  C3  UNK     1      18.257  -3.933  15.637  1.00  0.00     0.054 A 
HETATM    4  C4  UNK     1      18.012  -4.775  14.552  1.00  0.00     0.102 A 
HETATM    5  C5  UNK     1      18.556  -4.478  13.303  1.00  0.00     0.104 A 
HETATM    6  C6  UNK     1      19.346  -3.340  13.139  1.00  0.00     0.077 A 
ENDROOT
BRANCH   1   7
HETATM    7  C7  UNK     1      19.287  -1.932  16.622  1.00  0.00     0.018 C 
HETATM    8  C8  UNK     1      18.361  -1.146  17.188  1.00  0.00     0.056 C 
BRANCH   8   9
HETATM    9  C10 UNK     1      18.709  -0.277  18.365  1.00  0.00     0.182 C 
HETATM   10  O4  UNK     1      18.703  -0.742  19.515  1.00  0.00    -0.288 OA
BRANCH   9  11
HETATM   11  C9  UNK     1      19.084   1.107  18.122  1.00  0.00     0.014 A 
HETATM   12  C11 UNK     1      19.394   1.944  19.194  1.00  0.00     0.015 A 
HETATM   13  C14 UNK     1      19.754   3.272  18.960  1.00  0.00     0.001 A 
HETATM   14  C18 UNK     1      19.805   3.761  17.655  1.00  0.00     0.000 A 
HETATM   15  C15 UNK     1      19.495   2.924  16.584  1.00  0.00     0.001 A 
HETATM   16  C12 UNK     1      19.134   1.596  16.817  1.00  0.00     0.015 A 
ENDBRANCH   9  11
ENDBRANCH   8   9
ENDBRANCH   1   7
BRANCH   2  17
HETATM   17  O1  UNK     1      20.368  -1.393  14.036  1.00  0.00    -0.355 OA
HETATM   18  C13 UNK     1      21.048  -1.285  12.788  1.00  0.00     0.210 C 
ENDBRANCH   2  17
BRANCH   4  19
HETATM   19  O2  UNK     1      17.238  -5.882  14.724  1.00  0.00    -0.353 OA
HETATM   20  C16 UNK     1      17.098  -6.375  16.056  1.00  0.00     0.210 C 
ENDBRANCH   4  19
BRANCH   5  21
HETATM   21  O3  UNK     1      18.325  -5.293  12.236  1.00  0.00    -0.353 OA
HETATM   22  C17 UNK     1      19.374  -6.182  11.859  1.00  0.00     0.210 C 
ENDBRANCH   5  21
TORSDOF 6
ENDMDL
MODEL 10
REMARK VINA RESULT:      -6.8     22.476     24.310
REMARK  6 active torsions:
REMARK  status: ('A' for Active; 'I' for Inactive)
REMARK    1  A    between atoms: C2_6  and  O1_1 
REMARK    2  A    between atoms: C4_8  and  O2_2 
REMARK    3  A    between atoms: C5_9  and  O3_3 
REMARK    4  A    between atoms: C1_5  and  C7_11 
REMARK    5  A    between atoms: C10_14  and  C8_12 
REMARK    6  A    between atoms: C10_14  and  C9_13 
ROOT
HETATM    1  C1  UNK     1      15.187   9.456   9.205  1.00  0.00     0.000 A 
HETATM    2  C2  UNK     1      16.411   9.290   9.835  1.00  0.00     0.081 A 
HETATM    3  C3  UNK     1      14.984  10.476   8.287  1.00  0.00     0.054 A 
HETATM    4  C4  UNK     1      16.030  11.351   7.994  1.00  0.00     0.102 A 
HETATM    5  C5  UNK     1      17.266  11.195   8.621  1.00  0.00     0.104 A 
HETATM    6  C6  UNK     1      17.456  10.165   9.542  1.00  0.00     0.077 A 
ENDROOT
BRANCH   1   7
HETATM    7  C7  UNK     1      14.065   8.546   9.498  1.00  0.00     0.018 C 
HETATM    8  C8  UNK     1      13.697   7.517   8.722  1.00  0.00     0.056 C 
BRANCH   8   9
HETATM    9  C10 UNK     1      12.527   6.653   9.100  1.00  0.00     0.182 C 
HETATM   10  O4  UNK     1      12.466   6.131  10.224  1.00  0.00    -0.288 OA
BRANCH   9  11
HETATM   11  C9  UNK     1      11.456   6.468   8.133  1.00  0.00     0.014 A 
HETATM   12  C11 UNK     1      11.751   6.396   6.772  1.00  0.00     0.015 A 
HETATM   13  C14 UNK     1      10.723   6.217   5.845  1.00  0.00     0.001 A 
HETATM   14  C18 UNK     1       9.402   6.112   6.280  1.00  0.00     0.000 A 
HETATM   15  C15 UNK     1       9.108   6.185   7.641  1.00  0.00     0.001 A 
HETATM   16  C12 UNK     1      10.135   6.363   8.568  1.00  0.00     0.015 A 
ENDBRANCH   9  11
ENDBRANCH   8   9
ENDBRANCH   1   7
BRANCH   2  17
HETATM   17  O1  UNK     1      16.622   8.292  10.740  1.00  0.00    -0.355 OA
HETATM   18  C13 UNK     1      17.414   7.187  10.310  1.00  0.00     0.210 C 
ENDBRANCH   2  17
BRANCH   4  19
HETATM   19  O2  UNK     1      15.833  12.354   7.094  1.00  0.00    -0.353 OA
HETATM   20  C16 UNK     1      15.108  13.497   7.546  1.00  0.00     0.210 C 
ENDBRANCH   4  19
BRANCH   5  21
HETATM   21  O3  UNK     1      18.296  12.043   8.342  1.00  0.00    -0.353 OA
HETATM   22  C17 UNK     1      19.313  11.561   7.467  1.00  0.00     0.210 C 
ENDBRANCH   5  21
TORSDOF 6
ENDMDL
