MODEL 1
REMARK VINA RESULT:      -9.7      0.000      0.000
REMARK  4 active torsions:
REMARK  status: ('A' for Active; 'I' for Inactive)
REMARK    1  A    between atoms: C5_10  and  N1_4 
REMARK    2  A    between atoms: C6_11  and  N2_5 
REMARK    3  A    between atoms: C5_10  and  C7_12 
REMARK    4  A    between atoms: C6_11  and  C8_13 
ROOT
HETATM    1  N1  UNK     1      18.113   5.276  31.470  1.00  0.00     0.096 N 
HETATM    2  N2  UNK     1      18.938   2.857  30.116  1.00  0.00     0.096 N 
HETATM    3  C1  UNK     1      19.144   5.301  30.425  1.00  0.00     0.303 C 
HETATM    4  C2  UNK     1      18.113   3.979  32.158  1.00  0.00     0.303 C 
HETATM    5  C3  UNK     1      18.940   4.155  29.428  1.00  0.00     0.303 C 
HETATM    6  C4  UNK     1      17.908   2.833  31.162  1.00  0.00     0.303 C 
ENDROOT
BRANCH   1   7
HETATM    7  C5  UNK     1      18.310   6.368  32.421  1.00  0.00     0.312 C 
BRANCH   7   8
HETATM    8  C7  UNK     1      17.075   7.182  32.605  1.00  0.00    -0.011 A 
HETATM    9  C10 UNK     1      15.871   6.702  32.263  1.00  0.00     0.092 A 
HETATM   10  C15 UNK     1      14.624   7.468  32.427  1.00  0.00     0.288 A 
HETATM   11  O1  UNK     1      14.742   8.741  32.962  1.00  0.00    -0.275 OA
HETATM   12  O2  UNK     1      13.540   6.996  32.104  1.00  0.00    -0.260 OA
HETATM   13  C11 UNK     1      15.995   9.273  33.330  1.00  0.00     0.090 A 
HETATM   14  C9  UNK     1      17.168   8.534  33.169  1.00  0.00     0.006 A 
HETATM   15  C16 UNK     1      15.993  10.565  33.858  1.00  0.00     0.045 A 
HETATM   16  C14 UNK     1      18.372   9.135  33.560  1.00  0.00     0.015 A 
HETATM   17  C18 UNK     1      18.387  10.430  34.091  1.00  0.00     0.007 A 
HETATM   18  C17 UNK     1      17.199  11.143  34.240  1.00  0.00    -0.059 A 
HETATM   19  C22 UNK     1      17.223  12.522  34.808  1.00  0.00     0.048 C 
ENDBRANCH   7   8
ENDBRANCH   1   7
BRANCH   2  20
HETATM   20  C6  UNK     1      18.739   1.766  29.164  1.00  0.00     0.314 C 
BRANCH  20  21
HETATM   21  C8  UNK     1      19.444   0.512  29.594  1.00  0.00     0.009 A 
HETATM   22  C12 UNK     1      19.563  -0.562  28.712  1.00  0.00     0.124 A 
HETATM   23  F1  UNK     1      19.049  -0.485  27.477  1.00  0.00    -0.205 F 
HETATM   24  C19 UNK     1      20.219  -1.725  29.113  1.00  0.00     0.043 A 
HETATM   25  C21 UNK     1      20.755  -1.816  30.398  1.00  0.00     0.003 A 
HETATM   26  C20 UNK     1      20.637  -0.742  31.280  1.00  0.00     0.001 A 
HETATM   27  C13 UNK     1      19.981   0.422  30.878  1.00  0.00     0.012 A 
ENDBRANCH  20  21
ENDBRANCH   2  20
TORSDOF 4
ENDMDL
MODEL 2
REMARK VINA RESULT:      -9.2     16.450     17.832
REMARK  4 active torsions:
REMARK  status: ('A' for Active; 'I' for Inactive)
REMARK    1  A    between atoms: C5_10  and  N1_4 
REMARK    2  A    between atoms: C6_11  and  N2_5 
REMARK    3  A    between atoms: C5_10  and  C7_12 
REMARK    4  A    between atoms: C6_11  and  C8_13 
ROOT
HETATM    1  N1  UNK     1      30.191  -6.269  34.861  1.00  0.00     0.096 N 
HETATM    2  N2  UNK     1      29.716  -6.677  32.037  1.00  0.00     0.096 N 
HETATM    3  C1  UNK     1      31.050  -5.646  33.845  1.00  0.00     0.303 C 
HETATM    4  C2  UNK     1      29.633  -7.529  34.356  1.00  0.00     0.303 C 
HETATM    5  C3  UNK     1      30.276  -5.417  32.542  1.00  0.00     0.303 C 
HETATM    6  C4  UNK     1      28.859  -7.300  33.053  1.00  0.00     0.303 C 
ENDROOT
BRANCH   1   7
HETATM    7  C5  UNK     1      30.930  -6.488  36.102  1.00  0.00     0.312 C 
BRANCH   7   8
HETATM    8  C7  UNK     1      30.108  -6.183  37.307  1.00  0.00    -0.011 A 
HETATM    9  C10 UNK     1      30.066  -4.945  37.821  1.00  0.00     0.092 A 
HETATM   10  C15 UNK     1      29.269  -4.596  39.009  1.00  0.00     0.288 A 
HETATM   11  O1  UNK     1      28.543  -5.621  39.594  1.00  0.00    -0.275 OA
HETATM   12  O2  UNK     1      29.254  -3.453  39.451  1.00  0.00    -0.260 OA
HETATM   13  C11 UNK     1      28.568  -6.932  39.076  1.00  0.00     0.090 A 
HETATM   14  C9  UNK     1      29.328  -7.248  37.950  1.00  0.00     0.006 A 
HETATM   15  C16 UNK     1      27.798  -7.883  39.748  1.00  0.00     0.045 A 
HETATM   16  C14 UNK     1      29.299  -8.574  37.498  1.00  0.00     0.015 A 
HETATM   17  C18 UNK     1      28.531  -9.539  38.160  1.00  0.00     0.007 A 
HETATM   18  C17 UNK     1      27.782  -9.194  39.283  1.00  0.00    -0.059 A 
HETATM   19  C22 UNK     1      26.966 -10.227  39.983  1.00  0.00     0.048 C 
ENDBRANCH   7   8
ENDBRANCH   1   7
BRANCH   2  20
HETATM   20  C6  UNK     1      28.976  -6.456  30.797  1.00  0.00     0.314 C 
BRANCH  20  21
HETATM   21  C8  UNK     1      29.042  -7.647  29.884  1.00  0.00     0.009 A 
HETATM   22  C12 UNK     1      27.951  -8.510  29.780  1.00  0.00     0.124 A 
HETATM   23  F1  UNK     1      26.838  -8.286  30.492  1.00  0.00    -0.205 F 
HETATM   24  C19 UNK     1      28.014  -9.614  28.931  1.00  0.00     0.043 A 
HETATM   25  C21 UNK     1      29.170  -9.857  28.186  1.00  0.00     0.003 A 
HETATM   26  C20 UNK     1      30.260  -8.993  28.291  1.00  0.00     0.001 A 
HETATM   27  C13 UNK     1      30.196  -7.889  29.140  1.00  0.00     0.012 A 
ENDBRANCH  20  21
ENDBRANCH   2  20
TORSDOF 4
ENDMDL
MODEL 3
REMARK VINA RESULT:      -9.2      8.296     11.512
REMARK  4 active torsions:
REMARK  status: ('A' for Active; 'I' for Inactive)
REMARK    1  A    between atoms: C5_10  and  N1_4 
REMARK    2  A    between atoms: C6_11  and  N2_5 
REMARK    3  A    between atoms: C5_10  and  C7_12 
REMARK    4  A    between atoms: C6_11  and  C8_13 
ROOT
HETATM    1  N1  UNK     1      19.987  -3.696  36.878  1.00  0.00     0.096 N 
HETATM    2  N2  UNK     1      20.211  -6.576  37.011  1.00  0.00     0.096 N 
HETATM    3  C1  UNK     1      19.573  -4.545  35.754  1.00  0.00     0.303 C 
HETATM    4  C2  UNK     1      21.063  -4.343  37.640  1.00  0.00     0.303 C 
HETATM    5  C3  UNK     1      19.136  -5.929  36.248  1.00  0.00     0.303 C 
HETATM    6  C4  UNK     1      20.625  -5.726  38.134  1.00  0.00     0.303 C 
ENDROOT
BRANCH   1   7
HETATM    7  C5  UNK     1      20.406  -2.378  36.406  1.00  0.00     0.312 C 
BRANCH   7   8
HETATM    8  C7  UNK     1      19.425  -1.785  35.453  1.00  0.00    -0.011 A 
HETATM    9  C10 UNK     1      18.292  -1.216  35.889  1.00  0.00     0.092 A 
HETATM   10  C15 UNK     1      17.295  -0.618  34.986  1.00  0.00     0.288 A 
HETATM   11  O1  UNK     1      17.576  -0.664  33.630  1.00  0.00    -0.275 OA
HETATM   12  O2  UNK     1      16.270  -0.106  35.421  1.00  0.00    -0.260 OA
HETATM   13  C11 UNK     1      18.759  -1.256  33.142  1.00  0.00     0.090 A 
HETATM   14  C9  UNK     1      19.695  -1.819  34.010  1.00  0.00     0.006 A 
HETATM   15  C16 UNK     1      18.936  -1.245  31.758  1.00  0.00     0.045 A 
HETATM   16  C14 UNK     1      20.845  -2.387  33.445  1.00  0.00     0.015 A 
HETATM   17  C18 UNK     1      21.037  -2.384  32.059  1.00  0.00     0.007 A 
HETATM   18  C17 UNK     1      20.084  -1.814  31.217  1.00  0.00    -0.059 A 
HETATM   19  C22 UNK     1      20.297  -1.814  29.741  1.00  0.00     0.048 C 
ENDBRANCH   7   8
ENDBRANCH   1   7
BRANCH   2  20
HETATM   20  C6  UNK     1      19.790  -7.894  37.483  1.00  0.00     0.314 C 
BRANCH  20  21
HETATM   21  C8  UNK     1      20.539  -9.001  36.799  1.00  0.00     0.009 A 
HETATM   22  C12 UNK     1      20.731 -10.221  37.446  1.00  0.00     0.124 A 
HETATM   23  F1  UNK     1      20.252 -10.417  38.682  1.00  0.00    -0.205 F 
HETATM   24  C19 UNK     1      21.427 -11.248  36.808  1.00  0.00     0.043 A 
HETATM   25  C21 UNK     1      21.932 -11.053  35.521  1.00  0.00     0.003 A 
HETATM   26  C20 UNK     1      21.740  -9.833  34.875  1.00  0.00     0.001 A 
HETATM   27  C13 UNK     1      21.044  -8.807  35.513  1.00  0.00     0.012 A 
ENDBRANCH  20  21
ENDBRANCH   2  20
TORSDOF 4
ENDMDL
MODEL 4
REMARK VINA RESULT:      -9.0      8.233     11.073
REMARK  4 active torsions:
REMARK  status: ('A' for Active; 'I' for Inactive)
REMARK    1  A    between atoms: C5_10  and  N1_4 
REMARK    2  A    between atoms: C6_11  and  N2_5 
REMARK    3  A    between atoms: C5_10  and  C7_12 
REMARK    4  A    between atoms: C6_11  and  C8_13 
ROOT
HETATM    1  N1  UNK     1      20.156  -3.620  36.723  1.00  0.00     0.096 N 
HETATM    2  N2  UNK     1      20.360  -6.490  37.016  1.00  0.00     0.096 N 
HETATM    3  C1  UNK     1      19.780  -4.526  35.631  1.00  0.00     0.303 C 
HETATM    4  C2  UNK     1      21.199  -4.229  37.558  1.00  0.00     0.303 C 
HETATM    5  C3  UNK     1      19.318  -5.881  36.180  1.00  0.00     0.303 C 
HETATM    6  C4  UNK     1      20.736  -5.583  38.107  1.00  0.00     0.303 C 
ENDROOT
BRANCH   1   7
HETATM    7  C5  UNK     1      20.599  -2.330  36.198  1.00  0.00     0.312 C 
BRANCH   7   8
HETATM    8  C7  UNK     1      19.650  -1.778  35.191  1.00  0.00    -0.011 A 
HETATM    9  C10 UNK     1      19.864  -1.937  33.877  1.00  0.00     0.092 A 
HETATM   10  C15 UNK     1      18.954  -1.410  32.845  1.00  0.00     0.288 A 
HETATM   11  O1  UNK     1      17.837  -0.723  33.292  1.00  0.00    -0.275 OA
HETATM   12  O2  UNK     1      19.182  -1.575  31.652  1.00  0.00    -0.260 OA
HETATM   13  C11 UNK     1      17.586  -0.540  34.667  1.00  0.00     0.090 A 
HETATM   14  C9  UNK     1      18.457  -1.045  35.634  1.00  0.00     0.006 A 
HETATM   15  C16 UNK     1      16.430   0.168  35.001  1.00  0.00     0.045 A 
HETATM   16  C14 UNK     1      18.135  -0.820  36.979  1.00  0.00     0.015 A 
HETATM   17  C18 UNK     1      16.980  -0.113  37.330  1.00  0.00     0.007 A 
HETATM   18  C17 UNK     1      16.129   0.381  36.343  1.00  0.00    -0.059 A 
HETATM   19  C22 UNK     1      14.899   1.133  36.724  1.00  0.00     0.048 C 
ENDBRANCH   7   8
ENDBRANCH   1   7
BRANCH   2  20
HETATM   20  C6  UNK     1      19.915  -7.779  37.542  1.00  0.00     0.314 C 
BRANCH  20  21
HETATM   21  C8  UNK     1      20.588  -8.929  36.850  1.00  0.00     0.009 A 
HETATM   22  C12 UNK     1      20.687 -10.168  37.483  1.00  0.00     0.124 A 
HETATM   23  F1  UNK     1      20.184 -10.342  38.713  1.00  0.00    -0.205 F 
HETATM   24  C19 UNK     1      21.311 -11.234  36.838  1.00  0.00     0.043 A 
HETATM   25  C21 UNK     1      21.839 -11.062  35.558  1.00  0.00     0.003 A 
HETATM   26  C20 UNK     1      21.741  -9.823  34.924  1.00  0.00     0.001 A 
HETATM   27  C13 UNK     1      21.116  -8.757  35.570  1.00  0.00     0.012 A 
ENDBRANCH  20  21
ENDBRANCH   2  20
TORSDOF 4
ENDMDL
MODEL 5
REMARK VINA RESULT:      -9.0     16.019     18.137
REMARK  4 active torsions:
REMARK  status: ('A' for Active; 'I' for Inactive)
REMARK    1  A    between atoms: C5_10  and  N1_4 
REMARK    2  A    between atoms: C6_11  and  N2_5 
REMARK    3  A    between atoms: C5_10  and  C7_12 
REMARK    4  A    between atoms: C6_11  and  C8_13 
ROOT
HETATM    1  N1  UNK     1      31.982  -6.224  35.897  1.00  0.00     0.096 N 
HETATM    2  N2  UNK     1      31.144  -6.883  33.209  1.00  0.00     0.096 N 
HETATM    3  C1  UNK     1      32.713  -7.209  35.091  1.00  0.00     0.303 C 
HETATM    4  C2  UNK     1      30.565  -6.197  35.512  1.00  0.00     0.303 C 
HETATM    5  C3  UNK     1      32.560  -6.912  33.595  1.00  0.00     0.303 C 
HETATM    6  C4  UNK     1      30.413  -5.899  34.016  1.00  0.00     0.303 C 
ENDROOT
BRANCH   1   7
HETATM    7  C5  UNK     1      32.126  -6.510  37.323  1.00  0.00     0.312 C 
BRANCH   7   8
HETATM    8  C7  UNK     1      30.899  -6.163  38.092  1.00  0.00    -0.011 A 
HETATM    9  C10 UNK     1      30.657  -4.903  38.481  1.00  0.00     0.092 A 
HETATM   10  C15 UNK     1      29.458  -4.512  39.242  1.00  0.00     0.288 A 
HETATM   11  O1  UNK     1      28.562  -5.523  39.553  1.00  0.00    -0.275 OA
HETATM   12  O2  UNK     1      29.270  -3.349  39.580  1.00  0.00    -0.260 OA
HETATM   13  C11 UNK     1      28.789  -6.857  39.159  1.00  0.00     0.090 A 
HETATM   14  C9  UNK     1      29.930  -7.211  38.437  1.00  0.00     0.006 A 
HETATM   15  C16 UNK     1      27.820  -7.790  39.528  1.00  0.00     0.045 A 
HETATM   16  C14 UNK     1      30.082  -8.559  38.084  1.00  0.00     0.015 A 
HETATM   17  C18 UNK     1      29.118  -9.507  38.446  1.00  0.00     0.007 A 
HETATM   18  C17 UNK     1      27.989  -9.123  39.167  1.00  0.00    -0.059 A 
HETATM   19  C22 UNK     1      26.966 -10.138  39.548  1.00  0.00     0.048 C 
ENDBRANCH   7   8
ENDBRANCH   1   7
BRANCH   2  20
HETATM   20  C6  UNK     1      31.001  -6.596  31.783  1.00  0.00     0.314 C 
BRANCH  20  21
HETATM   21  C8  UNK     1      29.634  -6.952  31.274  1.00  0.00     0.009 A 
HETATM   22  C12 UNK     1      28.828  -5.976  30.688  1.00  0.00     0.124 A 
HETATM   23  F1  UNK     1      29.264  -4.713  30.577  1.00  0.00    -0.205 F 
HETATM   24  C19 UNK     1      27.559  -6.309  30.215  1.00  0.00     0.043 A 
HETATM   25  C21 UNK     1      27.095  -7.620  30.328  1.00  0.00     0.003 A 
HETATM   26  C20 UNK     1      27.901  -8.597  30.914  1.00  0.00     0.001 A 
HETATM   27  C13 UNK     1      29.170  -8.263  31.386  1.00  0.00     0.012 A 
ENDBRANCH  20  21
ENDBRANCH   2  20
TORSDOF 4
ENDMDL
MODEL 6
REMARK VINA RESULT:      -8.9      4.177      9.431
REMARK  4 active torsions:
REMARK  status: ('A' for Active; 'I' for Inactive)
REMARK    1  A    between atoms: C5_10  and  N1_4 
REMARK    2  A    between atoms: C6_11  and  N2_5 
REMARK    3  A    between atoms: C5_10  and  C7_12 
REMARK    4  A    between atoms: C6_11  and  C8_13 
ROOT
HETATM    1  N1  UNK     1      18.832   3.704  31.491  1.00  0.00     0.096 N 
HETATM    2  N2  UNK     1      19.205   6.313  32.681  1.00  0.00     0.096 N 
HETATM    3  C1  UNK     1      19.265   4.853  30.687  1.00  0.00     0.303 C 
HETATM    4  C2  UNK     1      18.009   4.150  32.622  1.00  0.00     0.303 C 
HETATM    5  C3  UNK     1      20.027   5.867  31.549  1.00  0.00     0.303 C 
HETATM    6  C4  UNK     1      18.771   5.163  33.484  1.00  0.00     0.303 C 
ENDROOT
BRANCH   1   7
HETATM    7  C5  UNK     1      18.104   2.739  30.669  1.00  0.00     0.312 C 
BRANCH   7   8
HETATM    8  C7  UNK     1      18.812   1.431  30.578  1.00  0.00    -0.011 A 
HETATM    9  C10 UNK     1      19.373   1.025  29.430  1.00  0.00     0.092 A 
HETATM   10  C15 UNK     1      20.083  -0.258  29.293  1.00  0.00     0.288 A 
HETATM   11  O1  UNK     1      20.153  -1.055  30.424  1.00  0.00    -0.275 OA
HETATM   12  O2  UNK     1      20.584  -0.596  28.226  1.00  0.00    -0.260 OA
HETATM   13  C11 UNK     1      19.572  -0.655  31.645  1.00  0.00     0.090 A 
HETATM   14  C9  UNK     1      18.903   0.564  31.760  1.00  0.00     0.006 A 
HETATM   15  C16 UNK     1      19.704  -1.538  32.718  1.00  0.00     0.045 A 
HETATM   16  C14 UNK     1      18.354   0.888  33.008  1.00  0.00     0.015 A 
HETATM   17  C18 UNK     1      18.479   0.013  34.093  1.00  0.00     0.007 A 
HETATM   18  C17 UNK     1      19.153  -1.198  33.948  1.00  0.00    -0.059 A 
HETATM   19  C22 UNK     1      19.282  -2.125  35.109  1.00  0.00     0.048 C 
ENDBRANCH   7   8
ENDBRANCH   1   7
BRANCH   2  20
HETATM   20  C6  UNK     1      19.935   7.276  33.503  1.00  0.00     0.314 C 
BRANCH  20  21
HETATM   21  C8  UNK     1      19.148   8.536  33.722  1.00  0.00     0.009 A 
HETATM   22  C12 UNK     1      19.782   9.686  34.192  1.00  0.00     0.124 A 
HETATM   23  F1  UNK     1      21.097   9.677  34.452  1.00  0.00    -0.205 F 
HETATM   24  C19 UNK     1      19.049  10.855  34.394  1.00  0.00     0.043 A 
HETATM   25  C21 UNK     1      17.679  10.873  34.128  1.00  0.00     0.003 A 
HETATM   26  C20 UNK     1      17.045   9.724  33.658  1.00  0.00     0.001 A 
HETATM   27  C13 UNK     1      17.779   8.555  33.455  1.00  0.00     0.012 A 
ENDBRANCH  20  21
ENDBRANCH   2  20
TORSDOF 4
ENDMDL
MODEL 7
REMARK VINA RESULT:      -8.8     17.453     19.704
REMARK  4 active torsions:
REMARK  status: ('A' for Active; 'I' for Inactive)
REMARK    1  A    between atoms: C5_10  and  N1_4 
REMARK    2  A    between atoms: C6_11  and  N2_5 
REMARK    3  A    between atoms: C5_10  and  C7_12 
REMARK    4  A    between atoms: C6_11  and  C8_13 
ROOT
HETATM    1  N1  UNK     1      31.467  -5.905  35.554  1.00  0.00     0.096 N 
HETATM    2  N2  UNK     1      33.927  -6.115  34.049  1.00  0.00     0.096 N 
HETATM    3  C1  UNK     1      31.945  -7.199  35.053  1.00  0.00     0.303 C 
HETATM    4  C2  UNK     1      31.920  -4.817  34.678  1.00  0.00     0.303 C 
HETATM    5  C3  UNK     1      33.472  -7.204  34.923  1.00  0.00     0.303 C 
HETATM    6  C4  UNK     1      33.448  -4.822  34.550  1.00  0.00     0.303 C 
ENDROOT
BRANCH   1   7
HETATM    7  C5  UNK     1      30.011  -5.901  35.674  1.00  0.00     0.312 C 
BRANCH   7   8
HETATM    8  C7  UNK     1      29.565  -5.809  37.093  1.00  0.00    -0.011 A 
HETATM    9  C10 UNK     1      29.758  -4.693  37.810  1.00  0.00     0.092 A 
HETATM   10  C15 UNK     1      29.335  -4.555  39.214  1.00  0.00     0.288 A 
HETATM   11  O1  UNK     1      28.711  -5.653  39.786  1.00  0.00    -0.275 OA
HETATM   12  O2  UNK     1      29.529  -3.518  39.838  1.00  0.00    -0.260 OA
HETATM   13  C11 UNK     1      28.494  -6.840  39.058  1.00  0.00     0.090 A 
HETATM   14  C9  UNK     1      28.901  -6.955  37.728  1.00  0.00     0.006 A 
HETATM   15  C16 UNK     1      27.857  -7.881  39.736  1.00  0.00     0.045 A 
HETATM   16  C14 UNK     1      28.648  -8.169  37.074  1.00  0.00     0.015 A 
HETATM   17  C18 UNK     1      28.010  -9.221  37.741  1.00  0.00     0.007 A 
HETATM   18  C17 UNK     1      27.615  -9.077  39.069  1.00  0.00    -0.059 A 
HETATM   19  C22 UNK     1      26.935 -10.202  39.772  1.00  0.00     0.048 C 
ENDBRANCH   7   8
ENDBRANCH   1   7
BRANCH   2  20
HETATM   20  C6  UNK     1      35.384  -6.120  33.931  1.00  0.00     0.314 C 
BRANCH  20  21
HETATM   21  C8  UNK     1      35.883  -7.329  33.193  1.00  0.00     0.009 A 
HETATM   22  C12 UNK     1      36.881  -8.127  33.750  1.00  0.00     0.124 A 
HETATM   23  F1  UNK     1      37.404  -7.823  34.946  1.00  0.00    -0.205 F 
HETATM   24  C19 UNK     1      37.342  -9.250  33.063  1.00  0.00     0.043 A 
HETATM   25  C21 UNK     1      36.805  -9.574  31.817  1.00  0.00     0.003 A 
HETATM   26  C20 UNK     1      35.807  -8.775  31.259  1.00  0.00     0.001 A 
HETATM   27  C13 UNK     1      35.346  -7.653  31.947  1.00  0.00     0.012 A 
ENDBRANCH  20  21
ENDBRANCH   2  20
TORSDOF 4
ENDMDL
MODEL 8
REMARK VINA RESULT:      -8.6     17.016     18.052
REMARK  4 active torsions:
REMARK  status: ('A' for Active; 'I' for Inactive)
REMARK    1  A    between atoms: C5_10  and  N1_4 
REMARK    2  A    between atoms: C6_11  and  N2_5 
REMARK    3  A    between atoms: C5_10  and  C7_12 
REMARK    4  A    between atoms: C6_11  and  C8_13 
ROOT
HETATM    1  N1  UNK     1      32.262  -6.333  33.663  1.00  0.00     0.096 N 
HETATM    2  N2  UNK     1      31.011  -7.123  31.178  1.00  0.00     0.096 N 
HETATM    3  C1  UNK     1      32.803  -7.432  32.854  1.00  0.00     0.303 C 
HETATM    4  C2  UNK     1      30.811  -6.220  33.470  1.00  0.00     0.303 C 
HETATM    5  C3  UNK     1      32.462  -7.238  31.371  1.00  0.00     0.303 C 
HETATM    6  C4  UNK     1      30.471  -6.025  31.989  1.00  0.00     0.303 C 
ENDROOT
BRANCH   1   7
HETATM    7  C5  UNK     1      32.585  -6.521  35.075  1.00  0.00     0.312 C 
BRANCH   7   8
HETATM    8  C7  UNK     1      31.888  -5.533  35.947  1.00  0.00    -0.011 A 
HETATM    9  C10 UNK     1      32.182  -4.226  35.887  1.00  0.00     0.092 A 
HETATM   10  C15 UNK     1      31.521  -3.214  36.727  1.00  0.00     0.288 A 
HETATM   11  O1  UNK     1      30.555  -3.672  37.609  1.00  0.00    -0.275 OA
HETATM   12  O2  UNK     1      31.816  -2.027  36.644  1.00  0.00    -0.260 OA
HETATM   13  C11 UNK     1      30.225  -5.040  37.695  1.00  0.00     0.090 A 
HETATM   14  C9  UNK     1      30.860  -5.988  36.892  1.00  0.00     0.006 A 
HETATM   15  C16 UNK     1      29.238  -5.386  38.620  1.00  0.00     0.045 A 
HETATM   16  C14 UNK     1      30.475  -7.327  37.039  1.00  0.00     0.015 A 
HETATM   17  C18 UNK     1      29.486  -7.690  37.961  1.00  0.00     0.007 A 
HETATM   18  C17 UNK     1      28.869  -6.721  38.750  1.00  0.00    -0.059 A 
HETATM   19  C22 UNK     1      27.816  -7.116  39.729  1.00  0.00     0.048 C 
ENDBRANCH   7   8
ENDBRANCH   1   7
BRANCH   2  20
HETATM   20  C6  UNK     1      30.690  -6.934  29.765  1.00  0.00     0.314 C 
BRANCH  20  21
HETATM   21  C8  UNK     1      29.915  -8.092  29.206  1.00  0.00     0.009 A 
HETATM   22  C12 UNK     1      30.506  -8.948  28.277  1.00  0.00     0.124 A 
HETATM   23  F1  UNK     1      31.768  -8.745  27.875  1.00  0.00    -0.205 F 
HETATM   24  C19 UNK     1      29.784 -10.024  27.761  1.00  0.00     0.043 A 
HETATM   25  C21 UNK     1      28.469 -10.242  28.172  1.00  0.00     0.003 A 
HETATM   26  C20 UNK     1      27.877  -9.386  29.101  1.00  0.00     0.001 A 
HETATM   27  C13 UNK     1      28.600  -8.311  29.618  1.00  0.00     0.012 A 
ENDBRANCH  20  21
ENDBRANCH   2  20
TORSDOF 4
ENDMDL
MODEL 9
REMARK VINA RESULT:      -8.6     22.199     24.146
REMARK  4 active torsions:
REMARK  status: ('A' for Active; 'I' for Inactive)
REMARK    1  A    between atoms: C5_10  and  N1_4 
REMARK    2  A    between atoms: C6_11  and  N2_5 
REMARK    3  A    between atoms: C5_10  and  C7_12 
REMARK    4  A    between atoms: C6_11  and  C8_13 
ROOT
HETATM    1  N1  UNK     1      11.793   6.229   7.366  1.00  0.00     0.096 N 
HETATM    2  N2  UNK     1       9.025   6.181   8.202  1.00  0.00     0.096 N 
HETATM    3  C1  UNK     1      11.418   6.432   8.770  1.00  0.00     0.303 C 
HETATM    4  C2  UNK     1      10.720   6.691   6.476  1.00  0.00     0.303 C 
HETATM    5  C3  UNK     1      10.099   5.721   9.091  1.00  0.00     0.303 C 
HETATM    6  C4  UNK     1       9.402   5.979   6.797  1.00  0.00     0.303 C 
ENDROOT
BRANCH   1   7
HETATM    7  C5  UNK     1      13.050   6.909   7.060  1.00  0.00     0.312 C 
BRANCH   7   8
HETATM    8  C7  UNK     1      14.075   6.700   8.121  1.00  0.00    -0.011 A 
HETATM    9  C10 UNK     1      14.480   5.468   8.460  1.00  0.00     0.092 A 
HETATM   10  C15 UNK     1      15.489   5.212   9.501  1.00  0.00     0.288 A 
HETATM   11  O1  UNK     1      16.022   6.321  10.138  1.00  0.00    -0.275 OA
HETATM   12  O2  UNK     1      15.836   4.071   9.784  1.00  0.00    -0.260 OA
HETATM   13  C11 UNK     1      15.615   7.629   9.804  1.00  0.00     0.090 A 
HETATM   14  C9  UNK     1      14.657   7.856   8.814  1.00  0.00     0.006 A 
HETATM   15  C16 UNK     1      16.218   8.670  10.511  1.00  0.00     0.045 A 
HETATM   16  C14 UNK     1      14.308   9.186   8.542  1.00  0.00     0.015 A 
HETATM   17  C18 UNK     1      14.904  10.240   9.242  1.00  0.00     0.007 A 
HETATM   18  C17 UNK     1      15.858   9.983  10.225  1.00  0.00    -0.059 A 
HETATM   19  C22 UNK     1      16.489  11.112  10.967  1.00  0.00     0.048 C 
ENDBRANCH   7   8
ENDBRANCH   1   7
BRANCH   2  20
HETATM   20  C6  UNK     1       7.770   5.499   8.508  1.00  0.00     0.314 C 
BRANCH  20  21
HETATM   21  C8  UNK     1       7.198   5.939   9.825  1.00  0.00     0.009 A 
HETATM   22  C12 UNK     1       6.918   4.998  10.816  1.00  0.00     0.124 A 
HETATM   23  F1  UNK     1       7.154   3.697  10.602  1.00  0.00    -0.205 F 
HETATM   24  C19 UNK     1       6.389   5.410  12.039  1.00  0.00     0.043 A 
HETATM   25  C21 UNK     1       6.138   6.763  12.270  1.00  0.00     0.003 A 
HETATM   26  C20 UNK     1       6.418   7.703  11.278  1.00  0.00     0.001 A 
HETATM   27  C13 UNK     1       6.948   7.291  10.056  1.00  0.00     0.012 A 
ENDBRANCH  20  21
ENDBRANCH   2  20
TORSDOF 4
ENDMDL
MODEL 10
REMARK VINA RESULT:      -8.5      3.685      9.815
REMARK  4 active torsions:
REMARK  status: ('A' for Active; 'I' for Inactive)
REMARK    1  A    between atoms: C5_10  and  N1_4 
REMARK    2  A    between atoms: C6_11  and  N2_5 
REMARK    3  A    between atoms: C5_10  and  C7_12 
REMARK    4  A    between atoms: C6_11  and  C8_13 
ROOT
HETATM    1  N1  UNK     1      17.402   5.971  32.789  1.00  0.00     0.096 N 
HETATM    2  N2  UNK     1      16.481   8.504  33.835  1.00  0.00     0.096 N 
HETATM    3  C1  UNK     1      18.345   7.046  33.121  1.00  0.00     0.303 C 
HETATM    4  C2  UNK     1      16.103   6.531  32.395  1.00  0.00     0.303 C 
HETATM    5  C3  UNK     1      17.780   7.945  34.228  1.00  0.00     0.303 C 
HETATM    6  C4  UNK     1      15.539   7.429  33.502  1.00  0.00     0.303 C 
ENDROOT
BRANCH   1   7
HETATM    7  C5  UNK     1      17.940   5.117  31.733  1.00  0.00     0.312 C 
BRANCH   7   8
HETATM    8  C7  UNK     1      18.190   3.726  32.208  1.00  0.00    -0.011 A 
HETATM    9  C10 UNK     1      18.089   3.409  33.506  1.00  0.00     0.092 A 
HETATM   10  C15 UNK     1      18.327   2.050  34.022  1.00  0.00     0.288 A 
HETATM   11  O1  UNK     1      18.669   1.082  33.091  1.00  0.00    -0.275 OA
HETATM   12  O2  UNK     1      18.225   1.796  35.217  1.00  0.00    -0.260 OA
HETATM   13  C11 UNK     1      18.783   1.386  31.719  1.00  0.00     0.090 A 
HETATM   14  C9  UNK     1      18.555   2.679  31.245  1.00  0.00     0.006 A 
HETATM   15  C16 UNK     1      19.133   0.332  30.874  1.00  0.00     0.045 A 
HETATM   16  C14 UNK     1      18.689   2.898  29.868  1.00  0.00     0.015 A 
HETATM   17  C18 UNK     1      19.038   1.852  29.007  1.00  0.00     0.007 A 
HETATM   18  C17 UNK     1      19.261   0.571  29.509  1.00  0.00    -0.059 A 
HETATM   19  C22 UNK     1      19.633  -0.539  28.586  1.00  0.00     0.048 C 
ENDBRANCH   7   8
ENDBRANCH   1   7
BRANCH   2  20
HETATM   20  C6  UNK     1      15.943   9.357  34.893  1.00  0.00     0.314 C 
BRANCH  20  21
HETATM   21  C8  UNK     1      15.671  10.752  34.406  1.00  0.00     0.009 A 
HETATM   22  C12 UNK     1      14.450  11.058  33.806  1.00  0.00     0.124 A 
HETATM   23  F1  UNK     1      13.510  10.114  33.659  1.00  0.00    -0.205 F 
HETATM   24  C19 UNK     1      14.199  12.354  33.356  1.00  0.00     0.043 A 
HETATM   25  C21 UNK     1      15.171  13.344  33.504  1.00  0.00     0.003 A 
HETATM   26  C20 UNK     1      16.393  13.037  34.103  1.00  0.00     0.001 A 
HETATM   27  C13 UNK     1      16.642  11.741  34.555  1.00  0.00     0.012 A 
ENDBRANCH  20  21
ENDBRANCH   2  20
TORSDOF 4
ENDMDL
