MODEL 1
REMARK VINA RESULT:      -8.0      0.000      0.000
REMARK  13 active torsions:
REMARK  status: ('A' for Active; 'I' for Inactive)
REMARK    1  A    between atoms: C5_18  and  O2_2 
REMARK    2  A    between atoms: C7_20  and  O2_2 
REMARK    3  A    between atoms: C1_14  and  O3_3 
REMARK    4  A    between atoms: C2_15  and  O4_4 
REMARK    5  A    between atoms: C3_16  and  O5_5 
REMARK    6  A    between atoms: C6_19  and  O6_6 
REMARK    7  A    between atoms: C9_22  and  O8_8 
REMARK    8  A    between atoms: C11_24  and  O9_9 
REMARK    9  A    between atoms: C15_28  and  O10_10 
REMARK   10  A    between atoms: C19_32  and  O12_12 
REMARK   11  A    between atoms: C21_34  and  O13_13 
REMARK   12  A    between atoms: C4_17  and  C6_19 
REMARK   13  A    between atoms: C14_27  and  C16_29 
ROOT
HETATM    1  O7  UNK     1      33.213  -6.819  33.271  1.00  0.00    -0.303 OA
HETATM    2  O11 UNK     1      36.804  -8.362  34.425  1.00  0.00    -0.284 OA
HETATM    3  C7  UNK     1      33.541  -7.537  31.046  1.00  0.00     0.140 A 
HETATM    4  C8  UNK     1      34.014  -7.451  32.356  1.00  0.00     0.129 A 
HETATM    5  C9  UNK     1      34.311  -8.169  30.070  1.00  0.00     0.104 A 
HETATM    6  C10 UNK     1      35.253  -7.997  32.686  1.00  0.00     0.087 A 
HETATM    7  C11 UNK     1      36.026  -8.632  31.711  1.00  0.00     0.085 A 
HETATM    8  C12 UNK     1      35.552  -8.715  30.402  1.00  0.00     0.077 A 
HETATM    9  C13 UNK     1      35.728  -7.896  34.075  1.00  0.00     0.223 A 
HETATM   10  C14 UNK     1      33.662  -6.708  34.578  1.00  0.00     0.123 A 
HETATM   11  C15 UNK     1      34.831  -7.199  35.028  1.00  0.00     0.152 A 
ENDROOT
BRANCH   3  12
HETATM   12  O2  UNK     1      32.329  -7.004  30.716  1.00  0.00    -0.312 OA
BRANCH  12  13
HETATM   13  C5  UNK     1      31.206  -7.884  30.772  1.00  0.00     0.298 C 
HETATM   14  C3  UNK     1      30.017  -7.096  31.321  1.00  0.00     0.205 C 
HETATM   15  C1  UNK     1      28.732  -7.924  31.275  1.00  0.00     0.183 C 
HETATM   16  C2  UNK     1      28.541  -8.572  29.903  1.00  0.00     0.180 C 
HETATM   17  C4  UNK     1      29.817  -9.292  29.460  1.00  0.00     0.179 C 
HETATM   18  O1  UNK     1      30.918  -8.382  29.467  1.00  0.00    -0.348 OA
BRANCH  14  19
HETATM   19  O5  UNK     1      30.302  -6.739  32.674  1.00  0.00    -0.388 OA
HETATM   20  H10 UNK     1      30.735  -7.498  33.101  1.00  0.00     0.210 HD
ENDBRANCH  14  19
BRANCH  15  21
HETATM   21  O3  UNK     1      27.611  -7.076  31.523  1.00  0.00    -0.390 OA
HETATM   22  H8  UNK     1      27.956  -6.214  31.813  1.00  0.00     0.210 HD
ENDBRANCH  15  21
BRANCH  16  23
HETATM   23  O4  UNK     1      27.470  -9.509  29.971  1.00  0.00    -0.390 OA
HETATM   24  H9  UNK     1      26.635  -9.012  29.959  1.00  0.00     0.210 HD
ENDBRANCH  16  23
BRANCH  17  25
HETATM   25  C6  UNK     1      29.690  -9.847  28.044  1.00  0.00     0.198 C 
BRANCH  25  26
HETATM   26  O6  UNK     1      30.920  -9.652  27.372  1.00  0.00    -0.398 OA
HETATM   27  H11 UNK     1      31.633  -9.826  28.010  1.00  0.00     0.209 HD
ENDBRANCH  25  26
ENDBRANCH  17  25
ENDBRANCH  12  13
ENDBRANCH   3  12
BRANCH   5  28
HETATM   28  O8  UNK     1      33.863  -8.261  28.785  1.00  0.00    -0.358 OA
HETATM   29  H13 UNK     1      32.924  -8.514  28.795  1.00  0.00     0.217 HD
ENDBRANCH   5  28
BRANCH   7  30
HETATM   30  O9  UNK     1      37.244  -9.181  31.982  1.00  0.00    -0.360 OA
HETATM   31  H16 UNK     1      37.189 -10.148  31.983  1.00  0.00     0.217 HD
ENDBRANCH   7  30
BRANCH  10  32
HETATM   32  C16 UNK     1      32.705  -6.011  35.456  1.00  0.00     0.004 A 
HETATM   33  C17 UNK     1      32.690  -4.616  35.502  1.00  0.00     0.053 A 
HETATM   34  C19 UNK     1      31.785  -3.956  36.332  1.00  0.00     0.099 A 
HETATM   35  C21 UNK     1      30.895  -4.689  37.119  1.00  0.00     0.098 A 
HETATM   36  C20 UNK     1      30.911  -6.082  37.073  1.00  0.00     0.040 A 
HETATM   37  C18 UNK     1      31.816  -6.744  36.242  1.00  0.00     0.017 A 
BRANCH  34  38
HETATM   38  O12 UNK     1      31.780  -2.595  36.370  1.00  0.00    -0.358 OA
HETATM   39  H19 UNK     1      31.021  -2.256  35.868  1.00  0.00     0.217 HD
ENDBRANCH  34  38
BRANCH  35  40
HETATM   40  O13 UNK     1      30.007  -4.055  37.932  1.00  0.00    -0.358 OA
HETATM   41  H20 UNK     1      29.161  -3.941  37.470  1.00  0.00     0.217 HD
ENDBRANCH  35  40
ENDBRANCH  10  32
BRANCH  11  42
HETATM   42  O10 UNK     1      35.231  -7.102  36.342  1.00  0.00    -0.355 OA
HETATM   43  H17 UNK     1      34.627  -7.606  36.910  1.00  0.00     0.218 HD
ENDBRANCH  11  42
TORSDOF 13
ENDMDL
MODEL 2
REMARK VINA RESULT:      -7.9     21.639     25.711
REMARK  13 active torsions:
REMARK  status: ('A' for Active; 'I' for Inactive)
REMARK    1  A    between atoms: C5_18  and  O2_2 
REMARK    2  A    between atoms: C7_20  and  O2_2 
REMARK    3  A    between atoms: C1_14  and  O3_3 
REMARK    4  A    between atoms: C2_15  and  O4_4 
REMARK    5  A    between atoms: C3_16  and  O5_5 
REMARK    6  A    between atoms: C6_19  and  O6_6 
REMARK    7  A    between atoms: C9_22  and  O8_8 
REMARK    8  A    between atoms: C11_24  and  O9_9 
REMARK    9  A    between atoms: C15_28  and  O10_10 
REMARK   10  A    between atoms: C19_32  and  O12_12 
REMARK   11  A    between atoms: C21_34  and  O13_13 
REMARK   12  A    between atoms: C4_17  and  C6_19 
REMARK   13  A    between atoms: C14_27  and  C16_29 
ROOT
HETATM    1  O7  UNK     1      19.172  -5.033  11.594  1.00  0.00    -0.303 OA
HETATM    2  O11 UNK     1      20.770  -1.395  10.694  1.00  0.00    -0.284 OA
HETATM    3  C7  UNK     1      19.750  -4.802  13.871  1.00  0.00     0.140 A 
HETATM    4  C8  UNK     1      19.748  -4.274  12.580  1.00  0.00     0.129 A 
HETATM    5  C9  UNK     1      20.321  -4.075  14.917  1.00  0.00     0.104 A 
HETATM    6  C10 UNK     1      20.313  -3.024  12.337  1.00  0.00     0.087 A 
HETATM    7  C11 UNK     1      20.885  -2.294  13.382  1.00  0.00     0.085 A 
HETATM    8  C12 UNK     1      20.888  -2.824  14.672  1.00  0.00     0.077 A 
HETATM    9  C13 UNK     1      20.295  -2.489  10.966  1.00  0.00     0.223 A 
HETATM   10  C14 UNK     1      19.164  -4.540  10.299  1.00  0.00     0.123 A 
HETATM   11  C15 UNK     1      19.668  -3.347   9.933  1.00  0.00     0.152 A 
ENDROOT
BRANCH   3  12
HETATM   12  O2  UNK     1      19.198  -6.025  14.117  1.00  0.00    -0.312 OA
BRANCH  12  13
HETATM   13  C5  UNK     1      17.813  -6.044  14.463  1.00  0.00     0.298 C 
HETATM   14  C3  UNK     1      17.178  -7.265  13.796  1.00  0.00     0.205 C 
HETATM   15  C1  UNK     1      15.725  -7.445  14.236  1.00  0.00     0.183 C 
HETATM   16  C2  UNK     1      15.593  -7.359  15.757  1.00  0.00     0.180 C 
HETATM   17  C4  UNK     1      16.304  -6.115  16.294  1.00  0.00     0.179 C 
HETATM   18  O1  UNK     1      17.672  -6.118  15.880  1.00  0.00    -0.348 OA
BRANCH  14  19
HETATM   19  O5  UNK     1      17.224  -7.076  12.382  1.00  0.00    -0.388 OA
HETATM   20  H10 UNK     1      17.965  -7.599  12.031  1.00  0.00     0.210 HD
ENDBRANCH  14  19
BRANCH  15  21
HETATM   21  O3  UNK     1      15.259  -8.731  13.825  1.00  0.00    -0.390 OA
HETATM   22  H8  UNK     1      14.336  -8.628  13.536  1.00  0.00     0.210 HD
ENDBRANCH  15  21
BRANCH  16  23
HETATM   23  O4  UNK     1      14.213  -7.301  16.107  1.00  0.00    -0.390 OA
HETATM   24  H9  UNK     1      13.802  -8.143  15.849  1.00  0.00     0.210 HD
ENDBRANCH  16  23
BRANCH  17  25
HETATM   25  C6  UNK     1      16.288  -6.069  17.819  1.00  0.00     0.198 C 
BRANCH  25  26
HETATM   26  O6  UNK     1      15.290  -5.153  18.232  1.00  0.00    -0.398 OA
HETATM   27  H11 UNK     1      14.430  -5.600  18.151  1.00  0.00     0.209 HD
ENDBRANCH  25  26
ENDBRANCH  17  25
ENDBRANCH  12  13
ENDBRANCH   3  12
BRANCH   5  28
HETATM   28  O8  UNK     1      20.332  -4.577  16.184  1.00  0.00    -0.358 OA
HETATM   29  H13 UNK     1      20.716  -3.915  16.784  1.00  0.00     0.217 HD
ENDBRANCH   5  28
BRANCH   7  30
HETATM   30  O9  UNK     1      21.452  -1.068  13.197  1.00  0.00    -0.360 OA
HETATM   31  H16 UNK     1      22.273  -1.145  12.688  1.00  0.00     0.217 HD
ENDBRANCH   7  30
BRANCH  10  32
HETATM   32  C16 UNK     1      18.515  -5.454   9.341  1.00  0.00     0.004 A 
HETATM   33  C17 UNK     1      17.123  -5.534   9.289  1.00  0.00     0.053 A 
HETATM   34  C19 UNK     1      16.508  -6.398   8.383  1.00  0.00     0.099 A 
HETATM   35  C21 UNK     1      17.284  -7.182   7.529  1.00  0.00     0.098 A 
HETATM   36  C20 UNK     1      18.675  -7.102   7.582  1.00  0.00     0.040 A 
HETATM   37  C18 UNK     1      19.291  -6.238   8.488  1.00  0.00     0.017 A 
BRANCH  34  38
HETATM   38  O12 UNK     1      15.149  -6.469   8.341  1.00  0.00    -0.358 OA
HETATM   39  H19 UNK     1      14.868  -6.910   7.523  1.00  0.00     0.217 HD
ENDBRANCH  34  38
BRANCH  35  40
HETATM   40  O13 UNK     1      16.695  -8.028   6.640  1.00  0.00    -0.358 OA
HETATM   41  H20 UNK     1      17.154  -8.883   6.647  1.00  0.00     0.217 HD
ENDBRANCH  35  40
ENDBRANCH  10  32
BRANCH  11  42
HETATM   42  O10 UNK     1      19.613  -2.873   8.641  1.00  0.00    -0.355 OA
HETATM   43  H17 UNK     1      18.961  -2.156   8.580  1.00  0.00     0.218 HD
ENDBRANCH  11  42
TORSDOF 13
ENDMDL
MODEL 3
REMARK VINA RESULT:      -7.9      2.694      6.766
REMARK  13 active torsions:
REMARK  status: ('A' for Active; 'I' for Inactive)
REMARK    1  A    between atoms: C5_18  and  O2_2 
REMARK    2  A    between atoms: C7_20  and  O2_2 
REMARK    3  A    between atoms: C1_14  and  O3_3 
REMARK    4  A    between atoms: C2_15  and  O4_4 
REMARK    5  A    between atoms: C3_16  and  O5_5 
REMARK    6  A    between atoms: C6_19  and  O6_6 
REMARK    7  A    between atoms: C9_22  and  O8_8 
REMARK    8  A    between atoms: C11_24  and  O9_9 
REMARK    9  A    between atoms: C15_28  and  O10_10 
REMARK   10  A    between atoms: C19_32  and  O12_12 
REMARK   11  A    between atoms: C21_34  and  O13_13 
REMARK   12  A    between atoms: C4_17  and  C6_19 
REMARK   13  A    between atoms: C14_27  and  C16_29 
ROOT
HETATM    1  O7  UNK     1      31.420  -6.247  34.616  1.00  0.00    -0.303 OA
HETATM    2  O11 UNK     1      35.209  -7.151  33.422  1.00  0.00    -0.284 OA
HETATM    3  C7  UNK     1      32.158  -5.715  36.794  1.00  0.00     0.140 A 
HETATM    4  C8  UNK     1      32.461  -6.142  35.501  1.00  0.00     0.129 A 
HETATM    5  C9  UNK     1      33.176  -5.588  37.739  1.00  0.00     0.104 A 
HETATM    6  C10 UNK     1      33.778  -6.438  35.156  1.00  0.00     0.087 A 
HETATM    7  C11 UNK     1      34.800  -6.311  36.100  1.00  0.00     0.085 A 
HETATM    8  C12 UNK     1      34.495  -5.886  37.393  1.00  0.00     0.077 A 
HETATM    9  C13 UNK     1      34.072  -6.883  33.784  1.00  0.00     0.223 A 
HETATM   10  C14 UNK     1      31.688  -6.679  33.327  1.00  0.00     0.123 A 
HETATM   11  C15 UNK     1      32.914  -6.988  32.865  1.00  0.00     0.152 A 
ENDROOT
BRANCH   3  12
HETATM   12  O2  UNK     1      30.870  -5.423  37.139  1.00  0.00    -0.312 OA
BRANCH  12  13
HETATM   13  C5  UNK     1      30.154  -6.432  37.850  1.00  0.00     0.298 C 
HETATM   14  C3  UNK     1      28.706  -6.418  37.357  1.00  0.00     0.205 C 
HETATM   15  C1  UNK     1      27.902  -7.570  37.960  1.00  0.00     0.183 C 
HETATM   16  C2  UNK     1      28.651  -8.897  37.826  1.00  0.00     0.180 C 
HETATM   17  C4  UNK     1      30.094  -8.759  38.318  1.00  0.00     0.179 C 
HETATM   18  O1  UNK     1      30.751  -7.705  37.612  1.00  0.00    -0.348 OA
BRANCH  14  19
HETATM   19  O5  UNK     1      28.116  -5.177  37.741  1.00  0.00    -0.388 OA
HETATM   20  H10 UNK     1      27.529  -4.886  37.022  1.00  0.00     0.210 HD
ENDBRANCH  14  19
BRANCH  15  21
HETATM   21  O3  UNK     1      26.658  -7.693  37.271  1.00  0.00    -0.390 OA
HETATM   22  H8  UNK     1      25.964  -7.352  37.861  1.00  0.00     0.210 HD
ENDBRANCH  15  21
BRANCH  16  23
HETATM   23  O4  UNK     1      27.984  -9.894  38.595  1.00  0.00    -0.390 OA
HETATM   24  H9  UNK     1      28.551 -10.682  38.621  1.00  0.00     0.210 HD
ENDBRANCH  16  23
BRANCH  17  25
HETATM   25  C6  UNK     1      30.894 -10.037  38.085  1.00  0.00     0.198 C 
BRANCH  25  26
HETATM   26  O6  UNK     1      30.818 -10.836  39.251  1.00  0.00    -0.398 OA
HETATM   27  H11 UNK     1      31.677 -10.777  39.704  1.00  0.00     0.209 HD
ENDBRANCH  25  26
ENDBRANCH  17  25
ENDBRANCH  12  13
ENDBRANCH   3  12
BRANCH   5  28
HETATM   28  O8  UNK     1      32.896  -5.173  39.008  1.00  0.00    -0.358 OA
HETATM   29  H13 UNK     1      32.050  -5.562  39.289  1.00  0.00     0.217 HD
ENDBRANCH   5  28
BRANCH   7  30
HETATM   30  O9  UNK     1      36.103  -6.589  35.814  1.00  0.00    -0.360 OA
HETATM   31  H16 UNK     1      36.170  -7.106  34.997  1.00  0.00     0.217 HD
ENDBRANCH   7  30
BRANCH  10  32
HETATM   32  C16 UNK     1      30.483  -6.745  32.481  1.00  0.00     0.004 A 
HETATM   33  C17 UNK     1      29.870  -7.974  32.235  1.00  0.00     0.053 A 
HETATM   34  C19 UNK     1      28.730  -8.037  31.435  1.00  0.00     0.099 A 
HETATM   35  C21 UNK     1      28.201  -6.872  30.879  1.00  0.00     0.098 A 
HETATM   36  C20 UNK     1      28.814  -5.643  31.124  1.00  0.00     0.040 A 
HETATM   37  C18 UNK     1      29.955  -5.580  31.925  1.00  0.00     0.017 A 
BRANCH  34  38
HETATM   38  O12 UNK     1      28.140  -9.243  31.201  1.00  0.00    -0.358 OA
HETATM   39  H19 UNK     1      28.519  -9.913  31.792  1.00  0.00     0.217 HD
ENDBRANCH  34  38
BRANCH  35  40
HETATM   40  O13 UNK     1      27.088  -6.921  30.097  1.00  0.00    -0.358 OA
HETATM   41  H20 UNK     1      26.358  -6.455  30.535  1.00  0.00     0.217 HD
ENDBRANCH  35  40
ENDBRANCH  10  32
BRANCH  11  42
HETATM   42  O10 UNK     1      33.150  -7.382  31.566  1.00  0.00    -0.355 OA
HETATM   43  H17 UNK     1      32.326  -7.696  31.161  1.00  0.00     0.218 HD
ENDBRANCH  11  42
TORSDOF 13
ENDMDL
MODEL 4
REMARK VINA RESULT:      -7.8      2.533      6.732
REMARK  13 active torsions:
REMARK  status: ('A' for Active; 'I' for Inactive)
REMARK    1  A    between atoms: C5_18  and  O2_2 
REMARK    2  A    between atoms: C7_20  and  O2_2 
REMARK    3  A    between atoms: C1_14  and  O3_3 
REMARK    4  A    between atoms: C2_15  and  O4_4 
REMARK    5  A    between atoms: C3_16  and  O5_5 
REMARK    6  A    between atoms: C6_19  and  O6_6 
REMARK    7  A    between atoms: C9_22  and  O8_8 
REMARK    8  A    between atoms: C11_24  and  O9_9 
REMARK    9  A    between atoms: C15_28  and  O10_10 
REMARK   10  A    between atoms: C19_32  and  O12_12 
REMARK   11  A    between atoms: C21_34  and  O13_13 
REMARK   12  A    between atoms: C4_17  and  C6_19 
REMARK   13  A    between atoms: C14_27  and  C16_29 
ROOT
HETATM    1  O7  UNK     1      31.352  -5.977  34.519  1.00  0.00    -0.303 OA
HETATM    2  O11 UNK     1      34.940  -7.706  33.663  1.00  0.00    -0.284 OA
HETATM    3  C7  UNK     1      32.019  -5.526  36.738  1.00  0.00     0.140 A 
HETATM    4  C8  UNK     1      32.321  -6.058  35.484  1.00  0.00     0.129 A 
HETATM    5  C9  UNK     1      32.966  -5.579  37.761  1.00  0.00     0.104 A 
HETATM    6  C10 UNK     1      33.567  -6.639  35.256  1.00  0.00     0.087 A 
HETATM    7  C11 UNK     1      34.518  -6.692  36.278  1.00  0.00     0.085 A 
HETATM    8  C12 UNK     1      34.213  -6.161  37.531  1.00  0.00     0.077 A 
HETATM    9  C13 UNK     1      33.862  -7.190  33.924  1.00  0.00     0.223 A 
HETATM   10  C14 UNK     1      31.618  -6.507  33.266  1.00  0.00     0.123 A 
HETATM   11  C15 UNK     1      32.781  -7.085  32.915  1.00  0.00     0.152 A 
ENDROOT
BRANCH   3  12
HETATM   12  O2  UNK     1      30.800  -4.956  36.969  1.00  0.00    -0.312 OA
BRANCH  12  13
HETATM   13  C5  UNK     1      29.808  -5.788  37.567  1.00  0.00     0.298 C 
HETATM   14  C3  UNK     1      28.759  -4.882  38.212  1.00  0.00     0.205 C 
HETATM   15  C1  UNK     1      27.578  -5.692  38.749  1.00  0.00     0.183 C 
HETATM   16  C2  UNK     1      27.067  -6.682  37.703  1.00  0.00     0.180 C 
HETATM   17  C4  UNK     1      28.221  -7.495  37.113  1.00  0.00     0.179 C 
HETATM   18  O1  UNK     1      29.209  -6.616  36.572  1.00  0.00    -0.348 OA
BRANCH  14  19
HETATM   19  O5  UNK     1      29.378  -4.177  39.289  1.00  0.00    -0.388 OA
HETATM   20  H10 UNK     1      30.225  -4.612  39.487  1.00  0.00     0.210 HD
ENDBRANCH  14  19
BRANCH  15  21
HETATM   21  O3  UNK     1      26.508  -4.807  39.082  1.00  0.00    -0.390 OA
HETATM   22  H8  UNK     1      26.215  -4.381  38.258  1.00  0.00     0.210 HD
ENDBRANCH  15  21
BRANCH  16  23
HETATM   23  O4  UNK     1      26.130  -7.567  38.311  1.00  0.00    -0.390 OA
HETATM   24  H9  UNK     1      26.572  -8.006  39.057  1.00  0.00     0.210 HD
ENDBRANCH  16  23
BRANCH  17  25
HETATM   25  C6  UNK     1      27.751  -8.407  35.984  1.00  0.00     0.198 C 
BRANCH  25  26
HETATM   26  O6  UNK     1      27.272  -9.614  36.548  1.00  0.00    -0.398 OA
HETATM   27  H11 UNK     1      26.850 -10.123  35.835  1.00  0.00     0.209 HD
ENDBRANCH  25  26
ENDBRANCH  17  25
ENDBRANCH  12  13
ENDBRANCH   3  12
BRANCH   5  28
HETATM   28  O8  UNK     1      32.686  -5.064  38.992  1.00  0.00    -0.358 OA
HETATM   29  H13 UNK     1      32.660  -5.789  39.640  1.00  0.00     0.217 HD
ENDBRANCH   5  28
BRANCH   7  30
HETATM   30  O9  UNK     1      35.750  -7.250  36.107  1.00  0.00    -0.360 OA
HETATM   31  H16 UNK     1      36.130  -7.507  36.960  1.00  0.00     0.217 HD
ENDBRANCH   7  30
BRANCH  10  32
HETATM   32  C16 UNK     1      30.494  -6.352  32.326  1.00  0.00     0.004 A 
HETATM   33  C17 UNK     1      29.651  -7.431  32.062  1.00  0.00     0.053 A 
HETATM   34  C19 UNK     1      28.588  -7.285  31.172  1.00  0.00     0.099 A 
HETATM   35  C21 UNK     1      28.367  -6.059  30.544  1.00  0.00     0.098 A 
HETATM   36  C20 UNK     1      29.210  -4.979  30.807  1.00  0.00     0.040 A 
HETATM   37  C18 UNK     1      30.274  -5.126  31.698  1.00  0.00     0.017 A 
BRANCH  34  38
HETATM   38  O12 UNK     1      27.772  -8.346  30.922  1.00  0.00    -0.358 OA
HETATM   39  H19 UNK     1      26.979  -8.046  30.448  1.00  0.00     0.217 HD
ENDBRANCH  34  38
BRANCH  35  40
HETATM   40  O13 UNK     1      27.331  -5.903  29.674  1.00  0.00    -0.358 OA
HETATM   41  H20 UNK     1      27.556  -5.229  29.013  1.00  0.00     0.217 HD
ENDBRANCH  35  40
ENDBRANCH  10  32
BRANCH  11  42
HETATM   42  O10 UNK     1      33.026  -7.572  31.649  1.00  0.00    -0.355 OA
HETATM   43  H17 UNK     1      33.448  -8.444  31.706  1.00  0.00     0.218 HD
ENDBRANCH  11  42
TORSDOF 13
ENDMDL
MODEL 5
REMARK VINA RESULT:      -7.8      2.173      6.781
REMARK  13 active torsions:
REMARK  status: ('A' for Active; 'I' for Inactive)
REMARK    1  A    between atoms: C5_18  and  O2_2 
REMARK    2  A    between atoms: C7_20  and  O2_2 
REMARK    3  A    between atoms: C1_14  and  O3_3 
REMARK    4  A    between atoms: C2_15  and  O4_4 
REMARK    5  A    between atoms: C3_16  and  O5_5 
REMARK    6  A    between atoms: C6_19  and  O6_6 
REMARK    7  A    between atoms: C9_22  and  O8_8 
REMARK    8  A    between atoms: C11_24  and  O9_9 
REMARK    9  A    between atoms: C15_28  and  O10_10 
REMARK   10  A    between atoms: C19_32  and  O12_12 
REMARK   11  A    between atoms: C21_34  and  O13_13 
REMARK   12  A    between atoms: C4_17  and  C6_19 
REMARK   13  A    between atoms: C14_27  and  C16_29 
ROOT
HETATM    1  O7  UNK     1      32.687  -8.514  31.805  1.00  0.00    -0.303 OA
HETATM    2  O11 UNK     1      35.559  -6.740  29.525  1.00  0.00    -0.284 OA
HETATM    3  C7  UNK     1      33.637  -7.662  33.791  1.00  0.00     0.140 A 
HETATM    4  C8  UNK     1      33.675  -7.773  32.401  1.00  0.00     0.129 A 
HETATM    5  C9  UNK     1      34.616  -6.920  34.454  1.00  0.00     0.104 A 
HETATM    6  C10 UNK     1      34.685  -7.144  31.678  1.00  0.00     0.087 A 
HETATM    7  C11 UNK     1      35.666  -6.400  32.339  1.00  0.00     0.085 A 
HETATM    8  C12 UNK     1      35.628  -6.291  33.729  1.00  0.00     0.077 A 
HETATM    9  C13 UNK     1      34.700  -7.275  30.212  1.00  0.00     0.223 A 
HETATM   10  C14 UNK     1      32.703  -8.653  30.426  1.00  0.00     0.123 A 
HETATM   11  C15 UNK     1      33.616  -8.090  29.614  1.00  0.00     0.152 A 
ENDROOT
BRANCH   3  12
HETATM   12  O2  UNK     1      32.650  -8.276  34.505  1.00  0.00    -0.312 OA
BRANCH  12  13
HETATM   13  C5  UNK     1      31.423  -7.560  34.646  1.00  0.00     0.298 C 
HETATM   14  C3  UNK     1      30.277  -8.568  34.553  1.00  0.00     0.205 C 
HETATM   15  C1  UNK     1      28.930  -7.905  34.843  1.00  0.00     0.183 C 
HETATM   16  C2  UNK     1      28.991  -7.064  36.118  1.00  0.00     0.180 C 
HETATM   17  C4  UNK     1      30.203  -6.130  36.096  1.00  0.00     0.179 C 
HETATM   18  O1  UNK     1      31.398  -6.889  35.904  1.00  0.00    -0.348 OA
BRANCH  14  19
HETATM   19  O5  UNK     1      30.263  -9.110  33.233  1.00  0.00    -0.388 OA
HETATM   20  H10 UNK     1      31.157  -9.436  33.031  1.00  0.00     0.210 HD
ENDBRANCH  14  19
BRANCH  15  21
HETATM   21  O3  UNK     1      27.934  -8.913  35.026  1.00  0.00    -0.390 OA
HETATM   22  H8  UNK     1      27.687  -9.241  34.144  1.00  0.00     0.210 HD
ENDBRANCH  15  21
BRANCH  16  23
HETATM   23  O4  UNK     1      27.800  -6.288  36.227  1.00  0.00    -0.390 OA
HETATM   24  H9  UNK     1      27.273  -6.648  36.960  1.00  0.00     0.210 HD
ENDBRANCH  16  23
BRANCH  17  25
HETATM   25  C6  UNK     1      30.351  -5.365  37.408  1.00  0.00     0.198 C 
BRANCH  25  26
HETATM   26  O6  UNK     1      29.759  -4.089  37.255  1.00  0.00    -0.398 OA
HETATM   27  H11 UNK     1      30.439  -3.491  36.899  1.00  0.00     0.209 HD
ENDBRANCH  25  26
ENDBRANCH  17  25
ENDBRANCH  12  13
ENDBRANCH   3  12
BRANCH   5  28
HETATM   28  O8  UNK     1      34.594  -6.802  35.812  1.00  0.00    -0.358 OA
HETATM   29  H13 UNK     1      33.882  -7.361  36.167  1.00  0.00     0.217 HD
ENDBRANCH   5  28
BRANCH   7  30
HETATM   30  O9  UNK     1      36.676  -5.766  31.679  1.00  0.00    -0.360 OA
HETATM   31  H16 UNK     1      37.429  -5.616  32.270  1.00  0.00     0.217 HD
ENDBRANCH   7  30
BRANCH  10  32
HETATM   32  C16 UNK     1      31.587  -9.470  29.918  1.00  0.00     0.004 A 
HETATM   33  C17 UNK     1      31.559 -10.843  30.165  1.00  0.00     0.053 A 
HETATM   34  C19 UNK     1      30.503 -11.616  29.685  1.00  0.00     0.099 A 
HETATM   35  C21 UNK     1      29.474 -11.019  28.955  1.00  0.00     0.098 A 
HETATM   36  C20 UNK     1      29.503  -9.646  28.708  1.00  0.00     0.040 A 
HETATM   37  C18 UNK     1      30.559  -8.872  29.189  1.00  0.00     0.017 A 
BRANCH  34  38
HETATM   38  O12 UNK     1      30.486 -12.956  29.931  1.00  0.00    -0.358 OA
HETATM   39  H19 UNK     1      29.651 -13.199  30.363  1.00  0.00     0.217 HD
ENDBRANCH  34  38
BRANCH  35  40
HETATM   40  O13 UNK     1      28.438 -11.763  28.482  1.00  0.00    -0.358 OA
HETATM   41  H20 UNK     1      28.039 -11.321  27.716  1.00  0.00     0.217 HD
ENDBRANCH  35  40
ENDBRANCH  10  32
BRANCH  11  42
HETATM   42  O10 UNK     1      33.584  -8.220  28.243  1.00  0.00    -0.355 OA
HETATM   43  H17 UNK     1      33.118  -9.036  27.999  1.00  0.00     0.218 HD
ENDBRANCH  11  42
TORSDOF 13
ENDMDL
MODEL 6
REMARK VINA RESULT:      -7.8      2.230      6.328
REMARK  13 active torsions:
REMARK  status: ('A' for Active; 'I' for Inactive)
REMARK    1  A    between atoms: C5_18  and  O2_2 
REMARK    2  A    between atoms: C7_20  and  O2_2 
REMARK    3  A    between atoms: C1_14  and  O3_3 
REMARK    4  A    between atoms: C2_15  and  O4_4 
REMARK    5  A    between atoms: C3_16  and  O5_5 
REMARK    6  A    between atoms: C6_19  and  O6_6 
REMARK    7  A    between atoms: C9_22  and  O8_8 
REMARK    8  A    between atoms: C11_24  and  O9_9 
REMARK    9  A    between atoms: C15_28  and  O10_10 
REMARK   10  A    between atoms: C19_32  and  O12_12 
REMARK   11  A    between atoms: C21_34  and  O13_13 
REMARK   12  A    between atoms: C4_17  and  C6_19 
REMARK   13  A    between atoms: C14_27  and  C16_29 
ROOT
HETATM    1  O7  UNK     1      31.842  -6.321  34.025  1.00  0.00    -0.303 OA
HETATM    2  O11 UNK     1      30.248  -6.406  37.773  1.00  0.00    -0.284 OA
HETATM    3  C7  UNK     1      34.036  -6.501  34.877  1.00  0.00     0.140 A 
HETATM    4  C8  UNK     1      32.663  -6.425  35.117  1.00  0.00     0.129 A 
HETATM    5  C9  UNK     1      34.922  -6.609  35.949  1.00  0.00     0.104 A 
HETATM    6  C10 UNK     1      32.182  -6.456  36.423  1.00  0.00     0.087 A 
HETATM    7  C11 UNK     1      33.067  -6.564  37.499  1.00  0.00     0.085 A 
HETATM    8  C12 UNK     1      34.439  -6.640  37.258  1.00  0.00     0.077 A 
HETATM    9  C13 UNK     1      30.730  -6.376  36.649  1.00  0.00     0.223 A 
HETATM   10  C14 UNK     1      30.474  -6.231  34.231  1.00  0.00     0.123 A 
HETATM   11  C15 UNK     1      29.882  -6.259  35.439  1.00  0.00     0.152 A 
ENDROOT
BRANCH   3  12
HETATM   12  O2  UNK     1      34.515  -6.471  33.600  1.00  0.00    -0.312 OA
BRANCH  12  13
HETATM   13  C5  UNK     1      34.670  -7.729  32.944  1.00  0.00     0.298 C 
HETATM   14  C3  UNK     1      34.326  -7.536  31.467  1.00  0.00     0.205 C 
HETATM   15  C1  UNK     1      34.609  -8.804  30.660  1.00  0.00     0.183 C 
HETATM   16  C2  UNK     1      36.002  -9.354  30.966  1.00  0.00     0.180 C 
HETATM   17  C4  UNK     1      36.226  -9.459  32.476  1.00  0.00     0.179 C 
HETATM   18  O1  UNK     1      36.012  -8.187  33.090  1.00  0.00    -0.348 OA
BRANCH  14  19
HETATM   19  O5  UNK     1      32.939  -7.213  31.369  1.00  0.00    -0.388 OA
HETATM   20  H10 UNK     1      32.846  -6.250  31.466  1.00  0.00     0.210 HD
ENDBRANCH  14  19
BRANCH  15  21
HETATM   21  O3  UNK     1      34.548  -8.503  29.265  1.00  0.00    -0.390 OA
HETATM   22  H8  UNK     1      35.159  -7.765  29.100  1.00  0.00     0.210 HD
ENDBRANCH  15  21
BRANCH  16  23
HETATM   23  O4  UNK     1      36.138 -10.644  30.377  1.00  0.00    -0.390 OA
HETATM   24  H9  UNK     1      37.042 -10.721  30.026  1.00  0.00     0.210 HD
ENDBRANCH  16  23
BRANCH  17  25
HETATM   25  C6  UNK     1      37.651  -9.894  32.807  1.00  0.00     0.198 C 
BRANCH  25  26
HETATM   26  O6  UNK     1      37.666 -10.431  34.116  1.00  0.00    -0.398 OA
HETATM   27  H11 UNK     1      36.894 -10.074  34.588  1.00  0.00     0.209 HD
ENDBRANCH  25  26
ENDBRANCH  17  25
ENDBRANCH  12  13
ENDBRANCH   3  12
BRANCH   5  28
HETATM   28  O8  UNK     1      36.266  -6.684  35.732  1.00  0.00    -0.358 OA
HETATM   29  H13 UNK     1      36.429  -6.760  34.776  1.00  0.00     0.217 HD
ENDBRANCH   5  28
BRANCH   7  30
HETATM   30  O9  UNK     1      32.647  -6.599  38.795  1.00  0.00    -0.360 OA
HETATM   31  H16 UNK     1      33.039  -5.871  39.301  1.00  0.00     0.217 HD
ENDBRANCH   7  30
BRANCH  10  32
HETATM   32  C16 UNK     1      29.710  -6.127  32.975  1.00  0.00     0.004 A 
HETATM   33  C17 UNK     1      30.067  -5.176  32.018  1.00  0.00     0.053 A 
HETATM   34  C19 UNK     1      29.344  -5.077  30.830  1.00  0.00     0.099 A 
HETATM   35  C21 UNK     1      28.262  -5.927  30.598  1.00  0.00     0.098 A 
HETATM   36  C20 UNK     1      27.905  -6.877  31.554  1.00  0.00     0.040 A 
HETATM   37  C18 UNK     1      28.628  -6.977  32.744  1.00  0.00     0.017 A 
BRANCH  34  38
HETATM   38  O12 UNK     1      29.701  -4.145  29.904  1.00  0.00    -0.358 OA
HETATM   39  H19 UNK     1      30.334  -4.530  29.278  1.00  0.00     0.217 HD
ENDBRANCH  34  38
BRANCH  35  40
HETATM   40  O13 UNK     1      27.549  -5.840  29.441  1.00  0.00    -0.358 OA
HETATM   41  H20 UNK     1      27.862  -6.510  28.812  1.00  0.00     0.217 HD
ENDBRANCH  35  40
ENDBRANCH  10  32
BRANCH  11  42
HETATM   42  O10 UNK     1      28.516  -6.202  35.607  1.00  0.00    -0.355 OA
HETATM   43  H17 UNK     1      28.212  -6.976  36.108  1.00  0.00     0.218 HD
ENDBRANCH  11  42
TORSDOF 13
ENDMDL
MODEL 7
REMARK VINA RESULT:      -7.8     31.105     34.176
REMARK  13 active torsions:
REMARK  status: ('A' for Active; 'I' for Inactive)
REMARK    1  A    between atoms: C5_18  and  O2_2 
REMARK    2  A    between atoms: C7_20  and  O2_2 
REMARK    3  A    between atoms: C1_14  and  O3_3 
REMARK    4  A    between atoms: C2_15  and  O4_4 
REMARK    5  A    between atoms: C3_16  and  O5_5 
REMARK    6  A    between atoms: C6_19  and  O6_6 
REMARK    7  A    between atoms: C9_22  and  O8_8 
REMARK    8  A    between atoms: C11_24  and  O9_9 
REMARK    9  A    between atoms: C15_28  and  O10_10 
REMARK   10  A    between atoms: C19_32  and  O12_12 
REMARK   11  A    between atoms: C21_34  and  O13_13 
REMARK   12  A    between atoms: C4_17  and  C6_19 
REMARK   13  A    between atoms: C14_27  and  C16_29 
ROOT
HETATM    1  O7  UNK     1      14.456   8.956   9.943  1.00  0.00    -0.303 OA
HETATM    2  O11 UNK     1      18.002   6.983   9.571  1.00  0.00    -0.284 OA
HETATM    3  C7  UNK     1      13.252   6.927   9.996  1.00  0.00     0.140 A 
HETATM    4  C8  UNK     1      14.478   7.586   9.901  1.00  0.00     0.129 A 
HETATM    5  C9  UNK     1      13.210   5.533   9.961  1.00  0.00     0.104 A 
HETATM    6  C10 UNK     1      15.655   6.853   9.773  1.00  0.00     0.087 A 
HETATM    7  C11 UNK     1      15.617   5.457   9.738  1.00  0.00     0.085 A 
HETATM    8  C12 UNK     1      14.390   4.799   9.831  1.00  0.00     0.077 A 
HETATM    9  C13 UNK     1      16.935   7.573   9.678  1.00  0.00     0.223 A 
HETATM   10  C14 UNK     1      15.657   9.640   9.839  1.00  0.00     0.123 A 
HETATM   11  C15 UNK     1      16.862   9.053   9.721  1.00  0.00     0.152 A 
ENDROOT
BRANCH   3  12
HETATM   12  O2  UNK     1      12.094   7.638  10.121  1.00  0.00    -0.312 OA
BRANCH  12  13
HETATM   13  C5  UNK     1      11.235   7.669   8.982  1.00  0.00     0.298 C 
HETATM   14  C3  UNK     1      12.037   7.181   7.775  1.00  0.00     0.205 C 
HETATM   15  C1  UNK     1      11.149   7.040   6.538  1.00  0.00     0.183 C 
HETATM   16  C2  UNK     1       9.871   6.266   6.861  1.00  0.00     0.180 C 
HETATM   17  C4  UNK     1       9.192   6.833   8.109  1.00  0.00     0.179 C 
HETATM   18  O1  UNK     1      10.107   6.826   9.207  1.00  0.00    -0.348 OA
BRANCH  14  19
HETATM   19  O5  UNK     1      13.070   8.130   7.511  1.00  0.00    -0.388 OA
HETATM   20  H10 UNK     1      13.760   7.688   6.988  1.00  0.00     0.210 HD
ENDBRANCH  14  19
BRANCH  15  21
HETATM   21  O3  UNK     1      11.856   6.324   5.524  1.00  0.00    -0.390 OA
HETATM   22  H8  UNK     1      11.539   6.649   4.664  1.00  0.00     0.210 HD
ENDBRANCH  15  21
BRANCH  16  23
HETATM   23  O4  UNK     1       8.975   6.355   5.756  1.00  0.00    -0.390 OA
HETATM   24  H9  UNK     1       8.075   6.461   6.106  1.00  0.00     0.210 HD
ENDBRANCH  16  23
BRANCH  17  25
HETATM   25  C6  UNK     1       7.979   6.004   8.519  1.00  0.00     0.198 C 
BRANCH  25  26
HETATM   26  O6  UNK     1       7.948   4.829   7.730  1.00  0.00    -0.398 OA
HETATM   27  H11 UNK     1       7.739   5.094   6.818  1.00  0.00     0.209 HD
ENDBRANCH  25  26
ENDBRANCH  17  25
ENDBRANCH  12  13
ENDBRANCH   3  12
BRANCH   5  28
HETATM   28  O8  UNK     1      12.020   4.873  10.051  1.00  0.00    -0.358 OA
HETATM   29  H13 UNK     1      11.723   4.632   9.157  1.00  0.00     0.217 HD
ENDBRANCH   5  28
BRANCH   7  30
HETATM   30  O9  UNK     1      16.739   4.694   9.614  1.00  0.00    -0.360 OA
HETATM   31  H16 UNK     1      17.534   5.232   9.747  1.00  0.00     0.217 HD
ENDBRANCH   7  30
BRANCH  10  32
HETATM   32  C16 UNK     1      15.492  11.104   9.900  1.00  0.00     0.004 A 
HETATM   33  C17 UNK     1      15.048  11.802   8.776  1.00  0.00     0.053 A 
HETATM   34  C19 UNK     1      14.890  13.186   8.833  1.00  0.00     0.099 A 
HETATM   35  C21 UNK     1      15.179  13.874  10.012  1.00  0.00     0.098 A 
HETATM   36  C20 UNK     1      15.623  13.177  11.135  1.00  0.00     0.040 A 
HETATM   37  C18 UNK     1      15.780  11.791  11.079  1.00  0.00     0.017 A 
BRANCH  34  38
HETATM   38  O12 UNK     1      14.457  13.858   7.730  1.00  0.00    -0.358 OA
HETATM   39  H19 UNK     1      14.850  13.467   6.933  1.00  0.00     0.217 HD
ENDBRANCH  34  38
BRANCH  35  40
HETATM   40  O13 UNK     1      15.028  15.226  10.080  1.00  0.00    -0.358 OA
HETATM   41  H20 UNK     1      15.228  15.534  10.978  1.00  0.00     0.217 HD
ENDBRANCH  35  40
ENDBRANCH  10  32
BRANCH  11  42
HETATM   42  O10 UNK     1      18.041   9.763   9.655  1.00  0.00    -0.355 OA
HETATM   43  H17 UNK     1      18.727   9.314  10.175  1.00  0.00     0.218 HD
ENDBRANCH  11  42
TORSDOF 13
ENDMDL
MODEL 8
REMARK VINA RESULT:      -7.7      2.414      7.334
REMARK  13 active torsions:
REMARK  status: ('A' for Active; 'I' for Inactive)
REMARK    1  A    between atoms: C5_18  and  O2_2 
REMARK    2  A    between atoms: C7_20  and  O2_2 
REMARK    3  A    between atoms: C1_14  and  O3_3 
REMARK    4  A    between atoms: C2_15  and  O4_4 
REMARK    5  A    between atoms: C3_16  and  O5_5 
REMARK    6  A    between atoms: C6_19  and  O6_6 
REMARK    7  A    between atoms: C9_22  and  O8_8 
REMARK    8  A    between atoms: C11_24  and  O9_9 
REMARK    9  A    between atoms: C15_28  and  O10_10 
REMARK   10  A    between atoms: C19_32  and  O12_12 
REMARK   11  A    between atoms: C21_34  and  O13_13 
REMARK   12  A    between atoms: C4_17  and  C6_19 
REMARK   13  A    between atoms: C14_27  and  C16_29 
ROOT
HETATM    1  O7  UNK     1      31.493  -8.054  34.359  1.00  0.00    -0.303 OA
HETATM    2  O11 UNK     1      35.237  -6.869  33.274  1.00  0.00    -0.284 OA
HETATM    3  C7  UNK     1      32.005  -7.817  36.651  1.00  0.00     0.140 A 
HETATM    4  C8  UNK     1      32.414  -7.727  35.320  1.00  0.00     0.129 A 
HETATM    5  C9  UNK     1      32.898  -7.496  37.673  1.00  0.00     0.104 A 
HETATM    6  C10 UNK     1      33.710  -7.317  35.015  1.00  0.00     0.087 A 
HETATM    7  C11 UNK     1      34.607  -6.995  36.037  1.00  0.00     0.085 A 
HETATM    8  C12 UNK     1      34.197  -7.087  37.367  1.00  0.00     0.077 A 
HETATM    9  C13 UNK     1      34.115  -7.229  33.603  1.00  0.00     0.223 A 
HETATM   10  C14 UNK     1      31.873  -7.986  33.027  1.00  0.00     0.123 A 
HETATM   11  C15 UNK     1      33.088  -7.598  32.600  1.00  0.00     0.152 A 
ENDROOT
BRANCH   3  12
HETATM   12  O2  UNK     1      30.737  -8.217  36.957  1.00  0.00    -0.312 OA
BRANCH  12  13
HETATM   13  C5  UNK     1      29.743  -7.196  37.025  1.00  0.00     0.298 C 
HETATM   14  C3  UNK     1      28.486  -7.803  37.648  1.00  0.00     0.205 C 
HETATM   15  C1  UNK     1      27.417  -6.738  37.896  1.00  0.00     0.183 C 
HETATM   16  C2  UNK     1      28.006  -5.519  38.608  1.00  0.00     0.180 C 
HETATM   17  C4  UNK     1      29.278  -5.040  37.903  1.00  0.00     0.179 C 
HETATM   18  O1  UNK     1      30.220  -6.111  37.817  1.00  0.00    -0.348 OA
BRANCH  14  19
HETATM   19  O5  UNK     1      27.973  -8.788  36.751  1.00  0.00    -0.388 OA
HETATM   20  H10 UNK     1      27.899  -9.628  37.236  1.00  0.00     0.210 HD
ENDBRANCH  14  19
BRANCH  15  21
HETATM   21  O3  UNK     1      26.388  -7.279  38.725  1.00  0.00    -0.390 OA
HETATM   22  H8  UNK     1      26.729  -7.300  39.636  1.00  0.00     0.210 HD
ENDBRANCH  15  21
BRANCH  16  23
HETATM   23  O4  UNK     1      27.045  -4.467  38.613  1.00  0.00    -0.390 OA
HETATM   24  H9  UNK     1      26.979  -4.116  37.709  1.00  0.00     0.210 HD
ENDBRANCH  16  23
BRANCH  17  25
HETATM   25  C6  UNK     1      29.948  -3.899  38.663  1.00  0.00     0.198 C 
BRANCH  25  26
HETATM   26  O6  UNK     1      29.433  -3.870  39.981  1.00  0.00    -0.398 OA
HETATM   27  H11 UNK     1      29.713  -3.032  40.387  1.00  0.00     0.209 HD
ENDBRANCH  25  26
ENDBRANCH  17  25
ENDBRANCH  12  13
ENDBRANCH   3  12
BRANCH   5  28
HETATM   28  O8  UNK     1      32.515  -7.579  38.980  1.00  0.00    -0.358 OA
HETATM   29  H13 UNK     1      32.936  -6.859  39.480  1.00  0.00     0.217 HD
ENDBRANCH   5  28
BRANCH   7  30
HETATM   30  O9  UNK     1      35.885  -6.590  35.792  1.00  0.00    -0.360 OA
HETATM   31  H16 UNK     1      36.267  -6.174  36.579  1.00  0.00     0.217 HD
ENDBRANCH   7  30
BRANCH  10  32
HETATM   32  C16 UNK     1      30.789  -8.361  32.101  1.00  0.00     0.004 A 
HETATM   33  C17 UNK     1      30.705  -9.667  31.618  1.00  0.00     0.053 A 
HETATM   34  C19 UNK     1      29.680 -10.022  30.742  1.00  0.00     0.099 A 
HETATM   35  C21 UNK     1      28.739  -9.071  30.347  1.00  0.00     0.098 A 
HETATM   36  C20 UNK     1      28.823  -7.766  30.829  1.00  0.00     0.040 A 
HETATM   37  C18 UNK     1      29.848  -7.410  31.706  1.00  0.00     0.017 A 
BRANCH  34  38
HETATM   38  O12 UNK     1      29.609 -11.300  30.277  1.00  0.00    -0.358 OA
HETATM   39  H19 UNK     1      28.683 -11.532  30.097  1.00  0.00     0.217 HD
ENDBRANCH  34  38
BRANCH  35  40
HETATM   40  O13 UNK     1      27.733  -9.407  29.493  1.00  0.00    -0.358 OA
HETATM   41  H20 UNK     1      27.538 -10.354  29.571  1.00  0.00     0.217 HD
ENDBRANCH  35  40
ENDBRANCH  10  32
BRANCH  11  42
HETATM   42  O10 UNK     1      33.422  -7.508  31.266  1.00  0.00    -0.355 OA
HETATM   43  H17 UNK     1      33.626  -8.390  30.917  1.00  0.00     0.218 HD
ENDBRANCH  11  42
TORSDOF 13
ENDMDL
MODEL 9
REMARK VINA RESULT:      -7.7      1.572      2.376
REMARK  13 active torsions:
REMARK  status: ('A' for Active; 'I' for Inactive)
REMARK    1  A    between atoms: C5_18  and  O2_2 
REMARK    2  A    between atoms: C7_20  and  O2_2 
REMARK    3  A    between atoms: C1_14  and  O3_3 
REMARK    4  A    between atoms: C2_15  and  O4_4 
REMARK    5  A    between atoms: C3_16  and  O5_5 
REMARK    6  A    between atoms: C6_19  and  O6_6 
REMARK    7  A    between atoms: C9_22  and  O8_8 
REMARK    8  A    between atoms: C11_24  and  O9_9 
REMARK    9  A    between atoms: C15_28  and  O10_10 
REMARK   10  A    between atoms: C19_32  and  O12_12 
REMARK   11  A    between atoms: C21_34  and  O13_13 
REMARK   12  A    between atoms: C4_17  and  C6_19 
REMARK   13  A    between atoms: C14_27  and  C16_29 
ROOT
HETATM    1  O7  UNK     1      32.940  -7.403  34.416  1.00  0.00    -0.303 OA
HETATM    2  O11 UNK     1      37.011  -7.233  34.375  1.00  0.00    -0.284 OA
HETATM    3  C7  UNK     1      32.906  -8.731  32.464  1.00  0.00     0.140 A 
HETATM    4  C8  UNK     1      33.644  -8.039  33.426  1.00  0.00     0.129 A 
HETATM    5  C9  UNK     1      33.566  -9.399  31.432  1.00  0.00     0.104 A 
HETATM    6  C10 UNK     1      35.034  -8.017  33.354  1.00  0.00     0.087 A 
HETATM    7  C11 UNK     1      35.698  -8.685  32.322  1.00  0.00     0.085 A 
HETATM    8  C12 UNK     1      34.959  -9.375  31.361  1.00  0.00     0.077 A 
HETATM    9  C13 UNK     1      35.789  -7.283  34.382  1.00  0.00     0.223 A 
HETATM   10  C14 UNK     1      33.644  -6.698  35.379  1.00  0.00     0.123 A 
HETATM   11  C15 UNK     1      34.986  -6.606  35.429  1.00  0.00     0.152 A 
ENDROOT
BRANCH   3  12
HETATM   12  O2  UNK     1      31.543  -8.757  32.528  1.00  0.00    -0.312 OA
BRANCH  12  13
HETATM   13  C5  UNK     1      30.841  -8.070  31.492  1.00  0.00     0.298 C 
HETATM   14  C3  UNK     1      29.493  -8.764  31.297  1.00  0.00     0.205 C 
HETATM   15  C1  UNK     1      28.613  -8.000  30.306  1.00  0.00     0.183 C 
HETATM   16  C2  UNK     1      28.566  -6.510  30.644  1.00  0.00     0.180 C 
HETATM   17  C4  UNK     1      29.977  -5.954  30.850  1.00  0.00     0.179 C 
HETATM   18  O1  UNK     1      30.653  -6.705  31.860  1.00  0.00    -0.348 OA
BRANCH  14  19
HETATM   19  O5  UNK     1      29.735 -10.079  30.798  1.00  0.00    -0.388 OA
HETATM   20  H10 UNK     1      28.929 -10.606  30.933  1.00  0.00     0.210 HD
ENDBRANCH  14  19
BRANCH  15  21
HETATM   21  O3  UNK     1      27.280  -8.509  30.364  1.00  0.00    -0.390 OA
HETATM   22  H8  UNK     1      27.095  -8.938  29.511  1.00  0.00     0.210 HD
ENDBRANCH  15  21
BRANCH  16  23
HETATM   23  O4  UNK     1      27.934  -5.806  29.579  1.00  0.00    -0.390 OA
HETATM   24  H9  UNK     1      27.606  -6.460  28.939  1.00  0.00     0.210 HD
ENDBRANCH  16  23
BRANCH  17  25
HETATM   25  C6  UNK     1      29.950  -4.497  31.303  1.00  0.00     0.198 C 
BRANCH  25  26
HETATM   26  O6  UNK     1      29.965  -3.668  30.156  1.00  0.00    -0.398 OA
HETATM   27  H11 UNK     1      30.632  -2.976  30.303  1.00  0.00     0.209 HD
ENDBRANCH  25  26
ENDBRANCH  17  25
ENDBRANCH  12  13
ENDBRANCH   3  12
BRANCH   5  28
HETATM   28  O8  UNK     1      32.860 -10.079  30.484  1.00  0.00    -0.358 OA
HETATM   29  H13 UNK     1      32.811 -11.016  30.738  1.00  0.00     0.217 HD
ENDBRANCH   5  28
BRANCH   7  30
HETATM   30  O9  UNK     1      37.056  -8.693  32.207  1.00  0.00    -0.360 OA
HETATM   31  H16 UNK     1      37.342  -9.380  31.585  1.00  0.00     0.217 HD
ENDBRANCH   7  30
BRANCH  10  32
HETATM   32  C16 UNK     1      32.769  -6.066  36.382  1.00  0.00     0.004 A 
HETATM   33  C17 UNK     1      32.240  -4.797  36.146  1.00  0.00     0.053 A 
HETATM   34  C19 UNK     1      31.412  -4.198  37.095  1.00  0.00     0.099 A 
HETATM   35  C21 UNK     1      31.112  -4.868  38.281  1.00  0.00     0.098 A 
HETATM   36  C20 UNK     1      31.641  -6.136  38.518  1.00  0.00     0.040 A 
HETATM   37  C18 UNK     1      32.470  -6.736  37.569  1.00  0.00     0.017 A 
BRANCH  34  38
HETATM   38  O12 UNK     1      30.902  -2.959  36.854  1.00  0.00    -0.358 OA
HETATM   39  H19 UNK     1      31.543  -2.282  37.126  1.00  0.00     0.217 HD
ENDBRANCH  34  38
BRANCH  35  40
HETATM   40  O13 UNK     1      30.304  -4.294  39.215  1.00  0.00    -0.358 OA
HETATM   41  H20 UNK     1      29.379  -4.532  39.039  1.00  0.00     0.217 HD
ENDBRANCH  35  40
ENDBRANCH  10  32
BRANCH  11  42
HETATM   42  O10 UNK     1      35.656  -5.924  36.421  1.00  0.00    -0.355 OA
HETATM   43  H17 UNK     1      36.482  -6.385  36.638  1.00  0.00     0.218 HD
ENDBRANCH  11  42
TORSDOF 13
ENDMDL
MODEL 10
REMARK VINA RESULT:      -7.6     32.593     35.460
REMARK  13 active torsions:
REMARK  status: ('A' for Active; 'I' for Inactive)
REMARK    1  A    between atoms: C5_18  and  O2_2 
REMARK    2  A    between atoms: C7_20  and  O2_2 
REMARK    3  A    between atoms: C1_14  and  O3_3 
REMARK    4  A    between atoms: C2_15  and  O4_4 
REMARK    5  A    between atoms: C3_16  and  O5_5 
REMARK    6  A    between atoms: C6_19  and  O6_6 
REMARK    7  A    between atoms: C9_22  and  O8_8 
REMARK    8  A    between atoms: C11_24  and  O9_9 
REMARK    9  A    between atoms: C15_28  and  O10_10 
REMARK   10  A    between atoms: C19_32  and  O12_12 
REMARK   11  A    between atoms: C21_34  and  O13_13 
REMARK   12  A    between atoms: C4_17  and  C6_19 
REMARK   13  A    between atoms: C14_27  and  C16_29 
ROOT
HETATM    1  O7  UNK     1      10.172   7.598   9.669  1.00  0.00    -0.303 OA
HETATM    2  O11 UNK     1       9.370   6.303   5.890  1.00  0.00    -0.284 OA
HETATM    3  C7  UNK     1      12.498   7.419   9.312  1.00  0.00     0.140 A 
HETATM    4  C8  UNK     1      11.200   7.277   8.821  1.00  0.00     0.129 A 
HETATM    5  C9  UNK     1      13.586   7.108   8.496  1.00  0.00     0.104 A 
HETATM    6  C10 UNK     1      10.992   6.826   7.519  1.00  0.00     0.087 A 
HETATM    7  C11 UNK     1      12.080   6.514   6.699  1.00  0.00     0.085 A 
HETATM    8  C12 UNK     1      13.377   6.656   7.192  1.00  0.00     0.077 A 
HETATM    9  C13 UNK     1       9.613   6.688   7.025  1.00  0.00     0.223 A 
HETATM   10  C14 UNK     1       8.870   7.457   9.214  1.00  0.00     0.123 A 
HETATM   11  C15 UNK     1       8.535   7.041   7.979  1.00  0.00     0.152 A 
ENDROOT
BRANCH   3  12
HETATM   12  O2  UNK     1      12.709   7.860  10.586  1.00  0.00    -0.312 OA
BRANCH  12  13
HETATM   13  C5  UNK     1      13.069   9.232  10.737  1.00  0.00     0.298 C 
HETATM   14  C3  UNK     1      12.433   9.746  12.029  1.00  0.00     0.205 C 
HETATM   15  C1  UNK     1      12.892  11.171  12.345  1.00  0.00     0.183 C 
HETATM   16  C2  UNK     1      14.411  11.299  12.239  1.00  0.00     0.180 C 
HETATM   17  C4  UNK     1      14.915  10.713  10.918  1.00  0.00     0.179 C 
HETATM   18  O1  UNK     1      14.488   9.355  10.793  1.00  0.00    -0.348 OA
BRANCH  14  19
HETATM   19  O5  UNK     1      11.015   9.730  11.868  1.00  0.00    -0.388 OA
HETATM   20  H10 UNK     1      10.816   9.390  10.980  1.00  0.00     0.210 HD
ENDBRANCH  14  19
BRANCH  15  21
HETATM   21  O3  UNK     1      12.512  11.507  13.680  1.00  0.00    -0.390 OA
HETATM   22  H8  UNK     1      12.800  10.779  14.257  1.00  0.00     0.210 HD
ENDBRANCH  15  21
BRANCH  16  23
HETATM   23  O4  UNK     1      14.774  12.676  12.313  1.00  0.00    -0.390 OA
HETATM   24  H9  UNK     1      15.196  12.920  11.472  1.00  0.00     0.210 HD
ENDBRANCH  16  23
BRANCH  17  25
HETATM   25  C6  UNK     1      16.439  10.723  10.840  1.00  0.00     0.198 C 
BRANCH  25  26
HETATM   26  O6  UNK     1      16.865   9.544  10.182  1.00  0.00    -0.398 OA
HETATM   27  H11 UNK     1      16.079   9.130   9.786  1.00  0.00     0.209 HD
ENDBRANCH  25  26
ENDBRANCH  17  25
ENDBRANCH  12  13
ENDBRANCH   3  12
BRANCH   5  28
HETATM   28  O8  UNK     1      14.861   7.240   8.961  1.00  0.00    -0.358 OA
HETATM   29  H13 UNK     1      15.483   7.032   8.242  1.00  0.00     0.217 HD
ENDBRANCH   5  28
BRANCH   7  30
HETATM   30  O9  UNK     1      11.931   6.069   5.420  1.00  0.00    -0.360 OA
HETATM   31  H16 UNK     1      11.290   6.616   4.941  1.00  0.00     0.217 HD
ENDBRANCH   7  30
BRANCH  10  32
HETATM   32  C16 UNK     1       7.865   7.838  10.222  1.00  0.00     0.004 A 
HETATM   33  C17 UNK     1       7.751   9.168  10.626  1.00  0.00     0.053 A 
HETATM   34  C19 UNK     1       6.800   9.529  11.579  1.00  0.00     0.099 A 
HETATM   35  C21 UNK     1       5.962   8.560  12.131  1.00  0.00     0.098 A 
HETATM   36  C20 UNK     1       6.076   7.230  11.728  1.00  0.00     0.040 A 
HETATM   37  C18 UNK     1       7.027   6.868  10.774  1.00  0.00     0.017 A 
BRANCH  34  38
HETATM   38  O12 UNK     1       6.699  10.831  11.966  1.00  0.00    -0.358 OA
HETATM   39  H19 UNK     1       7.433  11.054  12.562  1.00  0.00     0.217 HD
ENDBRANCH  34  38
BRANCH  35  40
HETATM   40  O13 UNK     1       5.029   8.900  13.063  1.00  0.00    -0.358 OA
HETATM   41  H20 UNK     1       4.308   8.250  13.058  1.00  0.00     0.217 HD
ENDBRANCH  35  40
ENDBRANCH  10  32
BRANCH  11  42
HETATM   42  O10 UNK     1       7.230   6.944   7.547  1.00  0.00    -0.355 OA
HETATM   43  H17 UNK     1       6.638   7.378   8.182  1.00  0.00     0.218 HD
ENDBRANCH  11  42
TORSDOF 13
ENDMDL
