MODEL 1
REMARK VINA RESULT:     -10.3      0.000      0.000
REMARK  2 active torsions:
REMARK  status: ('A' for Active; 'I' for Inactive)
REMARK       I    between atoms: C12_19  and  N1_7 
REMARK    1  A    between atoms: C3_10  and  N1_7 
REMARK    2  A    between atoms: C12_19  and  C9_16 
ROOT
HETATM    1  O3  UNK     1      17.632   3.198  32.867  1.00  0.00    -0.267 OA
HETATM    2  N1  UNK     1      18.761   4.702  31.441  1.00  0.00    -0.323 N 
HETATM    3  C12 UNK     1      18.308   3.454  31.878  1.00  0.00     0.262 C 
HETATM    4  H4  UNK     1      19.333   4.730  30.600  1.00  0.00     0.169 HD
ENDROOT
BRANCH   2   5
HETATM    5  C3  UNK     1      18.547   5.946  32.033  1.00  0.00     0.037 A 
HETATM    6  C5  UNK     1      17.285   6.530  31.995  1.00  0.00     0.067 A 
HETATM    7  C2  UNK     1      17.092   7.775  32.595  1.00  0.00     0.092 A 
HETATM    8  C1  UNK     1      18.125   8.463  33.235  1.00  0.00     0.004 A 
HETATM    9  O1  UNK     1      15.792   8.315  32.525  1.00  0.00    -0.275 OA
HETATM   10  C4  UNK     1      17.832   9.770  33.839  1.00  0.00    -0.043 A 
HETATM   11  C6  UNK     1      19.389   7.858  33.261  1.00  0.00     0.017 A 
HETATM   12  C13 UNK     1      16.587  10.258  33.757  1.00  0.00     0.090 A 
HETATM   13  C14 UNK     1      18.921  10.533  34.534  1.00  0.00     0.049 C 
HETATM   14  C17 UNK     1      15.486   9.545  33.086  1.00  0.00     0.288 A 
HETATM   15  O5  UNK     1      14.358  10.023  33.031  1.00  0.00    -0.260 OA
HETATM   16  C7  UNK     1      19.597   6.610  32.664  1.00  0.00     0.030 A 
ENDBRANCH   2   5
BRANCH   3  17
HETATM   17  C9  UNK     1      18.734   2.355  30.987  1.00  0.00     0.108 A 
HETATM   18  C11 UNK     1      19.186   1.247  31.589  1.00  0.00     0.037 A 
HETATM   19  C8  UNK     1      19.628   0.110  30.796  1.00  0.00     0.001 A 
HETATM   20  C10 UNK     1      19.572   0.195  29.408  1.00  0.00     0.089 A 
HETATM   21  C16 UNK     1      20.107  -1.064  31.381  1.00  0.00     0.038 A 
HETATM   22  O2  UNK     1      19.095   1.364  28.781  1.00  0.00    -0.274 OA
HETATM   23  C18 UNK     1      19.981  -0.857  28.592  1.00  0.00     0.040 A 
HETATM   24  C15 UNK     1      18.666   2.467  29.513  1.00  0.00     0.304 A 
HETATM   25  O4  UNK     1      18.252   3.480  28.959  1.00  0.00    -0.259 OA
HETATM   26  C20 UNK     1      20.457  -2.025  29.184  1.00  0.00     0.026 A 
HETATM   27  C19 UNK     1      20.520  -2.129  30.574  1.00  0.00     0.035 A 
HETATM   28 Cl1  UNK     1      21.110  -3.576  31.300  1.00  0.00    -0.084 Cl
ENDBRANCH   3  17
TORSDOF 2
ENDMDL
MODEL 2
REMARK VINA RESULT:     -10.3      8.391     13.809
REMARK  2 active torsions:
REMARK  status: ('A' for Active; 'I' for Inactive)
REMARK       I    between atoms: C12_19  and  N1_7 
REMARK    1  A    between atoms: C3_10  and  N1_7 
REMARK    2  A    between atoms: C12_19  and  C9_16 
ROOT
HETATM    1  O3  UNK     1      21.202  -3.997  37.193  1.00  0.00    -0.267 OA
HETATM    2  N1  UNK     1      19.441  -5.117  36.090  1.00  0.00    -0.323 N 
HETATM    3  C12 UNK     1      20.206  -4.014  36.479  1.00  0.00     0.262 C 
HETATM    4  H4  UNK     1      18.628  -4.946  35.503  1.00  0.00     0.169 HD
ENDROOT
BRANCH   2   5
HETATM    5  C3  UNK     1      19.637  -6.457  36.425  1.00  0.00     0.037 A 
HETATM    6  C5  UNK     1      20.583  -7.216  35.745  1.00  0.00     0.067 A 
HETATM    7  C2  UNK     1      20.763  -8.555  36.098  1.00  0.00     0.092 A 
HETATM    8  C1  UNK     1      20.024  -9.165  37.113  1.00  0.00     0.004 A 
HETATM    9  O1  UNK     1      21.737  -9.273  35.375  1.00  0.00    -0.275 OA
HETATM   10  C4  UNK     1      20.279 -10.579  37.418  1.00  0.00    -0.043 A 
HETATM   11  C6  UNK     1      19.075  -8.382  37.785  1.00  0.00     0.017 A 
HETATM   12  C13 UNK     1      21.211 -11.236  36.713  1.00  0.00     0.090 A 
HETATM   13  C14 UNK     1      19.501 -11.262  38.504  1.00  0.00     0.049 C 
HETATM   14  C17 UNK     1      21.999 -10.607  35.639  1.00  0.00     0.288 A 
HETATM   15  O5  UNK     1      22.844 -11.241  35.016  1.00  0.00    -0.260 OA
HETATM   16  C7  UNK     1      18.883  -7.039  37.443  1.00  0.00     0.030 A 
ENDBRANCH   2   5
BRANCH   3  17
HETATM   17  C9  UNK     1      19.692  -2.746  35.923  1.00  0.00     0.108 A 
HETATM   18  C11 UNK     1      18.939  -2.002  36.743  1.00  0.00     0.037 A 
HETATM   19  C8  UNK     1      18.389  -0.736  36.287  1.00  0.00     0.001 A 
HETATM   20  C10 UNK     1      18.658  -0.313  34.989  1.00  0.00     0.089 A 
HETATM   21  C16 UNK     1      17.597   0.072  37.107  1.00  0.00     0.038 A 
HETATM   22  O2  UNK     1      19.452  -1.100  34.130  1.00  0.00    -0.274 OA
HETATM   23  C18 UNK     1      18.161   0.888  34.490  1.00  0.00     0.040 A 
HETATM   24  C15 UNK     1      19.992  -2.316  34.539  1.00  0.00     0.304 A 
HETATM   25  O4  UNK     1      20.683  -2.994  33.785  1.00  0.00    -0.259 OA
HETATM   26  C20 UNK     1      17.372   1.687  35.315  1.00  0.00     0.026 A 
HETATM   27  C19 UNK     1      17.092   1.281  36.621  1.00  0.00     0.035 A 
HETATM   28 Cl1  UNK     1      16.117   2.273  37.636  1.00  0.00    -0.084 Cl
ENDBRANCH   3  17
TORSDOF 2
ENDMDL
MODEL 3
REMARK VINA RESULT:     -10.2      7.594     13.138
REMARK  2 active torsions:
REMARK  status: ('A' for Active; 'I' for Inactive)
REMARK       I    between atoms: C12_19  and  N1_7 
REMARK    1  A    between atoms: C3_10  and  N1_7 
REMARK    2  A    between atoms: C12_19  and  C9_16 
ROOT
HETATM    1  O3  UNK     1      20.917  -3.551  36.641  1.00  0.00    -0.267 OA
HETATM    2  N1  UNK     1      19.667  -4.961  35.220  1.00  0.00    -0.323 N 
HETATM    3  C12 UNK     1      20.216  -3.752  35.657  1.00  0.00     0.262 C 
HETATM    4  H4  UNK     1      19.087  -4.943  34.384  1.00  0.00     0.169 HD
ENDROOT
BRANCH   2   5
HETATM    5  C3  UNK     1      19.794  -6.221  35.805  1.00  0.00     0.037 A 
HETATM    6  C5  UNK     1      20.645  -7.168  35.245  1.00  0.00     0.067 A 
HETATM    7  C2  UNK     1      20.758  -8.422  35.848  1.00  0.00     0.092 A 
HETATM    8  C1  UNK     1      20.044  -8.765  36.997  1.00  0.00     0.004 A 
HETATM    9  O1  UNK     1      21.636  -9.339  35.236  1.00  0.00    -0.275 OA
HETATM   10  C4  UNK     1      20.224 -10.108  37.564  1.00  0.00    -0.043 A 
HETATM   11  C6  UNK     1      19.191  -7.797  37.544  1.00  0.00     0.017 A 
HETATM   12  C13 UNK     1      21.065 -10.959  36.960  1.00  0.00     0.090 A 
HETATM   13  C14 UNK     1      19.470 -10.506  38.799  1.00  0.00     0.049 C 
HETATM   14  C17 UNK     1      21.827 -10.613  35.747  1.00  0.00     0.288 A 
HETATM   15  O5  UNK     1      22.588 -11.418  35.223  1.00  0.00    -0.260 OA
HETATM   16  C7  UNK     1      19.068  -6.535  36.952  1.00  0.00     0.030 A 
ENDBRANCH   2   5
BRANCH   3  17
HETATM   17  C9  UNK     1      19.864  -2.620  34.776  1.00  0.00     0.108 A 
HETATM   18  C11 UNK     1      20.320  -2.686  33.518  1.00  0.00     0.037 A 
HETATM   19  C8  UNK     1      20.024  -1.619  32.575  1.00  0.00     0.001 A 
HETATM   20  C10 UNK     1      19.262  -0.535  33.001  1.00  0.00     0.089 A 
HETATM   21  C16 UNK     1      20.479  -1.645  31.254  1.00  0.00     0.038 A 
HETATM   22  O2  UNK     1      18.785  -0.473  34.325  1.00  0.00    -0.274 OA
HETATM   23  C18 UNK     1      18.945   0.519  32.148  1.00  0.00     0.040 A 
HETATM   24  C15 UNK     1      19.052  -1.477  35.250  1.00  0.00     0.304 A 
HETATM   25  O4  UNK     1      18.632  -1.415  36.401  1.00  0.00    -0.259 OA
HETATM   26  C20 UNK     1      19.403   0.485  30.832  1.00  0.00     0.026 A 
HETATM   27  C19 UNK     1      20.168  -0.594  30.386  1.00  0.00     0.035 A 
HETATM   28 Cl1  UNK     1      20.731  -0.631  28.759  1.00  0.00    -0.084 Cl
ENDBRANCH   3  17
TORSDOF 2
ENDMDL
MODEL 4
REMARK VINA RESULT:     -10.0      3.660      9.491
REMARK  2 active torsions:
REMARK  status: ('A' for Active; 'I' for Inactive)
REMARK       I    between atoms: C12_19  and  N1_7 
REMARK    1  A    between atoms: C3_10  and  N1_7 
REMARK    2  A    between atoms: C12_19  and  C9_16 
ROOT
HETATM    1  O3  UNK     1      19.099   5.634  33.494  1.00  0.00    -0.267 OA
HETATM    2  N1  UNK     1      17.496   4.516  32.170  1.00  0.00    -0.323 N 
HETATM    3  C12 UNK     1      18.052   5.598  32.858  1.00  0.00     0.262 C 
HETATM    4  H4  UNK     1      16.601   4.658  31.708  1.00  0.00     0.169 HD
ENDROOT
BRANCH   2   5
HETATM    5  C3  UNK     1      18.008   3.225  32.047  1.00  0.00     0.037 A 
HETATM    6  C5  UNK     1      18.498   2.781  30.823  1.00  0.00     0.067 A 
HETATM    7  C2  UNK     1      19.007   1.485  30.723  1.00  0.00     0.092 A 
HETATM    8  C1  UNK     1      19.042   0.611  31.811  1.00  0.00     0.004 A 
HETATM    9  O1  UNK     1      19.490   1.093  29.458  1.00  0.00    -0.275 OA
HETATM   10  C4  UNK     1      19.595  -0.736  31.615  1.00  0.00    -0.043 A 
HETATM   11  C6  UNK     1      18.543   1.077  33.034  1.00  0.00     0.017 A 
HETATM   12  C13 UNK     1      20.047  -1.081  30.401  1.00  0.00     0.090 A 
HETATM   13  C14 UNK     1      19.646  -1.698  32.765  1.00  0.00     0.049 C 
HETATM   14  C17 UNK     1      20.017  -0.171  29.243  1.00  0.00     0.288 A 
HETATM   15  O5  UNK     1      20.440  -0.521  28.147  1.00  0.00    -0.260 OA
HETATM   16  C7  UNK     1      18.030   2.374  33.151  1.00  0.00     0.030 A 
ENDBRANCH   2   5
BRANCH   3  17
HETATM   17  C9  UNK     1      17.220   6.815  32.764  1.00  0.00     0.108 A 
HETATM   18  C11 UNK     1      16.770   7.315  33.922  1.00  0.00     0.037 A 
HETATM   19  C8  UNK     1      15.943   8.512  33.932  1.00  0.00     0.001 A 
HETATM   20  C10 UNK     1      15.632   9.125  32.722  1.00  0.00     0.089 A 
HETATM   21  C16 UNK     1      15.451   9.068  35.115  1.00  0.00     0.038 A 
HETATM   22  O2  UNK     1      16.109   8.594  31.507  1.00  0.00    -0.274 OA
HETATM   23  C18 UNK     1      14.844  10.273  32.662  1.00  0.00     0.040 A 
HETATM   24  C15 UNK     1      16.901   7.450  31.466  1.00  0.00     0.304 A 
HETATM   25  O4  UNK     1      17.312   6.995  30.403  1.00  0.00    -0.259 OA
HETATM   26  C20 UNK     1      14.358  10.820  33.847  1.00  0.00     0.026 A 
HETATM   27  C19 UNK     1      14.661  10.220  35.071  1.00  0.00     0.035 A 
HETATM   28 Cl1  UNK     1      14.057  10.902  36.532  1.00  0.00    -0.084 Cl
ENDBRANCH   3  17
TORSDOF 2
ENDMDL
MODEL 5
REMARK VINA RESULT:      -9.8      3.752      9.445
REMARK  2 active torsions:
REMARK  status: ('A' for Active; 'I' for Inactive)
REMARK       I    between atoms: C12_19  and  N1_7 
REMARK    1  A    between atoms: C3_10  and  N1_7 
REMARK    2  A    between atoms: C12_19  and  C9_16 
ROOT
HETATM    1  O3  UNK     1      19.057   5.623  33.187  1.00  0.00    -0.267 OA
HETATM    2  N1  UNK     1      17.595   4.682  31.591  1.00  0.00    -0.323 N 
HETATM    3  C12 UNK     1      18.063   5.662  32.471  1.00  0.00     0.262 C 
HETATM    4  H4  UNK     1      16.734   4.874  31.084  1.00  0.00     0.169 HD
ENDROOT
BRANCH   2   5
HETATM    5  C3  UNK     1      18.153   3.433  31.324  1.00  0.00     0.037 A 
HETATM    6  C5  UNK     1      18.247   2.479  32.332  1.00  0.00     0.067 A 
HETATM    7  C2  UNK     1      18.808   1.234  32.042  1.00  0.00     0.092 A 
HETATM    8  C1  UNK     1      19.282   0.907  30.770  1.00  0.00     0.004 A 
HETATM    9  O1  UNK     1      18.875   0.310  33.103  1.00  0.00    -0.275 OA
HETATM   10  C4  UNK     1      19.857  -0.427  30.554  1.00  0.00    -0.043 A 
HETATM   11  C6  UNK     1      19.179   1.882  29.769  1.00  0.00     0.017 A 
HETATM   12  C13 UNK     1      19.909  -1.285  31.582  1.00  0.00     0.090 A 
HETATM   13  C14 UNK     1      20.376  -0.807  29.198  1.00  0.00     0.049 C 
HETATM   14  C17 UNK     1      19.413  -0.956  32.930  1.00  0.00     0.288 A 
HETATM   15  O5  UNK     1      19.476  -1.768  33.847  1.00  0.00    -0.260 OA
HETATM   16  C7  UNK     1      18.618   3.135  30.044  1.00  0.00     0.030 A 
ENDBRANCH   2   5
BRANCH   3  17
HETATM   17  C9  UNK     1      17.205   6.864  32.488  1.00  0.00     0.108 A 
HETATM   18  C11 UNK     1      16.822   7.301  33.695  1.00  0.00     0.037 A 
HETATM   19  C8  UNK     1      15.976   8.478  33.814  1.00  0.00     0.001 A 
HETATM   20  C10 UNK     1      15.575   9.138  32.656  1.00  0.00     0.089 A 
HETATM   21  C16 UNK     1      15.551   8.968  35.051  1.00  0.00     0.038 A 
HETATM   22  O2  UNK     1      15.982   8.674  31.390  1.00  0.00    -0.274 OA
HETATM   23  C18 UNK     1      14.764  10.270  32.701  1.00  0.00     0.040 A 
HETATM   24  C15 UNK     1      16.790   7.551  31.244  1.00  0.00     0.304 A 
HETATM   25  O4  UNK     1      17.140   7.153  30.137  1.00  0.00    -0.259 OA
HETATM   26  C20 UNK     1      14.345  10.753  33.940  1.00  0.00     0.026 A 
HETATM   27  C19 UNK     1      14.738  10.104  35.111  1.00  0.00     0.035 A 
HETATM   28 Cl1  UNK     1      14.218  10.705  36.639  1.00  0.00    -0.084 Cl
ENDBRANCH   3  17
TORSDOF 2
ENDMDL
MODEL 6
REMARK VINA RESULT:      -9.7      8.371     13.705
REMARK  2 active torsions:
REMARK  status: ('A' for Active; 'I' for Inactive)
REMARK       I    between atoms: C12_19  and  N1_7 
REMARK    1  A    between atoms: C3_10  and  N1_7 
REMARK    2  A    between atoms: C12_19  and  C9_16 
ROOT
HETATM    1  O3  UNK     1      20.868  -4.026  37.403  1.00  0.00    -0.267 OA
HETATM    2  N1  UNK     1      19.718  -5.085  35.634  1.00  0.00    -0.323 N 
HETATM    3  C12 UNK     1      20.154  -4.005  36.407  1.00  0.00     0.262 C 
HETATM    4  H4  UNK     1      19.108  -4.887  34.844  1.00  0.00     0.169 HD
ENDROOT
BRANCH   2   5
HETATM    5  C3  UNK     1      19.998  -6.439  35.818  1.00  0.00     0.037 A 
HETATM    6  C5  UNK     1      19.533  -7.101  36.949  1.00  0.00     0.067 A 
HETATM    7  C2  UNK     1      19.824  -8.457  37.112  1.00  0.00     0.092 A 
HETATM    8  C1  UNK     1      20.569  -9.178  36.178  1.00  0.00     0.004 A 
HETATM    9  O1  UNK     1      19.325  -9.073  38.278  1.00  0.00    -0.275 OA
HETATM   10  C4  UNK     1      20.827 -10.602  36.430  1.00  0.00    -0.043 A 
HETATM   11  C6  UNK     1      21.028  -8.492  35.046  1.00  0.00     0.017 A 
HETATM   12  C13 UNK     1      20.341 -11.161  37.547  1.00  0.00     0.090 A 
HETATM   13  C14 UNK     1      21.625 -11.403  35.445  1.00  0.00     0.049 C 
HETATM   14  C17 UNK     1      19.553 -10.414  38.543  1.00  0.00     0.288 A 
HETATM   15  O5  UNK     1      19.123 -10.960  39.553  1.00  0.00    -0.260 OA
HETATM   16  C7  UNK     1      20.745  -7.133  34.867  1.00  0.00     0.030 A 
ENDBRANCH   2   5
BRANCH   3  17
HETATM   17  C9  UNK     1      19.652  -2.711  35.902  1.00  0.00     0.108 A 
HETATM   18  C11 UNK     1      18.895  -1.999  36.747  1.00  0.00     0.037 A 
HETATM   19  C8  UNK     1      18.356  -0.710  36.341  1.00  0.00     0.001 A 
HETATM   20  C10 UNK     1      18.641  -0.233  35.065  1.00  0.00     0.089 A 
HETATM   21  C16 UNK     1      17.562   0.065  37.189  1.00  0.00     0.038 A 
HETATM   22  O2  UNK     1      19.439  -0.987  34.181  1.00  0.00    -0.274 OA
HETATM   23  C18 UNK     1      18.155   0.992  34.615  1.00  0.00     0.040 A 
HETATM   24  C15 UNK     1      19.968  -2.223  34.541  1.00  0.00     0.304 A 
HETATM   25  O4  UNK     1      20.662  -2.872  33.765  1.00  0.00    -0.259 OA
HETATM   26  C20 UNK     1      17.363   1.759  35.467  1.00  0.00     0.026 A 
HETATM   27  C19 UNK     1      17.068   1.297  36.751  1.00  0.00     0.035 A 
HETATM   28 Cl1  UNK     1      16.089   2.250  37.800  1.00  0.00    -0.084 Cl
ENDBRANCH   3  17
TORSDOF 2
ENDMDL
MODEL 7
REMARK VINA RESULT:      -9.6      1.314      1.992
REMARK  2 active torsions:
REMARK  status: ('A' for Active; 'I' for Inactive)
REMARK       I    between atoms: C12_19  and  N1_7 
REMARK    1  A    between atoms: C3_10  and  N1_7 
REMARK    2  A    between atoms: C12_19  and  C9_16 
ROOT
HETATM    1  O3  UNK     1      17.765   3.079  33.130  1.00  0.00    -0.267 OA
HETATM    2  N1  UNK     1      18.140   4.628  31.389  1.00  0.00    -0.323 N 
HETATM    3  C12 UNK     1      18.133   3.370  31.998  1.00  0.00     0.262 C 
HETATM    4  H4  UNK     1      18.501   4.693  30.440  1.00  0.00     0.169 HD
ENDROOT
BRANCH   2   5
HETATM    5  C3  UNK     1      17.728   5.845  31.931  1.00  0.00     0.037 A 
HETATM    6  C5  UNK     1      18.662   6.716  32.483  1.00  0.00     0.067 A 
HETATM    7  C2  UNK     1      18.228   7.930  33.019  1.00  0.00     0.092 A 
HETATM    8  C1  UNK     1      16.883   8.305  33.023  1.00  0.00     0.004 A 
HETATM    9  O1  UNK     1      19.220   8.770  33.563  1.00  0.00    -0.275 OA
HETATM   10  C4  UNK     1      16.515   9.601  33.608  1.00  0.00    -0.043 A 
HETATM   11  C6  UNK     1      15.959   7.413  32.463  1.00  0.00     0.017 A 
HETATM   12  C13 UNK     1      17.480  10.380  34.119  1.00  0.00     0.090 A 
HETATM   13  C14 UNK     1      15.078  10.033  33.627  1.00  0.00     0.049 C 
HETATM   14  C17 UNK     1      18.903   9.998  34.122  1.00  0.00     0.288 A 
HETATM   15  O5  UNK     1      19.758  10.737  34.598  1.00  0.00    -0.260 OA
HETATM   16  C7  UNK     1      16.379   6.193  31.921  1.00  0.00     0.030 A 
ENDBRANCH   2   5
BRANCH   3  17
HETATM   17  C9  UNK     1      18.645   2.309  31.108  1.00  0.00     0.108 A 
HETATM   18  C11 UNK     1      19.073   1.190  31.707  1.00  0.00     0.037 A 
HETATM   19  C8  UNK     1      19.595   0.088  30.914  1.00  0.00     0.001 A 
HETATM   20  C10 UNK     1      19.639   0.217  29.529  1.00  0.00     0.089 A 
HETATM   21  C16 UNK     1      20.053  -1.097  31.495  1.00  0.00     0.038 A 
HETATM   22  O2  UNK     1      19.187   1.396  28.905  1.00  0.00    -0.274 OA
HETATM   23  C18 UNK     1      20.128  -0.801  28.712  1.00  0.00     0.040 A 
HETATM   24  C15 UNK     1      18.684   2.467  29.637  1.00  0.00     0.304 A 
HETATM   25  O4  UNK     1      18.291   3.491  29.085  1.00  0.00    -0.259 OA
HETATM   26  C20 UNK     1      20.583  -1.979  29.301  1.00  0.00     0.026 A 
HETATM   27  C19 UNK     1      20.545  -2.127  30.689  1.00  0.00     0.035 A 
HETATM   28 Cl1  UNK     1      21.108  -3.587  31.410  1.00  0.00    -0.084 Cl
ENDBRANCH   3  17
TORSDOF 2
ENDMDL
MODEL 8
REMARK VINA RESULT:      -9.4      7.589     12.598
REMARK  2 active torsions:
REMARK  status: ('A' for Active; 'I' for Inactive)
REMARK       I    between atoms: C12_19  and  N1_7 
REMARK    1  A    between atoms: C3_10  and  N1_7 
REMARK    2  A    between atoms: C12_19  and  C9_16 
ROOT
HETATM    1  O3  UNK     1      20.535  -2.821  36.963  1.00  0.00    -0.267 OA
HETATM    2  N1  UNK     1      19.556  -4.445  35.558  1.00  0.00    -0.323 N 
HETATM    3  C12 UNK     1      19.978  -3.164  35.927  1.00  0.00     0.262 C 
HETATM    4  H4  UNK     1      19.088  -4.548  34.660  1.00  0.00     0.169 HD
ENDROOT
BRANCH   2   5
HETATM    5  C3  UNK     1      19.674  -5.629  36.285  1.00  0.00     0.037 A 
HETATM    6  C5  UNK     1      20.684  -5.771  37.231  1.00  0.00     0.067 A 
HETATM    7  C2  UNK     1      20.783  -6.964  37.948  1.00  0.00     0.092 A 
HETATM    8  C1  UNK     1      19.901  -8.028  37.751  1.00  0.00     0.004 A 
HETATM    9  O1  UNK     1      21.825  -7.048  38.893  1.00  0.00    -0.275 OA
HETATM   10  C4  UNK     1      20.079  -9.248  38.550  1.00  0.00    -0.043 A 
HETATM   11  C6  UNK     1      18.891  -7.866  36.793  1.00  0.00     0.017 A 
HETATM   12  C13 UNK     1      21.080  -9.299  39.440  1.00  0.00     0.090 A 
HETATM   13  C14 UNK     1      19.148 -10.409  38.361  1.00  0.00     0.049 C 
HETATM   14  C17 UNK     1      22.018  -8.185  39.661  1.00  0.00     0.288 A 
HETATM   15  O5  UNK     1      22.921  -8.268  40.485  1.00  0.00    -0.260 OA
HETATM   16  C7  UNK     1      18.779  -6.675  36.066  1.00  0.00     0.030 A 
ENDBRANCH   2   5
BRANCH   3  17
HETATM   17  C9  UNK     1      19.682  -2.152  34.893  1.00  0.00     0.108 A 
HETATM   18  C11 UNK     1      20.215  -2.368  33.683  1.00  0.00     0.037 A 
HETATM   19  C8  UNK     1      19.979  -1.427  32.600  1.00  0.00     0.001 A 
HETATM   20  C10 UNK     1      19.194  -0.304  32.842  1.00  0.00     0.089 A 
HETATM   21  C16 UNK     1      20.515  -1.612  31.323  1.00  0.00     0.038 A 
HETATM   22  O2  UNK     1      18.636  -0.083  34.117  1.00  0.00    -0.274 OA
HETATM   23  C18 UNK     1      18.931   0.636  31.848  1.00  0.00     0.040 A 
HETATM   24  C15 UNK     1      18.844  -0.965  35.173  1.00  0.00     0.304 A 
HETATM   25  O4  UNK     1      18.354  -0.764  36.280  1.00  0.00    -0.259 OA
HETATM   26  C20 UNK     1      19.469   0.443  30.577  1.00  0.00     0.026 A 
HETATM   27  C19 UNK     1      20.259  -0.678  30.315  1.00  0.00     0.035 A 
HETATM   28 Cl1  UNK     1      20.921  -0.910  28.742  1.00  0.00    -0.084 Cl
ENDBRANCH   3  17
TORSDOF 2
ENDMDL
MODEL 9
REMARK VINA RESULT:      -9.4      7.830     10.343
REMARK  2 active torsions:
REMARK  status: ('A' for Active; 'I' for Inactive)
REMARK       I    between atoms: C12_19  and  N1_7 
REMARK    1  A    between atoms: C3_10  and  N1_7 
REMARK    2  A    between atoms: C12_19  and  C9_16 
ROOT
HETATM    1  O3  UNK     1      21.036  -4.286  37.773  1.00  0.00    -0.267 OA
HETATM    2  N1  UNK     1      18.996  -4.253  36.585  1.00  0.00    -0.323 N 
HETATM    3  C12 UNK     1      20.105  -4.841  37.201  1.00  0.00     0.262 C 
HETATM    4  H4  UNK     1      18.322  -4.869  36.136  1.00  0.00     0.169 HD
ENDROOT
BRANCH   2   5
HETATM    5  C3  UNK     1      18.693  -2.896  36.482  1.00  0.00     0.037 A 
HETATM    6  C5  UNK     1      18.815  -2.244  35.260  1.00  0.00     0.067 A 
HETATM    7  C2  UNK     1      18.504  -0.885  35.179  1.00  0.00     0.092 A 
HETATM    8  C1  UNK     1      18.074  -0.151  36.286  1.00  0.00     0.004 A 
HETATM    9  O1  UNK     1      18.647  -0.279  33.915  1.00  0.00    -0.275 OA
HETATM   10  C4  UNK     1      17.769   1.275  36.110  1.00  0.00    -0.043 A 
HETATM   11  C6  UNK     1      17.958  -0.827  37.508  1.00  0.00     0.017 A 
HETATM   12  C13 UNK     1      17.914   1.824  34.896  1.00  0.00     0.090 A 
HETATM   13  C14 UNK     1      17.304   2.091  37.280  1.00  0.00     0.049 C 
HETATM   14  C17 UNK     1      18.367   1.064  33.718  1.00  0.00     0.288 A 
HETATM   15  O5  UNK     1      18.487   1.600  32.622  1.00  0.00    -0.260 OA
HETATM   16  C7  UNK     1      18.265  -2.189  37.605  1.00  0.00     0.030 A 
ENDBRANCH   2   5
BRANCH   3  17
HETATM   17  C9  UNK     1      20.086  -6.315  37.110  1.00  0.00     0.108 A 
HETATM   18  C11 UNK     1      21.254  -6.907  36.827  1.00  0.00     0.037 A 
HETATM   19  C8  UNK     1      21.335  -8.355  36.719  1.00  0.00     0.001 A 
HETATM   20  C10 UNK     1      20.183  -9.110  36.914  1.00  0.00     0.089 A 
HETATM   21  C16 UNK     1      22.531  -9.014  36.425  1.00  0.00     0.038 A 
HETATM   22  O2  UNK     1      18.957  -8.482  37.212  1.00  0.00    -0.274 OA
HETATM   23  C18 UNK     1      20.193 -10.500  36.823  1.00  0.00     0.040 A 
HETATM   24  C15 UNK     1      18.848  -7.099  37.322  1.00  0.00     0.304 A 
HETATM   25  O4  UNK     1      17.777  -6.561  37.582  1.00  0.00    -0.259 OA
HETATM   26  C20 UNK     1      21.390 -11.149  36.529  1.00  0.00     0.026 A 
HETATM   27  C19 UNK     1      22.557 -10.408  36.331  1.00  0.00     0.035 A 
HETATM   28 Cl1  UNK     1      24.034 -11.216  35.969  1.00  0.00    -0.084 Cl
ENDBRANCH   3  17
TORSDOF 2
ENDMDL
MODEL 10
REMARK VINA RESULT:      -9.3      8.051     10.396
REMARK  2 active torsions:
REMARK  status: ('A' for Active; 'I' for Inactive)
REMARK       I    between atoms: C12_19  and  N1_7 
REMARK    1  A    between atoms: C3_10  and  N1_7 
REMARK    2  A    between atoms: C12_19  and  C9_16 
ROOT
HETATM    1  O3  UNK     1      21.261  -4.215  37.162  1.00  0.00    -0.267 OA
HETATM    2  N1  UNK     1      19.006  -4.188  36.465  1.00  0.00    -0.323 N 
HETATM    3  C12 UNK     1      20.225  -4.773  36.818  1.00  0.00     0.262 C 
HETATM    4  H4  UNK     1      18.248  -4.806  36.183  1.00  0.00     0.169 HD
ENDROOT
BRANCH   2   5
HETATM    5  C3  UNK     1      18.686  -2.831  36.424  1.00  0.00     0.037 A 
HETATM    6  C5  UNK     1      18.789  -2.124  35.231  1.00  0.00     0.067 A 
HETATM    7  C2  UNK     1      18.462  -0.767  35.213  1.00  0.00     0.092 A 
HETATM    8  C1  UNK     1      18.034  -0.087  36.355  1.00  0.00     0.004 A 
HETATM    9  O1  UNK     1      18.585  -0.105  33.975  1.00  0.00    -0.275 OA
HETATM   10  C4  UNK     1      17.712   1.342  36.245  1.00  0.00    -0.043 A 
HETATM   11  C6  UNK     1      17.939  -0.818  37.547  1.00  0.00     0.017 A 
HETATM   12  C13 UNK     1      17.838   1.945  35.055  1.00  0.00     0.090 A 
HETATM   13  C14 UNK     1      17.250   2.100  37.455  1.00  0.00     0.049 C 
HETATM   14  C17 UNK     1      18.288   1.242  33.840  1.00  0.00     0.288 A 
HETATM   15  O5  UNK     1      18.391   1.828  32.768  1.00  0.00    -0.260 OA
HETATM   16  C7  UNK     1      18.262  -2.179  37.581  1.00  0.00     0.030 A 
ENDBRANCH   2   5
BRANCH   3  17
HETATM   17  C9  UNK     1      20.187  -6.247  36.743  1.00  0.00     0.108 A 
HETATM   18  C11 UNK     1      19.927  -6.892  37.888  1.00  0.00     0.037 A 
HETATM   19  C8  UNK     1      19.867  -8.345  37.915  1.00  0.00     0.001 A 
HETATM   20  C10 UNK     1      20.084  -9.049  36.735  1.00  0.00     0.089 A 
HETATM   21  C16 UNK     1      19.600  -9.058  39.086  1.00  0.00     0.038 A 
HETATM   22  O2  UNK     1      20.357  -8.365  35.533  1.00  0.00    -0.274 OA
HETATM   23  C18 UNK     1      20.042 -10.441  36.693  1.00  0.00     0.040 A 
HETATM   24  C15 UNK     1      20.420  -6.977  35.477  1.00  0.00     0.304 A 
HETATM   25  O4  UNK     1      20.658  -6.390  34.426  1.00  0.00    -0.259 OA
HETATM   26  C20 UNK     1      19.775 -11.144  37.865  1.00  0.00     0.026 A 
HETATM   27  C19 UNK     1      19.554 -10.455  39.059  1.00  0.00     0.035 A 
HETATM   28 Cl1  UNK     1      19.224 -11.330  40.505  1.00  0.00    -0.084 Cl
ENDBRANCH   3  17
TORSDOF 2
ENDMDL
