MODEL 1
REMARK VINA RESULT:     -11.0      0.000      0.000
REMARK  5 active torsions:
REMARK  status: ('A' for Active; 'I' for Inactive)
REMARK    1  A    between atoms: C18_26  and  O1_2 
REMARK    2  A    between atoms: C4_12  and  O1_2 
REMARK       I    between atoms: C19_27  and  N1_7 
REMARK    3  A    between atoms: N1_7  and  N2_8 
REMARK       I    between atoms: C22_30  and  N2_8 
REMARK    4  A    between atoms: C11_19  and  C19_27 
REMARK    5  A    between atoms: C18_26  and  C22_30 
ROOT
HETATM    1  O5  UNK     1      21.336  -2.098  35.433  1.00  0.00    -0.269 OA
HETATM    2  N2  UNK     1      19.025  -1.851  35.444  1.00  0.00    -0.265 N 
HETATM    3  C22 UNK     1      20.221  -2.430  35.828  1.00  0.00     0.260 C 
HETATM    4  H15 UNK     1      18.120  -2.137  35.803  1.00  0.00     0.190 HD
ENDROOT
BRANCH   2   5
HETATM    5  N1  UNK     1      19.047  -0.813  34.545  1.00  0.00    -0.263 N 
HETATM    6  C19 UNK     1      18.128   0.207  34.678  1.00  0.00     0.276 C 
HETATM    7  O4  UNK     1      17.259   0.297  35.543  1.00  0.00    -0.266 OA
HETATM    8  H14 UNK     1      19.777  -0.839  33.842  1.00  0.00     0.190 HD
BRANCH   6   9
HETATM    9  C11 UNK     1      18.279   1.241  33.647  1.00  0.00     0.110 A 
HETATM   10  C17 UNK     1      18.546   0.905  32.232  1.00  0.00     0.304 A 
HETATM   11  O2  UNK     1      18.669   1.974  31.348  1.00  0.00    -0.274 OA
HETATM   12  O3  UNK     1      18.654  -0.256  31.850  1.00  0.00    -0.259 OA
HETATM   13  C7  UNK     1      18.545   3.310  31.775  1.00  0.00     0.089 A 
HETATM   14  C16 UNK     1      18.682   4.312  30.817  1.00  0.00     0.038 A 
HETATM   15  C5  UNK     1      18.294   3.604  33.112  1.00  0.00    -0.001 A 
HETATM   16  C21 UNK     1      18.565   5.643  31.209  1.00  0.00     0.003 A 
HETATM   17  C20 UNK     1      18.314   5.958  32.548  1.00  0.00     0.001 A 
HETATM   18  C15 UNK     1      18.177   4.942  33.498  1.00  0.00     0.014 A 
HETATM   19  C12 UNK     1      18.160   2.509  34.060  1.00  0.00     0.037 A 
ENDBRANCH   6   9
ENDBRANCH   2   5
BRANCH   3  20
HETATM   20  C18 UNK     1      20.002  -3.551  36.821  1.00  0.00     0.280 C 
BRANCH  20  21
HETATM   21  O1  UNK     1      20.784  -4.676  36.482  1.00  0.00    -0.341 OA
BRANCH  21  22
HETATM   22  C4  UNK     1      20.529  -5.844  37.161  1.00  0.00     0.087 A 
HETATM   23  C3  UNK     1      20.218  -7.024  36.496  1.00  0.00     0.055 A 
HETATM   24 Br1  UNK     1      20.154  -6.956  34.580  1.00  0.00    -0.047 Br
HETATM   25  C1  UNK     1      19.965  -8.200  37.220  1.00  0.00    -0.006 A 
HETATM   26  C2  UNK     1      20.032  -8.170  38.634  1.00  0.00    -0.024 A 
HETATM   27  C8  UNK     1      19.647  -9.405  36.572  1.00  0.00     0.014 A 
HETATM   28  C10 UNK     1      19.779  -9.348  39.358  1.00  0.00     0.012 A 
HETATM   29  C6  UNK     1      20.349  -6.966  39.282  1.00  0.00     0.015 A 
HETATM   30  C14 UNK     1      19.464 -10.535  38.698  1.00  0.00     0.001 A 
HETATM   31  C13 UNK     1      19.399 -10.564  37.307  1.00  0.00     0.001 A 
HETATM   32  C9  UNK     1      20.598  -5.807  38.546  1.00  0.00     0.039 A 
ENDBRANCH  21  22
ENDBRANCH  20  21
ENDBRANCH   3  20
TORSDOF 5
ENDMDL
MODEL 2
REMARK VINA RESULT:     -10.9      1.949      2.723
REMARK  5 active torsions:
REMARK  status: ('A' for Active; 'I' for Inactive)
REMARK    1  A    between atoms: C18_26  and  O1_2 
REMARK    2  A    between atoms: C4_12  and  O1_2 
REMARK       I    between atoms: C19_27  and  N1_7 
REMARK    3  A    between atoms: N1_7  and  N2_8 
REMARK       I    between atoms: C22_30  and  N2_8 
REMARK    4  A    between atoms: C11_19  and  C19_27 
REMARK    5  A    between atoms: C18_26  and  C22_30 
ROOT
HETATM    1  O5  UNK     1      19.436  -1.412  36.480  1.00  0.00    -0.269 OA
HETATM    2  N2  UNK     1      20.067  -3.032  34.939  1.00  0.00    -0.265 N 
HETATM    3  C22 UNK     1      19.856  -2.535  36.212  1.00  0.00     0.260 C 
HETATM    4  H15 UNK     1      20.398  -3.973  34.749  1.00  0.00     0.190 HD
ENDROOT
BRANCH   2   5
HETATM    5  N1  UNK     1      19.796  -2.231  33.857  1.00  0.00    -0.263 N 
HETATM    6  C19 UNK     1      20.538  -2.387  32.705  1.00  0.00     0.276 C 
HETATM    7  O4  UNK     1      21.449  -3.193  32.529  1.00  0.00    -0.266 OA
HETATM    8  H14 UNK     1      19.023  -1.581  33.959  1.00  0.00     0.190 HD
BRANCH   6   9
HETATM    9  C11 UNK     1      20.129  -1.463  31.641  1.00  0.00     0.110 A 
HETATM   10  C17 UNK     1      20.313  -1.783  30.208  1.00  0.00     0.304 A 
HETATM   11  O2  UNK     1      19.884  -0.826  29.293  1.00  0.00    -0.274 OA
HETATM   12  O3  UNK     1      20.818  -2.839  29.840  1.00  0.00    -0.259 OA
HETATM   13  C7  UNK     1      19.302   0.389  29.705  1.00  0.00     0.089 A 
HETATM   14  C16 UNK     1      18.902   1.284  28.715  1.00  0.00     0.038 A 
HETATM   15  C5  UNK     1      19.138   0.670  31.058  1.00  0.00    -0.001 A 
HETATM   16  C21 UNK     1      18.324   2.494  29.093  1.00  0.00     0.003 A 
HETATM   17  C20 UNK     1      18.151   2.794  30.446  1.00  0.00     0.001 A 
HETATM   18  C15 UNK     1      18.556   1.886  31.428  1.00  0.00     0.014 A 
HETATM   19  C12 UNK     1      19.576  -0.310  32.039  1.00  0.00     0.037 A 
ENDBRANCH   6   9
ENDBRANCH   2   5
BRANCH   3  20
HETATM   20  C18 UNK     1      20.206  -3.556  37.272  1.00  0.00     0.280 C 
BRANCH  20  21
HETATM   21  O1  UNK     1      20.732  -4.726  36.682  1.00  0.00    -0.341 OA
BRANCH  21  22
HETATM   22  C4  UNK     1      20.480  -5.918  37.321  1.00  0.00     0.087 A 
HETATM   23  C3  UNK     1      20.231  -7.088  36.614  1.00  0.00     0.055 A 
HETATM   24 Br1  UNK     1      20.249  -6.972  34.700  1.00  0.00    -0.047 Br
HETATM   25  C1  UNK     1      19.979  -8.289  37.297  1.00  0.00    -0.006 A 
HETATM   26  C2  UNK     1      19.983  -8.293  38.713  1.00  0.00    -0.024 A 
HETATM   27  C8  UNK     1      19.723  -9.484  36.606  1.00  0.00     0.014 A 
HETATM   28  C10 UNK     1      19.731  -9.495  39.395  1.00  0.00     0.012 A 
HETATM   29  C6  UNK     1      20.238  -7.098  39.403  1.00  0.00     0.015 A 
HETATM   30  C14 UNK     1      19.478 -10.673  38.693  1.00  0.00     0.001 A 
HETATM   31  C13 UNK     1      19.475 -10.669  37.301  1.00  0.00     0.001 A 
HETATM   32  C9  UNK     1      20.487  -5.914  38.708  1.00  0.00     0.039 A 
ENDBRANCH  21  22
ENDBRANCH  20  21
ENDBRANCH   3  20
TORSDOF 5
ENDMDL
MODEL 3
REMARK VINA RESULT:     -10.3      6.440      9.782
REMARK  5 active torsions:
REMARK  status: ('A' for Active; 'I' for Inactive)
REMARK    1  A    between atoms: C18_26  and  O1_2 
REMARK    2  A    between atoms: C4_12  and  O1_2 
REMARK       I    between atoms: C19_27  and  N1_7 
REMARK    3  A    between atoms: N1_7  and  N2_8 
REMARK       I    between atoms: C22_30  and  N2_8 
REMARK    4  A    between atoms: C11_19  and  C19_27 
REMARK    5  A    between atoms: C18_26  and  C22_30 
ROOT
HETATM    1  O5  UNK     1      18.582   5.551  33.409  1.00  0.00    -0.269 OA
HETATM    2  N2  UNK     1      16.755   5.980  32.039  1.00  0.00    -0.265 N 
HETATM    3  C22 UNK     1      17.931   5.341  32.389  1.00  0.00     0.260 C 
HETATM    4  H15 UNK     1      16.230   5.770  31.196  1.00  0.00     0.190 HD
ENDROOT
BRANCH   2   5
HETATM    5  N1  UNK     1      16.242   6.937  32.879  1.00  0.00    -0.263 N 
HETATM    6  C19 UNK     1      15.912   8.173  32.363  1.00  0.00     0.276 C 
HETATM    7  O4  UNK     1      16.029   8.528  31.192  1.00  0.00    -0.266 OA
HETATM    8  H14 UNK     1      16.098   6.661  33.844  1.00  0.00     0.190 HD
BRANCH   6   9
HETATM    9  C11 UNK     1      15.376   9.085  33.381  1.00  0.00     0.110 A 
HETATM   10  C17 UNK     1      15.925   9.139  34.753  1.00  0.00     0.304 A 
HETATM   11  O2  UNK     1      15.331  10.046  35.628  1.00  0.00    -0.274 OA
HETATM   12  O3  UNK     1      16.857   8.426  35.108  1.00  0.00    -0.259 OA
HETATM   13  C7  UNK     1      14.262  10.872  35.231  1.00  0.00     0.089 A 
HETATM   14  C16 UNK     1      13.734  11.749  36.177  1.00  0.00     0.038 A 
HETATM   15  C5  UNK     1      13.761  10.803  33.935  1.00  0.00    -0.001 A 
HETATM   16  C21 UNK     1      12.676  12.577  35.813  1.00  0.00     0.003 A 
HETATM   17  C20 UNK     1      12.159  12.523  34.516  1.00  0.00     0.001 A 
HETATM   18  C15 UNK     1      12.699  11.639  33.578  1.00  0.00     0.014 A 
HETATM   19  C12 UNK     1      14.360   9.867  32.997  1.00  0.00     0.037 A 
ENDBRANCH   6   9
ENDBRANCH   2   5
BRANCH   3  20
HETATM   20  C18 UNK     1      18.340   4.320  31.349  1.00  0.00     0.280 C 
BRANCH  20  21
HETATM   21  O1  UNK     1      17.857   3.039  31.693  1.00  0.00    -0.341 OA
BRANCH  21  22
HETATM   22  C4  UNK     1      18.501   1.957  31.140  1.00  0.00     0.087 A 
HETATM   23  C3  UNK     1      18.818   0.833  31.892  1.00  0.00     0.055 A 
HETATM   24 Br1  UNK     1      18.321   0.852  33.744  1.00  0.00    -0.047 Br
HETATM   25  C1  UNK     1      19.476  -0.256  31.296  1.00  0.00    -0.006 A 
HETATM   26  C2  UNK     1      19.810  -0.195  29.922  1.00  0.00    -0.024 A 
HETATM   27  C8  UNK     1      19.808  -1.403  32.034  1.00  0.00     0.014 A 
HETATM   28  C10 UNK     1      20.467  -1.284  29.327  1.00  0.00     0.012 A 
HETATM   29  C6  UNK     1      19.477   0.953  29.184  1.00  0.00     0.015 A 
HETATM   30  C14 UNK     1      20.790  -2.416  30.075  1.00  0.00     0.001 A 
HETATM   31  C13 UNK     1      20.461  -2.476  31.426  1.00  0.00     0.001 A 
HETATM   32  C9  UNK     1      18.824   2.025  29.793  1.00  0.00     0.039 A 
ENDBRANCH  21  22
ENDBRANCH  20  21
ENDBRANCH   3  20
TORSDOF 5
ENDMDL
MODEL 4
REMARK VINA RESULT:     -10.1      2.144     11.413
REMARK  5 active torsions:
REMARK  status: ('A' for Active; 'I' for Inactive)
REMARK    1  A    between atoms: C18_26  and  O1_2 
REMARK    2  A    between atoms: C4_12  and  O1_2 
REMARK       I    between atoms: C19_27  and  N1_7 
REMARK    3  A    between atoms: N1_7  and  N2_8 
REMARK       I    between atoms: C22_30  and  N2_8 
REMARK    4  A    between atoms: C11_19  and  C19_27 
REMARK    5  A    between atoms: C18_26  and  C22_30 
ROOT
HETATM    1  O5  UNK     1      19.642  -1.715  33.543  1.00  0.00    -0.269 OA
HETATM    2  N2  UNK     1      18.637  -1.875  35.632  1.00  0.00    -0.265 N 
HETATM    3  C22 UNK     1      19.017  -1.217  34.476  1.00  0.00     0.260 C 
HETATM    4  H15 UNK     1      18.104  -1.440  36.378  1.00  0.00     0.190 HD
ENDROOT
BRANCH   2   5
HETATM    5  N1  UNK     1      18.970  -3.199  35.785  1.00  0.00    -0.263 N 
HETATM    6  C19 UNK     1      19.744  -3.574  36.862  1.00  0.00     0.276 C 
HETATM    7  O4  UNK     1      20.188  -2.831  37.735  1.00  0.00    -0.266 OA
HETATM    8  H14 UNK     1      18.586  -3.843  35.101  1.00  0.00     0.190 HD
BRANCH   6   9
HETATM    9  C11 UNK     1      20.012  -5.017  36.889  1.00  0.00     0.110 A 
HETATM   10  C17 UNK     1      20.314  -5.783  35.660  1.00  0.00     0.304 A 
HETATM   11  O2  UNK     1      20.551  -7.146  35.815  1.00  0.00    -0.274 OA
HETATM   12  O3  UNK     1      20.357  -5.248  34.557  1.00  0.00    -0.259 OA
HETATM   13  C7  UNK     1      20.507  -7.770  37.077  1.00  0.00     0.089 A 
HETATM   14  C16 UNK     1      20.759  -9.139  37.132  1.00  0.00     0.038 A 
HETATM   15  C5  UNK     1      20.220  -7.031  38.220  1.00  0.00    -0.001 A 
HETATM   16  C21 UNK     1      20.722  -9.784  38.366  1.00  0.00     0.003 A 
HETATM   17  C20 UNK     1      20.435  -9.058  39.526  1.00  0.00     0.001 A 
HETATM   18  C15 UNK     1      20.185  -7.685  39.455  1.00  0.00     0.014 A 
HETATM   19  C12 UNK     1      19.969  -5.604  38.092  1.00  0.00     0.037 A 
ENDBRANCH   6   9
ENDBRANCH   2   5
BRANCH   3  20
HETATM   20  C18 UNK     1      18.563   0.226  34.483  1.00  0.00     0.280 C 
BRANCH  20  21
HETATM   21  O1  UNK     1      18.263   0.660  33.174  1.00  0.00    -0.341 OA
BRANCH  21  22
HETATM   22  C4  UNK     1      18.327   2.012  32.931  1.00  0.00     0.087 A 
HETATM   23  C3  UNK     1      18.595   2.515  31.664  1.00  0.00     0.055 A 
HETATM   24 Br1  UNK     1      18.874   1.240  30.259  1.00  0.00    -0.047 Br
HETATM   25  C1  UNK     1      18.652   3.902  31.450  1.00  0.00    -0.006 A 
HETATM   26  C2  UNK     1      18.434   4.780  32.538  1.00  0.00    -0.024 A 
HETATM   27  C8  UNK     1      18.921   4.436  30.179  1.00  0.00     0.014 A 
HETATM   28  C10 UNK     1      18.491   6.167  32.323  1.00  0.00     0.012 A 
HETATM   29  C6  UNK     1      18.165   4.246  33.809  1.00  0.00     0.015 A 
HETATM   30  C14 UNK     1      18.760   6.680  31.054  1.00  0.00     0.001 A 
HETATM   31  C13 UNK     1      18.974   5.816  29.984  1.00  0.00     0.001 A 
HETATM   32  C9  UNK     1      18.112   2.866  34.003  1.00  0.00     0.039 A 
ENDBRANCH  21  22
ENDBRANCH  20  21
ENDBRANCH   3  20
TORSDOF 5
ENDMDL
MODEL 5
REMARK VINA RESULT:     -10.0      2.126     10.702
REMARK  5 active torsions:
REMARK  status: ('A' for Active; 'I' for Inactive)
REMARK    1  A    between atoms: C18_26  and  O1_2 
REMARK    2  A    between atoms: C4_12  and  O1_2 
REMARK       I    between atoms: C19_27  and  N1_7 
REMARK    3  A    between atoms: N1_7  and  N2_8 
REMARK       I    between atoms: C22_30  and  N2_8 
REMARK    4  A    between atoms: C11_19  and  C19_27 
REMARK    5  A    between atoms: C18_26  and  C22_30 
ROOT
HETATM    1  O5  UNK     1      17.894  -1.004  37.810  1.00  0.00    -0.269 OA
HETATM    2  N2  UNK     1      18.155  -2.257  35.871  1.00  0.00    -0.265 N 
HETATM    3  C22 UNK     1      17.896  -1.102  36.585  1.00  0.00     0.260 C 
HETATM    4  H15 UNK     1      18.167  -2.301  34.856  1.00  0.00     0.190 HD
ENDROOT
BRANCH   2   5
HETATM    5  N1  UNK     1      18.436  -3.414  36.554  1.00  0.00    -0.263 N 
HETATM    6  C19 UNK     1      19.544  -4.152  36.194  1.00  0.00     0.276 C 
HETATM    7  O4  UNK     1      20.339  -3.881  35.297  1.00  0.00    -0.266 OA
HETATM    8  H14 UNK     1      17.819  -3.644  37.326  1.00  0.00     0.190 HD
BRANCH   6   9
HETATM    9  C11 UNK     1      19.712  -5.356  37.017  1.00  0.00     0.110 A 
HETATM   10  C17 UNK     1      18.642  -6.368  37.154  1.00  0.00     0.304 A 
HETATM   11  O2  UNK     1      18.921  -7.468  37.962  1.00  0.00    -0.274 OA
HETATM   12  O3  UNK     1      17.561  -6.251  36.586  1.00  0.00    -0.259 OA
HETATM   13  C7  UNK     1      20.160  -7.614  38.617  1.00  0.00     0.089 A 
HETATM   14  C16 UNK     1      20.347  -8.749  39.403  1.00  0.00     0.038 A 
HETATM   15  C5  UNK     1      21.152  -6.649  38.474  1.00  0.00    -0.001 A 
HETATM   16  C21 UNK     1      21.561  -8.920  40.064  1.00  0.00     0.003 A 
HETATM   17  C20 UNK     1      22.569  -7.962  39.933  1.00  0.00     0.001 A 
HETATM   18  C15 UNK     1      22.367  -6.829  39.140  1.00  0.00     0.014 A 
HETATM   19  C12 UNK     1      20.891  -5.489  37.636  1.00  0.00     0.037 A 
ENDBRANCH   6   9
ENDBRANCH   2   5
BRANCH   3  20
HETATM   20  C18 UNK     1      17.611   0.068  35.668  1.00  0.00     0.280 C 
BRANCH  20  21
HETATM   21  O1  UNK     1      18.787   0.475  35.001  1.00  0.00    -0.341 OA
BRANCH  21  22
HETATM   22  C4  UNK     1      18.634   1.111  33.792  1.00  0.00     0.087 A 
HETATM   23  C3  UNK     1      18.888   0.465  32.588  1.00  0.00     0.055 A 
HETATM   24 Br1  UNK     1      19.468  -1.360  32.682  1.00  0.00    -0.047 Br
HETATM   25  C1  UNK     1      18.720   1.145  31.370  1.00  0.00    -0.006 A 
HETATM   26  C2  UNK     1      18.288   2.492  31.383  1.00  0.00    -0.024 A 
HETATM   27  C8  UNK     1      18.971   0.515  30.140  1.00  0.00     0.014 A 
HETATM   28  C10 UNK     1      18.120   3.171  30.165  1.00  0.00     0.012 A 
HETATM   29  C6  UNK     1      18.037   3.122  32.613  1.00  0.00     0.015 A 
HETATM   30  C14 UNK     1      18.375   2.530  28.952  1.00  0.00     0.001 A 
HETATM   31  C13 UNK     1      18.798   1.204  28.939  1.00  0.00     0.001 A 
HETATM   32  C9  UNK     1      18.209   2.432  33.813  1.00  0.00     0.039 A 
ENDBRANCH  21  22
ENDBRANCH  20  21
ENDBRANCH   3  20
TORSDOF 5
ENDMDL
MODEL 6
REMARK VINA RESULT:     -10.0      1.555      2.327
REMARK  5 active torsions:
REMARK  status: ('A' for Active; 'I' for Inactive)
REMARK    1  A    between atoms: C18_26  and  O1_2 
REMARK    2  A    between atoms: C4_12  and  O1_2 
REMARK       I    between atoms: C19_27  and  N1_7 
REMARK    3  A    between atoms: N1_7  and  N2_8 
REMARK       I    between atoms: C22_30  and  N2_8 
REMARK    4  A    between atoms: C11_19  and  C19_27 
REMARK    5  A    between atoms: C18_26  and  C22_30 
ROOT
HETATM    1  O5  UNK     1      20.465  -3.563  34.714  1.00  0.00    -0.269 OA
HETATM    2  N2  UNK     1      18.946  -2.194  35.816  1.00  0.00    -0.265 N 
HETATM    3  C22 UNK     1      19.828  -3.255  35.717  1.00  0.00     0.260 C 
HETATM    4  H15 UNK     1      18.448  -1.953  36.667  1.00  0.00     0.190 HD
ENDROOT
BRANCH   2   5
HETATM    5  N1  UNK     1      18.739  -1.395  34.718  1.00  0.00    -0.263 N 
HETATM    6  C19 UNK     1      18.939  -0.035  34.833  1.00  0.00     0.276 C 
HETATM    7  O4  UNK     1      19.295   0.566  35.844  1.00  0.00    -0.266 OA
HETATM    8  H14 UNK     1      18.482  -1.867  33.858  1.00  0.00     0.190 HD
BRANCH   6   9
HETATM    9  C11 UNK     1      18.681   0.680  33.577  1.00  0.00     0.110 A 
HETATM   10  C17 UNK     1      18.005   1.996  33.548  1.00  0.00     0.304 A 
HETATM   11  O2  UNK     1      17.817   2.575  32.296  1.00  0.00    -0.274 OA
HETATM   12  O3  UNK     1      17.627   2.554  34.573  1.00  0.00    -0.259 OA
HETATM   13  C7  UNK     1      18.250   1.944  31.113  1.00  0.00     0.089 A 
HETATM   14  C16 UNK     1      18.019   2.603  29.907  1.00  0.00     0.038 A 
HETATM   15  C5  UNK     1      18.883   0.707  31.163  1.00  0.00    -0.001 A 
HETATM   16  C21 UNK     1      18.434   2.003  28.720  1.00  0.00     0.003 A 
HETATM   17  C20 UNK     1      19.071   0.760  28.751  1.00  0.00     0.001 A 
HETATM   18  C15 UNK     1      19.297   0.112  29.968  1.00  0.00     0.014 A 
HETATM   19  C12 UNK     1      19.094   0.076  32.457  1.00  0.00     0.037 A 
ENDBRANCH   6   9
ENDBRANCH   2   5
BRANCH   3  20
HETATM   20  C18 UNK     1      19.929  -4.017  37.021  1.00  0.00     0.280 C 
BRANCH  20  21
HETATM   21  O1  UNK     1      20.900  -5.037  36.927  1.00  0.00    -0.341 OA
BRANCH  21  22
HETATM   22  C4  UNK     1      20.605  -6.240  37.523  1.00  0.00     0.087 A 
HETATM   23  C3  UNK     1      20.361  -7.386  36.776  1.00  0.00     0.055 A 
HETATM   24 Br1  UNK     1      20.450  -7.220  34.868  1.00  0.00    -0.047 Br
HETATM   25  C1  UNK     1      20.064  -8.600  37.417  1.00  0.00    -0.006 A 
HETATM   26  C2  UNK     1      20.017  -8.642  38.831  1.00  0.00    -0.024 A 
HETATM   27  C8  UNK     1      19.813  -9.772  36.685  1.00  0.00     0.014 A 
HETATM   28  C10 UNK     1      19.720  -9.857  39.471  1.00  0.00     0.012 A 
HETATM   29  C6  UNK     1      20.268  -7.471  39.563  1.00  0.00     0.015 A 
HETATM   30  C14 UNK     1      19.472 -11.011  38.729  1.00  0.00     0.001 A 
HETATM   31  C13 UNK     1      19.519 -10.970  37.338  1.00  0.00     0.001 A 
HETATM   32  C9  UNK     1      20.561  -6.274  38.909  1.00  0.00     0.039 A 
ENDBRANCH  21  22
ENDBRANCH  20  21
ENDBRANCH   3  20
TORSDOF 5
ENDMDL
MODEL 7
REMARK VINA RESULT:      -9.8      2.043     10.905
REMARK  5 active torsions:
REMARK  status: ('A' for Active; 'I' for Inactive)
REMARK    1  A    between atoms: C18_26  and  O1_2 
REMARK    2  A    between atoms: C4_12  and  O1_2 
REMARK       I    between atoms: C19_27  and  N1_7 
REMARK    3  A    between atoms: N1_7  and  N2_8 
REMARK       I    between atoms: C22_30  and  N2_8 
REMARK    4  A    between atoms: C11_19  and  C19_27 
REMARK    5  A    between atoms: C18_26  and  C22_30 
ROOT
HETATM    1  O5  UNK     1      17.937  -1.498  37.796  1.00  0.00    -0.269 OA
HETATM    2  N2  UNK     1      18.657  -2.642  35.906  1.00  0.00    -0.265 N 
HETATM    3  C22 UNK     1      18.133  -1.556  36.585  1.00  0.00     0.260 C 
HETATM    4  H15 UNK     1      18.825  -2.652  34.905  1.00  0.00     0.190 HD
ENDROOT
BRANCH   2   5
HETATM    5  N1  UNK     1      18.999  -3.768  36.614  1.00  0.00    -0.263 N 
HETATM    6  C19 UNK     1      19.824  -4.704  36.026  1.00  0.00     0.276 C 
HETATM    7  O4  UNK     1      20.308  -4.641  34.897  1.00  0.00    -0.266 OA
HETATM    8  H14 UNK     1      18.646  -3.829  37.563  1.00  0.00     0.190 HD
BRANCH   6   9
HETATM    9  C11 UNK     1      20.099  -5.846  36.905  1.00  0.00     0.110 A 
HETATM   10  C17 UNK     1      21.127  -5.789  37.968  1.00  0.00     0.304 A 
HETATM   11  O2  UNK     1      21.294  -6.937  38.738  1.00  0.00    -0.274 OA
HETATM   12  O3  UNK     1      21.799  -4.783  38.167  1.00  0.00    -0.259 OA
HETATM   13  C7  UNK     1      20.525  -8.097  38.520  1.00  0.00     0.089 A 
HETATM   14  C16 UNK     1      20.764  -9.197  39.342  1.00  0.00     0.038 A 
HETATM   15  C5  UNK     1      19.565  -8.129  37.514  1.00  0.00    -0.001 A 
HETATM   16  C21 UNK     1      20.020 -10.358  39.150  1.00  0.00     0.003 A 
HETATM   17  C20 UNK     1      19.051 -10.409  38.144  1.00  0.00     0.001 A 
HETATM   18  C15 UNK     1      18.822  -9.298  37.328  1.00  0.00     0.014 A 
HETATM   19  C12 UNK     1      19.365  -6.945  36.693  1.00  0.00     0.037 A 
ENDBRANCH   6   9
ENDBRANCH   2   5
BRANCH   3  20
HETATM   20  C18 UNK     1      17.821  -0.412  35.645  1.00  0.00     0.280 C 
BRANCH  20  21
HETATM   21  O1  UNK     1      18.960  -0.066  34.887  1.00  0.00    -0.341 OA
BRANCH  21  22
HETATM   22  C4  UNK     1      18.754   0.688  33.755  1.00  0.00     0.087 A 
HETATM   23  C3  UNK     1      19.025   0.191  32.486  1.00  0.00     0.055 A 
HETATM   24 Br1  UNK     1      19.703  -1.600  32.376  1.00  0.00    -0.047 Br
HETATM   25  C1  UNK     1      18.802   0.987  31.351  1.00  0.00    -0.006 A 
HETATM   26  C2  UNK     1      18.298   2.299  31.514  1.00  0.00    -0.024 A 
HETATM   27  C8  UNK     1      19.067   0.508  30.058  1.00  0.00     0.014 A 
HETATM   28  C10 UNK     1      18.075   3.095  30.378  1.00  0.00     0.012 A 
HETATM   29  C6  UNK     1      18.033   2.778  32.807  1.00  0.00     0.015 A 
HETATM   30  C14 UNK     1      18.346   2.604  29.101  1.00  0.00     0.001 A 
HETATM   31  C13 UNK     1      18.840   1.312  28.940  1.00  0.00     0.001 A 
HETATM   32  C9  UNK     1      18.260   1.973  33.924  1.00  0.00     0.039 A 
ENDBRANCH  21  22
ENDBRANCH  20  21
ENDBRANCH   3  20
TORSDOF 5
ENDMDL
MODEL 8
REMARK VINA RESULT:      -9.8      2.181     10.973
REMARK  5 active torsions:
REMARK  status: ('A' for Active; 'I' for Inactive)
REMARK    1  A    between atoms: C18_26  and  O1_2 
REMARK    2  A    between atoms: C4_12  and  O1_2 
REMARK       I    between atoms: C19_27  and  N1_7 
REMARK    3  A    between atoms: N1_7  and  N2_8 
REMARK       I    between atoms: C22_30  and  N2_8 
REMARK    4  A    between atoms: C11_19  and  C19_27 
REMARK    5  A    between atoms: C18_26  and  C22_30 
ROOT
HETATM    1  O5  UNK     1      20.314  -2.806  37.653  1.00  0.00    -0.269 OA
HETATM    2  N2  UNK     1      18.452  -3.497  36.447  1.00  0.00    -0.265 N 
HETATM    3  C22 UNK     1      19.290  -2.558  37.022  1.00  0.00     0.260 C 
HETATM    4  H15 UNK     1      17.622  -3.259  35.914  1.00  0.00     0.190 HD
ENDROOT
BRANCH   2   5
HETATM    5  N1  UNK     1      18.760  -4.829  36.572  1.00  0.00    -0.263 N 
HETATM    6  C19 UNK     1      19.701  -5.381  35.729  1.00  0.00     0.276 C 
HETATM    7  O4  UNK     1      20.320  -4.794  34.844  1.00  0.00    -0.266 OA
HETATM    8  H14 UNK     1      18.293  -5.332  37.319  1.00  0.00     0.190 HD
BRANCH   6   9
HETATM    9  C11 UNK     1      19.921  -6.809  35.986  1.00  0.00     0.110 A 
HETATM   10  C17 UNK     1      20.616  -7.684  35.017  1.00  0.00     0.304 A 
HETATM   11  O2  UNK     1      20.764  -9.021  35.376  1.00  0.00    -0.274 OA
HETATM   12  O3  UNK     1      21.043  -7.259  33.949  1.00  0.00    -0.259 OA
HETATM   13  C7  UNK     1      20.280  -9.521  36.601  1.00  0.00     0.089 A 
HETATM   14  C16 UNK     1      20.477 -10.873  36.872  1.00  0.00     0.038 A 
HETATM   15  C5  UNK     1      19.629  -8.680  37.498  1.00  0.00    -0.001 A 
HETATM   16  C21 UNK     1      20.009 -11.396  38.075  1.00  0.00     0.003 A 
HETATM   17  C20 UNK     1      19.352 -10.567  38.989  1.00  0.00     0.001 A 
HETATM   18  C15 UNK     1      19.162  -9.212  38.703  1.00  0.00     0.014 A 
HETATM   19  C12 UNK     1      19.459  -7.278  37.152  1.00  0.00     0.037 A 
ENDBRANCH   6   9
ENDBRANCH   2   5
BRANCH   3  20
HETATM   20  C18 UNK     1      18.795  -1.149  36.779  1.00  0.00     0.280 C 
BRANCH  20  21
HETATM   21  O1  UNK     1      18.449  -0.970  35.423  1.00  0.00    -0.341 OA
BRANCH  21  22
HETATM   22  C4  UNK     1      18.390   0.322  34.956  1.00  0.00     0.087 A 
HETATM   23  C3  UNK     1      18.432   0.611  33.597  1.00  0.00     0.055 A 
HETATM   24 Br1  UNK     1      18.577  -0.874  32.392  1.00  0.00    -0.047 Br
HETATM   25  C1  UNK     1      18.368   1.943  33.154  1.00  0.00    -0.006 A 
HETATM   26  C2  UNK     1      18.261   2.985  34.106  1.00  0.00    -0.024 A 
HETATM   27  C8  UNK     1      18.409   2.261  31.787  1.00  0.00     0.014 A 
HETATM   28  C10 UNK     1      18.198   4.316  33.661  1.00  0.00     0.012 A 
HETATM   29  C6  UNK     1      18.221   2.666  35.472  1.00  0.00     0.015 A 
HETATM   30  C14 UNK     1      18.240   4.614  32.300  1.00  0.00     0.001 A 
HETATM   31  C13 UNK     1      18.344   3.589  31.364  1.00  0.00     0.001 A 
HETATM   32  C9  UNK     1      18.285   1.338  35.895  1.00  0.00     0.039 A 
ENDBRANCH  21  22
ENDBRANCH  20  21
ENDBRANCH   3  20
TORSDOF 5
ENDMDL
MODEL 9
REMARK VINA RESULT:      -9.7      6.979     14.023
REMARK  5 active torsions:
REMARK  status: ('A' for Active; 'I' for Inactive)
REMARK    1  A    between atoms: C18_26  and  O1_2 
REMARK    2  A    between atoms: C4_12  and  O1_2 
REMARK       I    between atoms: C19_27  and  N1_7 
REMARK    3  A    between atoms: N1_7  and  N2_8 
REMARK       I    between atoms: C22_30  and  N2_8 
REMARK    4  A    between atoms: C11_19  and  C19_27 
REMARK    5  A    between atoms: C18_26  and  C22_30 
ROOT
HETATM    1  O5  UNK     1      17.550   6.026  34.224  1.00  0.00    -0.269 OA
HETATM    2  N2  UNK     1      16.948   5.640  32.013  1.00  0.00    -0.265 N 
HETATM    3  C22 UNK     1      17.082   6.410  33.155  1.00  0.00     0.260 C 
HETATM    4  H15 UNK     1      16.573   5.992  31.138  1.00  0.00     0.190 HD
ENDROOT
BRANCH   2   5
HETATM    5  N1  UNK     1      17.361   4.331  32.040  1.00  0.00    -0.263 N 
HETATM    6  C19 UNK     1      18.362   3.927  31.182  1.00  0.00     0.276 C 
HETATM    7  O4  UNK     1      18.949   4.632  30.365  1.00  0.00    -0.266 OA
HETATM    8  H14 UNK     1      16.921   3.733  32.732  1.00  0.00     0.190 HD
BRANCH   6   9
HETATM    9  C11 UNK     1      18.693   2.505  31.331  1.00  0.00     0.110 A 
HETATM   10  C17 UNK     1      18.441   1.767  32.589  1.00  0.00     0.304 A 
HETATM   11  O2  UNK     1      18.798   0.422  32.607  1.00  0.00    -0.274 OA
HETATM   12  O3  UNK     1      17.940   2.309  33.569  1.00  0.00    -0.259 OA
HETATM   13  C7  UNK     1      19.371  -0.211  31.486  1.00  0.00     0.089 A 
HETATM   14  C16 UNK     1      19.694  -1.562  31.600  1.00  0.00     0.038 A 
HETATM   15  C5  UNK     1      19.601   0.502  30.314  1.00  0.00    -0.001 A 
HETATM   16  C21 UNK     1      20.263  -2.214  30.508  1.00  0.00     0.003 A 
HETATM   17  C20 UNK     1      20.502  -1.514  29.322  1.00  0.00     0.001 A 
HETATM   18  C15 UNK     1      20.171  -0.160  29.223  1.00  0.00     0.014 A 
HETATM   19  C12 UNK     1      19.238   1.910  30.263  1.00  0.00     0.037 A 
ENDBRANCH   6   9
ENDBRANCH   2   5
BRANCH   3  20
HETATM   20  C18 UNK     1      16.579   7.820  32.937  1.00  0.00     0.280 C 
BRANCH  20  21
HETATM   21  O1  UNK     1      16.513   8.520  34.161  1.00  0.00    -0.341 OA
BRANCH  21  22
HETATM   22  C4  UNK     1      16.942   9.826  34.160  1.00  0.00     0.087 A 
HETATM   23  C3  UNK     1      16.067  10.882  34.384  1.00  0.00     0.055 A 
HETATM   24 Br1  UNK     1      14.227  10.442  34.695  1.00  0.00    -0.047 Br
HETATM   25  C1  UNK     1      16.538  12.206  34.378  1.00  0.00    -0.006 A 
HETATM   26  C2  UNK     1      17.912  12.450  34.142  1.00  0.00    -0.024 A 
HETATM   27  C8  UNK     1      15.675  13.291  34.601  1.00  0.00     0.014 A 
HETATM   28  C10 UNK     1      18.383  13.774  34.136  1.00  0.00     0.012 A 
HETATM   29  C6  UNK     1      18.775  11.365  33.919  1.00  0.00     0.015 A 
HETATM   30  C14 UNK     1      17.511  14.840  34.359  1.00  0.00     0.001 A 
HETATM   31  C13 UNK     1      16.160  14.599  34.592  1.00  0.00     0.001 A 
HETATM   32  C9  UNK     1      18.290  10.057  33.928  1.00  0.00     0.039 A 
ENDBRANCH  21  22
ENDBRANCH  20  21
ENDBRANCH   3  20
TORSDOF 5
ENDMDL
MODEL 10
REMARK VINA RESULT:      -9.7      6.816     13.354
REMARK  5 active torsions:
REMARK  status: ('A' for Active; 'I' for Inactive)
REMARK    1  A    between atoms: C18_26  and  O1_2 
REMARK    2  A    between atoms: C4_12  and  O1_2 
REMARK       I    between atoms: C19_27  and  N1_7 
REMARK    3  A    between atoms: N1_7  and  N2_8 
REMARK       I    between atoms: C22_30  and  N2_8 
REMARK    4  A    between atoms: C11_19  and  C19_27 
REMARK    5  A    between atoms: C18_26  and  C22_30 
ROOT
HETATM    1  O5  UNK     1      20.259   6.324  33.332  1.00  0.00    -0.269 OA
HETATM    2  N2  UNK     1      18.277   5.424  34.145  1.00  0.00    -0.265 N 
HETATM    3  C22 UNK     1      19.176   6.445  33.901  1.00  0.00     0.260 C 
HETATM    4  H15 UNK     1      17.380   5.560  34.601  1.00  0.00     0.190 HD
ENDROOT
BRANCH   2   5
HETATM    5  N1  UNK     1      18.586   4.151  33.732  1.00  0.00    -0.263 N 
HETATM    6  C19 UNK     1      18.053   3.684  32.549  1.00  0.00     0.276 C 
HETATM    7  O4  UNK     1      17.305   4.300  31.793  1.00  0.00    -0.266 OA
HETATM    8  H14 UNK     1      19.232   3.631  34.315  1.00  0.00     0.190 HD
BRANCH   6   9
HETATM    9  C11 UNK     1      18.476   2.312  32.242  1.00  0.00     0.110 A 
HETATM   10  C17 UNK     1      18.389   1.222  33.239  1.00  0.00     0.304 A 
HETATM   11  O2  UNK     1      18.821  -0.036  32.829  1.00  0.00    -0.274 OA
HETATM   12  O3  UNK     1      17.958   1.412  34.372  1.00  0.00    -0.259 OA
HETATM   13  C7  UNK     1      19.316  -0.266  31.531  1.00  0.00     0.089 A 
HETATM   14  C16 UNK     1      19.723  -1.560  31.212  1.00  0.00     0.038 A 
HETATM   15  C5  UNK     1      19.390   0.774  30.609  1.00  0.00    -0.001 A 
HETATM   16  C21 UNK     1      20.218  -1.817  29.936  1.00  0.00     0.003 A 
HETATM   17  C20 UNK     1      20.300  -0.786  28.997  1.00  0.00     0.001 A 
HETATM   18  C15 UNK     1      19.887   0.507  29.330  1.00  0.00     0.014 A 
HETATM   19  C12 UNK     1      18.946   2.100  31.007  1.00  0.00     0.037 A 
ENDBRANCH   6   9
ENDBRANCH   2   5
BRANCH   3  20
HETATM   20  C18 UNK     1      18.667   7.771  34.422  1.00  0.00     0.280 C 
BRANCH  20  21
HETATM   21  O1  UNK     1      17.862   8.410  33.454  1.00  0.00    -0.341 OA
BRANCH  21  22
HETATM   22  C4  UNK     1      17.220   9.565  33.836  1.00  0.00     0.087 A 
HETATM   23  C3  UNK     1      15.852   9.597  34.073  1.00  0.00     0.055 A 
HETATM   24 Br1  UNK     1      14.887   7.955  33.842  1.00  0.00    -0.047 Br
HETATM   25  C1  UNK     1      15.227  10.793  34.463  1.00  0.00    -0.006 A 
HETATM   26  C2  UNK     1      16.008  11.964  34.612  1.00  0.00    -0.024 A 
HETATM   27  C8  UNK     1      13.846  10.851  34.707  1.00  0.00     0.014 A 
HETATM   28  C10 UNK     1      15.383  13.160  35.003  1.00  0.00     0.012 A 
HETATM   29  C6  UNK     1      17.389  11.905  34.368  1.00  0.00     0.015 A 
HETATM   30  C14 UNK     1      14.009  13.200  35.241  1.00  0.00     0.001 A 
HETATM   31  C13 UNK     1      13.242  12.048  35.094  1.00  0.00     0.001 A 
HETATM   32  C9  UNK     1      17.993  10.708  33.981  1.00  0.00     0.039 A 
ENDBRANCH  21  22
ENDBRANCH  20  21
ENDBRANCH   3  20
TORSDOF 5
ENDMDL
