MODEL 1
REMARK VINA RESULT:      -9.2      0.000      0.000
REMARK  3 active torsions:
REMARK  status: ('A' for Active; 'I' for Inactive)
REMARK    1  A    between atoms: C11_15  and  O2_3 
REMARK    2  A    between atoms: C13_17  and  O2_3 
REMARK    3  A    between atoms: C13_17  and  C14_18 
ROOT
HETATM    1  O1  UNK     1      18.674   0.419  33.073  1.00  0.00    -0.274 OA
HETATM    2  O3  UNK     1      19.243  -1.773  33.449  1.00  0.00    -0.259 OA
HETATM    3  C1  UNK     1      20.215  -0.184  29.136  1.00  0.00     0.040 C 
HETATM    4  C2  UNK     1      19.651   0.155  30.472  1.00  0.00    -0.033 A 
HETATM    5  C3  UNK     1      20.306  -1.713  29.199  1.00  0.00     0.009 C 
HETATM    6  C4  UNK     1      20.294  -2.092  30.684  1.00  0.00     0.046 C 
HETATM    7  C5  UNK     1      19.692  -0.883  31.310  1.00  0.00     0.025 A 
HETATM    8  C6  UNK     1      19.113   1.433  30.891  1.00  0.00     0.005 A 
HETATM    9  C7  UNK     1      18.631   1.532  32.199  1.00  0.00     0.092 A 
HETATM   10  C8  UNK     1      19.199  -0.815  32.687  1.00  0.00     0.295 A 
HETATM   11  C9  UNK     1      19.053   2.561  30.069  1.00  0.00     0.017 A 
HETATM   12  C10 UNK     1      18.093   2.717  32.698  1.00  0.00     0.075 A 
HETATM   13  C11 UNK     1      18.037   3.834  31.868  1.00  0.00     0.071 A 
HETATM   14  C12 UNK     1      18.516   3.757  30.559  1.00  0.00     0.038 A 
ENDROOT
BRANCH  13  15
HETATM   15  O2  UNK     1      17.517   5.001  32.333  1.00  0.00    -0.347 OA
BRANCH  15  16
HETATM   16  C13 UNK     1      17.806   5.347  33.687  1.00  0.00     0.214 C 
BRANCH  16  17
HETATM   17  C14 UNK     1      18.056   6.824  33.773  1.00  0.00    -0.034 A 
HETATM   18  C15 UNK     1      17.064   7.714  33.377  1.00  0.00     0.011 A 
HETATM   19  C17 UNK     1      17.297   9.088  33.456  1.00  0.00     0.024 A 
HETATM   20  C19 UNK     1      18.521   9.562  33.928  1.00  0.00     0.034 A 
HETATM   21  C18 UNK     1      19.512   8.663  34.322  1.00  0.00     0.024 A 
HETATM   22 Cl1  UNK     1      18.808  11.256  34.024  1.00  0.00    -0.084 Cl
HETATM   23  C16 UNK     1      19.279   7.290  34.244  1.00  0.00     0.011 A 
ENDBRANCH  16  17
ENDBRANCH  15  16
ENDBRANCH  13  15
TORSDOF 3
ENDMDL
MODEL 2
REMARK VINA RESULT:      -9.2      1.810      2.679
REMARK  3 active torsions:
REMARK  status: ('A' for Active; 'I' for Inactive)
REMARK    1  A    between atoms: C11_15  and  O2_3 
REMARK    2  A    between atoms: C13_17  and  O2_3 
REMARK    3  A    between atoms: C13_17  and  C14_18 
ROOT
HETATM    1  O1  UNK     1      19.471   1.012  29.458  1.00  0.00    -0.274 OA
HETATM    2  O3  UNK     1      20.419  -0.578  28.099  1.00  0.00    -0.259 OA
HETATM    3  C1  UNK     1      19.874  -1.873  32.582  1.00  0.00     0.040 C 
HETATM    4  C2  UNK     1      19.677  -0.783  31.585  1.00  0.00    -0.033 A 
HETATM    5  C3  UNK     1      20.803  -2.836  31.834  1.00  0.00     0.009 C 
HETATM    6  C4  UNK     1      20.654  -2.517  30.342  1.00  0.00     0.046 C 
HETATM    7  C5  UNK     1      20.104  -1.135  30.371  1.00  0.00     0.025 A 
HETATM    8  C6  UNK     1      19.095   0.521  31.825  1.00  0.00     0.005 A 
HETATM    9  C7  UNK     1      19.007   1.396  30.739  1.00  0.00     0.092 A 
HETATM   10  C8  UNK     1      20.026  -0.245  29.210  1.00  0.00     0.295 A 
HETATM   11  C9  UNK     1      18.617   0.945  33.067  1.00  0.00     0.017 A 
HETATM   12  C10 UNK     1      18.463   2.674  30.865  1.00  0.00     0.075 A 
HETATM   13  C11 UNK     1      17.993   3.086  32.109  1.00  0.00     0.071 A 
HETATM   14  C12 UNK     1      18.068   2.225  33.206  1.00  0.00     0.038 A 
ENDROOT
BRANCH  13  15
HETATM   15  O2  UNK     1      17.457   4.328  32.256  1.00  0.00    -0.347 OA
BRANCH  15  16
HETATM   16  C13 UNK     1      17.964   5.358  31.409  1.00  0.00     0.214 C 
BRANCH  16  17
HETATM   17  C14 UNK     1      18.629   6.405  32.253  1.00  0.00    -0.034 A 
HETATM   18  C15 UNK     1      19.988   6.303  32.530  1.00  0.00     0.011 A 
HETATM   19  C17 UNK     1      20.607   7.275  33.316  1.00  0.00     0.024 A 
HETATM   20  C19 UNK     1      19.864   8.343  33.821  1.00  0.00     0.034 A 
HETATM   21  C18 UNK     1      18.500   8.437  33.539  1.00  0.00     0.024 A 
HETATM   22 Cl1  UNK     1      20.627   9.541  34.790  1.00  0.00    -0.084 Cl
HETATM   23  C16 UNK     1      17.881   7.465  32.753  1.00  0.00     0.011 A 
ENDBRANCH  16  17
ENDBRANCH  15  16
ENDBRANCH  13  15
TORSDOF 3
ENDMDL
MODEL 3
REMARK VINA RESULT:      -9.0      2.027      2.733
REMARK  3 active torsions:
REMARK  status: ('A' for Active; 'I' for Inactive)
REMARK    1  A    between atoms: C11_15  and  O2_3 
REMARK    2  A    between atoms: C13_17  and  O2_3 
REMARK    3  A    between atoms: C13_17  and  C14_18 
ROOT
HETATM    1  O1  UNK     1      19.513   1.043  29.396  1.00  0.00    -0.274 OA
HETATM    2  O3  UNK     1      20.449  -0.613  28.110  1.00  0.00    -0.259 OA
HETATM    3  C1  UNK     1      19.790  -1.743  32.622  1.00  0.00     0.040 C 
HETATM    4  C2  UNK     1      19.638  -0.684  31.585  1.00  0.00    -0.033 A 
HETATM    5  C3  UNK     1      20.710  -2.751  31.924  1.00  0.00     0.009 C 
HETATM    6  C4  UNK     1      20.597  -2.480  30.421  1.00  0.00     0.046 C 
HETATM    7  C5  UNK     1      20.079  -1.086  30.392  1.00  0.00     0.025 A 
HETATM    8  C6  UNK     1      19.081   0.641  31.770  1.00  0.00     0.005 A 
HETATM    9  C7  UNK     1      19.034   1.481  30.655  1.00  0.00     0.092 A 
HETATM   10  C8  UNK     1      20.043  -0.234  29.201  1.00  0.00     0.295 A 
HETATM   11  C9  UNK     1      18.589   1.118  32.988  1.00  0.00     0.017 A 
HETATM   12  C10 UNK     1      18.518   2.773  30.727  1.00  0.00     0.075 A 
HETATM   13  C11 UNK     1      18.033   3.238  31.947  1.00  0.00     0.071 A 
HETATM   14  C12 UNK     1      18.068   2.413  33.073  1.00  0.00     0.038 A 
ENDROOT
BRANCH  13  15
HETATM   15  O2  UNK     1      17.524   4.496  32.042  1.00  0.00    -0.347 OA
BRANCH  15  16
HETATM   16  C13 UNK     1      18.167   5.390  32.949  1.00  0.00     0.214 C 
BRANCH  16  17
HETATM   17  C14 UNK     1      17.198   6.463  33.350  1.00  0.00    -0.034 A 
HETATM   18  C15 UNK     1      16.083   6.714  32.557  1.00  0.00     0.011 A 
HETATM   19  C17 UNK     1      15.183   7.713  32.929  1.00  0.00     0.024 A 
HETATM   20  C19 UNK     1      15.402   8.454  34.089  1.00  0.00     0.034 A 
HETATM   21  C18 UNK     1      16.524   8.197  34.879  1.00  0.00     0.024 A 
HETATM   22 Cl1  UNK     1      14.291   9.686  34.547  1.00  0.00    -0.084 Cl
HETATM   23  C16 UNK     1      17.424   7.199  34.508  1.00  0.00     0.011 A 
ENDBRANCH  16  17
ENDBRANCH  15  16
ENDBRANCH  13  15
TORSDOF 3
ENDMDL
MODEL 4
REMARK VINA RESULT:      -8.8      1.121      1.657
REMARK  3 active torsions:
REMARK  status: ('A' for Active; 'I' for Inactive)
REMARK    1  A    between atoms: C11_15  and  O2_3 
REMARK    2  A    between atoms: C13_17  and  O2_3 
REMARK    3  A    between atoms: C13_17  and  C14_18 
ROOT
HETATM    1  O1  UNK     1      18.715   0.491  33.073  1.00  0.00    -0.274 OA
HETATM    2  O3  UNK     1      19.318  -1.674  33.539  1.00  0.00    -0.259 OA
HETATM    3  C1  UNK     1      20.234  -0.262  29.152  1.00  0.00     0.040 C 
HETATM    4  C2  UNK     1      19.675   0.127  30.478  1.00  0.00    -0.033 A 
HETATM    5  C3  UNK     1      20.347  -1.785  29.282  1.00  0.00     0.009 C 
HETATM    6  C4  UNK     1      20.351  -2.099  30.782  1.00  0.00     0.046 C 
HETATM    7  C5  UNK     1      19.738  -0.872  31.359  1.00  0.00     0.025 A 
HETATM    8  C6  UNK     1      19.122   1.415  30.844  1.00  0.00     0.005 A 
HETATM    9  C7  UNK     1      18.649   1.564  32.151  1.00  0.00     0.092 A 
HETATM   10  C8  UNK     1      19.254  -0.751  32.736  1.00  0.00     0.295 A 
HETATM   11  C9  UNK     1      19.040   2.505  29.975  1.00  0.00     0.017 A 
HETATM   12  C10 UNK     1      18.098   2.762  32.602  1.00  0.00     0.075 A 
HETATM   13  C11 UNK     1      18.019   3.841  31.725  1.00  0.00     0.071 A 
HETATM   14  C12 UNK     1      18.489   3.713  30.416  1.00  0.00     0.038 A 
ENDROOT
BRANCH  13  15
HETATM   15  O2  UNK     1      17.486   5.020  32.143  1.00  0.00    -0.347 OA
BRANCH  15  16
HETATM   16  C13 UNK     1      18.007   6.213  31.557  1.00  0.00     0.214 C 
BRANCH  16  17
HETATM   17  C14 UNK     1      17.368   7.401  32.213  1.00  0.00    -0.034 A 
HETATM   18  C15 UNK     1      18.065   8.105  33.190  1.00  0.00     0.011 A 
HETATM   19  C17 UNK     1      17.470   9.209  33.801  1.00  0.00     0.024 A 
HETATM   20  C19 UNK     1      16.184   9.602  33.433  1.00  0.00     0.034 A 
HETATM   21  C18 UNK     1      15.490   8.890  32.453  1.00  0.00     0.024 A 
HETATM   22 Cl1  UNK     1      15.451  10.964  34.187  1.00  0.00    -0.084 Cl
HETATM   23  C16 UNK     1      16.085   7.786  31.842  1.00  0.00     0.011 A 
ENDBRANCH  16  17
ENDBRANCH  15  16
ENDBRANCH  13  15
TORSDOF 3
ENDMDL
MODEL 5
REMARK VINA RESULT:      -8.7     23.374     25.120
REMARK  3 active torsions:
REMARK  status: ('A' for Active; 'I' for Inactive)
REMARK    1  A    between atoms: C11_15  and  O2_3 
REMARK    2  A    between atoms: C13_17  and  O2_3 
REMARK    3  A    between atoms: C13_17  and  C14_18 
ROOT
HETATM    1  O1  UNK     1      14.033   4.678   8.796  1.00  0.00    -0.274 OA
HETATM    2  O3  UNK     1      16.044   4.161   9.775  1.00  0.00    -0.259 OA
HETATM    3  C1  UNK     1      15.076   8.752   9.539  1.00  0.00     0.040 C 
HETATM    4  C2  UNK     1      14.596   7.377   9.225  1.00  0.00    -0.033 A 
HETATM    5  C3  UNK     1      16.550   8.511   9.885  1.00  0.00     0.009 C 
HETATM    6  C4  UNK     1      16.678   7.029  10.250  1.00  0.00     0.046 C 
HETATM    7  C5  UNK     1      15.468   6.444   9.610  1.00  0.00     0.025 A 
HETATM    8  C6  UNK     1      13.344   7.016   8.591  1.00  0.00     0.005 A 
HETATM    9  C7  UNK     1      13.094   5.656   8.390  1.00  0.00     0.092 A 
HETATM   10  C8  UNK     1      15.238   5.010   9.417  1.00  0.00     0.295 A 
HETATM   11  C9  UNK     1      12.384   7.942   8.178  1.00  0.00     0.017 A 
HETATM   12  C10 UNK     1      11.920   5.205   7.788  1.00  0.00     0.075 A 
HETATM   13  C11 UNK     1      10.971   6.138   7.378  1.00  0.00     0.071 A 
HETATM   14  C12 UNK     1      11.201   7.501   7.573  1.00  0.00     0.038 A 
ENDROOT
BRANCH  13  15
HETATM   15  O2  UNK     1       9.818   5.721   6.789  1.00  0.00    -0.347 OA
BRANCH  15  16
HETATM   16  C13 UNK     1       8.686   6.584   6.894  1.00  0.00     0.214 C 
BRANCH  16  17
HETATM   17  C14 UNK     1       8.066   6.414   8.250  1.00  0.00    -0.034 A 
HETATM   18  C15 UNK     1       7.821   7.533   9.039  1.00  0.00     0.011 A 
HETATM   19  C17 UNK     1       7.245   7.375  10.300  1.00  0.00     0.024 A 
HETATM   20  C19 UNK     1       6.918   6.101  10.764  1.00  0.00     0.034 A 
HETATM   21  C18 UNK     1       7.168   4.983   9.967  1.00  0.00     0.024 A 
HETATM   22 Cl1  UNK     1       6.209   5.907  12.319  1.00  0.00    -0.084 Cl
HETATM   23  C16 UNK     1       7.744   5.141   8.706  1.00  0.00     0.011 A 
ENDBRANCH  16  17
ENDBRANCH  15  16
ENDBRANCH  13  15
TORSDOF 3
ENDMDL
MODEL 6
REMARK VINA RESULT:      -8.5     22.818     24.494
REMARK  3 active torsions:
REMARK  status: ('A' for Active; 'I' for Inactive)
REMARK    1  A    between atoms: C11_15  and  O2_3 
REMARK    2  A    between atoms: C13_17  and  O2_3 
REMARK    3  A    between atoms: C13_17  and  C14_18 
ROOT
HETATM    1  O1  UNK     1      11.100   5.011  10.042  1.00  0.00    -0.274 OA
HETATM    2  O3  UNK     1       8.904   4.644  10.602  1.00  0.00    -0.259 OA
HETATM    3  C1  UNK     1       9.572   6.617   6.392  1.00  0.00     0.040 C 
HETATM    4  C2  UNK     1      10.230   6.083   7.617  1.00  0.00    -0.033 A 
HETATM    5  C3  UNK     1       8.105   6.717   6.827  1.00  0.00     0.009 C 
HETATM    6  C4  UNK     1       7.940   5.780   8.028  1.00  0.00     0.046 C 
HETATM    7  C5  UNK     1       9.342   5.633   8.504  1.00  0.00     0.025 A 
HETATM    8  C6  UNK     1      11.652   6.020   7.883  1.00  0.00     0.005 A 
HETATM    9  C7  UNK     1      12.055   5.478   9.106  1.00  0.00     0.092 A 
HETATM   10  C8  UNK     1       9.727   5.057   9.795  1.00  0.00     0.295 A 
HETATM   11  C9  UNK     1      12.633   6.461   6.992  1.00  0.00     0.017 A 
HETATM   12  C10 UNK     1      13.399   5.372   9.458  1.00  0.00     0.075 A 
HETATM   13  C11 UNK     1      14.368   5.818   8.562  1.00  0.00     0.071 A 
HETATM   14  C12 UNK     1      13.986   6.360   7.333  1.00  0.00     0.038 A 
ENDROOT
BRANCH  13  15
HETATM   15  O2  UNK     1      15.686   5.724   8.883  1.00  0.00    -0.347 OA
BRANCH  15  16
HETATM   16  C13 UNK     1      16.050   6.029  10.229  1.00  0.00     0.214 C 
BRANCH  16  17
HETATM   17  C14 UNK     1      16.140   7.518  10.388  1.00  0.00    -0.034 A 
HETATM   18  C15 UNK     1      15.227   8.180  11.201  1.00  0.00     0.011 A 
HETATM   19  C17 UNK     1      15.310   9.564  11.348  1.00  0.00     0.024 A 
HETATM   20  C19 UNK     1      16.305  10.279  10.680  1.00  0.00     0.034 A 
HETATM   21  C18 UNK     1      17.217   9.608   9.865  1.00  0.00     0.024 A 
HETATM   22 Cl1  UNK     1      16.406  11.987  10.861  1.00  0.00    -0.084 Cl
HETATM   23  C16 UNK     1      17.134   8.223   9.718  1.00  0.00     0.011 A 
ENDBRANCH  16  17
ENDBRANCH  15  16
ENDBRANCH  13  15
TORSDOF 3
ENDMDL
MODEL 7
REMARK VINA RESULT:      -8.4      3.625      8.806
REMARK  3 active torsions:
REMARK  status: ('A' for Active; 'I' for Inactive)
REMARK    1  A    between atoms: C11_15  and  O2_3 
REMARK    2  A    between atoms: C13_17  and  O2_3 
REMARK    3  A    between atoms: C13_17  and  C14_18 
ROOT
HETATM    1  O1  UNK     1      15.672   6.490  32.173  1.00  0.00    -0.274 OA
HETATM    2  O3  UNK     1      13.894   7.823  32.752  1.00  0.00    -0.259 OA
HETATM    3  C1  UNK     1      18.122   9.621  33.735  1.00  0.00     0.040 C 
HETATM    4  C2  UNK     1      17.382   8.462  33.160  1.00  0.00    -0.033 A 
HETATM    5  C3  UNK     1      17.007  10.399  34.445  1.00  0.00     0.009 C 
HETATM    6  C4  UNK     1      15.687   9.946  33.813  1.00  0.00     0.046 C 
HETATM    7  C5  UNK     1      16.061   8.641  33.206  1.00  0.00     0.025 A 
HETATM    8  C6  UNK     1      17.956   7.259  32.594  1.00  0.00     0.005 A 
HETATM    9  C7  UNK     1      17.072   6.291  32.109  1.00  0.00     0.092 A 
HETATM   10  C8  UNK     1      15.105   7.649  32.706  1.00  0.00     0.295 A 
HETATM   11  C9  UNK     1      19.328   7.017  32.502  1.00  0.00     0.017 A 
HETATM   12  C10 UNK     1      17.523   5.098  31.546  1.00  0.00     0.075 A 
HETATM   13  C11 UNK     1      18.894   4.867  31.463  1.00  0.00     0.071 A 
HETATM   14  C12 UNK     1      19.793   5.823  31.939  1.00  0.00     0.038 A 
ENDROOT
BRANCH  13  15
HETATM   15  O2  UNK     1      19.357   3.711  30.917  1.00  0.00    -0.347 OA
BRANCH  15  16
HETATM   16  C13 UNK     1      18.388   2.811  30.381  1.00  0.00     0.214 C 
BRANCH  16  17
HETATM   17  C14 UNK     1      18.987   1.438  30.298  1.00  0.00    -0.034 A 
HETATM   18  C15 UNK     1      19.138   0.682  31.456  1.00  0.00     0.011 A 
HETATM   19  C17 UNK     1      19.696  -0.594  31.379  1.00  0.00     0.024 A 
HETATM   20  C19 UNK     1      20.100  -1.106  30.147  1.00  0.00     0.034 A 
HETATM   21  C18 UNK     1      19.946  -0.342  28.989  1.00  0.00     0.024 A 
HETATM   22 Cl1  UNK     1      20.788  -2.681  30.053  1.00  0.00    -0.084 Cl
HETATM   23  C16 UNK     1      19.388   0.934  29.066  1.00  0.00     0.011 A 
ENDBRANCH  16  17
ENDBRANCH  15  16
ENDBRANCH  13  15
TORSDOF 3
ENDMDL
MODEL 8
REMARK VINA RESULT:      -8.4      2.316      3.684
REMARK  3 active torsions:
REMARK  status: ('A' for Active; 'I' for Inactive)
REMARK    1  A    between atoms: C11_15  and  O2_3 
REMARK    2  A    between atoms: C13_17  and  O2_3 
REMARK    3  A    between atoms: C13_17  and  C14_18 
ROOT
HETATM    1  O1  UNK     1      18.154   3.119  33.542  1.00  0.00    -0.274 OA
HETATM    2  O3  UNK     1      18.203   0.865  33.108  1.00  0.00    -0.259 OA
HETATM    3  C1  UNK     1      18.684   3.621  29.334  1.00  0.00     0.040 C 
HETATM    4  C2  UNK     1      18.500   3.582  30.812  1.00  0.00    -0.033 A 
HETATM    5  C3  UNK     1      18.390   2.172  28.931  1.00  0.00     0.009 C 
HETATM    6  C4  UNK     1      18.573   1.321  30.191  1.00  0.00     0.046 C 
HETATM    7  C5  UNK     1      18.437   2.332  31.274  1.00  0.00     0.025 A 
HETATM    8  C6  UNK     1      18.401   4.717  31.707  1.00  0.00     0.005 A 
HETATM    9  C7  UNK     1      18.227   4.451  33.067  1.00  0.00     0.092 A 
HETATM   10  C8  UNK     1      18.258   2.016  32.693  1.00  0.00     0.295 A 
HETATM   11  C9  UNK     1      18.473   6.048  31.289  1.00  0.00     0.017 A 
HETATM   12  C10 UNK     1      18.120   5.472  34.010  1.00  0.00     0.075 A 
HETATM   13  C11 UNK     1      18.191   6.795  33.581  1.00  0.00     0.071 A 
HETATM   14  C12 UNK     1      18.367   7.082  32.226  1.00  0.00     0.038 A 
ENDROOT
BRANCH  13  15
HETATM   15  O2  UNK     1      18.090   7.809  34.483  1.00  0.00    -0.347 OA
BRANCH  15  16
HETATM   16  C13 UNK     1      16.859   7.924  35.195  1.00  0.00     0.214 C 
BRANCH  16  17
HETATM   17  C14 UNK     1      15.979   8.918  34.496  1.00  0.00    -0.034 A 
HETATM   18  C15 UNK     1      14.842   8.478  33.826  1.00  0.00     0.011 A 
HETATM   19  C17 UNK     1      14.025   9.402  33.175  1.00  0.00     0.024 A 
HETATM   20  C19 UNK     1      14.348  10.759  33.198  1.00  0.00     0.034 A 
HETATM   21  C18 UNK     1      15.491  11.192  33.871  1.00  0.00     0.024 A 
HETATM   22 Cl1  UNK     1      13.340  11.898  32.394  1.00  0.00    -0.084 Cl
HETATM   23  C16 UNK     1      16.309  10.268  34.522  1.00  0.00     0.011 A 
ENDBRANCH  16  17
ENDBRANCH  15  16
ENDBRANCH  13  15
TORSDOF 3
ENDMDL
MODEL 9
REMARK VINA RESULT:      -8.4     13.120     15.356
REMARK  3 active torsions:
REMARK  status: ('A' for Active; 'I' for Inactive)
REMARK    1  A    between atoms: C11_15  and  O2_3 
REMARK    2  A    between atoms: C13_17  and  O2_3 
REMARK    3  A    between atoms: C13_17  and  C14_18 
ROOT
HETATM    1  O1  UNK     1      28.037  -5.157  39.262  1.00  0.00    -0.274 OA
HETATM    2  O3  UNK     1      29.627  -3.617  39.871  1.00  0.00    -0.259 OA
HETATM    3  C1  UNK     1      31.242  -7.246  37.362  1.00  0.00     0.040 C 
HETATM    4  C2  UNK     1      30.041  -6.616  37.980  1.00  0.00    -0.033 A 
HETATM    5  C3  UNK     1      32.390  -6.460  38.006  1.00  0.00     0.009 C 
HETATM    6  C4  UNK     1      31.789  -5.145  38.515  1.00  0.00     0.046 C 
HETATM    7  C5  UNK     1      30.342  -5.478  38.607  1.00  0.00     0.025 A 
HETATM    8  C6  UNK     1      28.681  -7.113  37.941  1.00  0.00     0.005 A 
HETATM    9  C7  UNK     1      27.701  -6.360  38.593  1.00  0.00     0.092 A 
HETATM   10  C8  UNK     1      29.341  -4.662  39.299  1.00  0.00     0.295 A 
HETATM   11  C9  UNK     1      28.298  -8.288  37.290  1.00  0.00     0.017 A 
HETATM   12  C10 UNK     1      26.364  -6.751  38.614  1.00  0.00     0.075 A 
HETATM   13  C11 UNK     1      25.995  -7.926  37.965  1.00  0.00     0.071 A 
HETATM   14  C12 UNK     1      26.958  -8.692  37.304  1.00  0.00     0.038 A 
ENDROOT
BRANCH  13  15
HETATM   15  O2  UNK     1      24.696  -8.328  37.971  1.00  0.00    -0.347 OA
BRANCH  15  16
HETATM   16  C13 UNK     1      23.908  -7.963  39.104  1.00  0.00     0.214 C 
BRANCH  16  17
HETATM   17  C14 UNK     1      22.499  -7.704  38.659  1.00  0.00    -0.034 A 
HETATM   18  C15 UNK     1      21.585  -7.158  39.552  1.00  0.00     0.011 A 
HETATM   19  C17 UNK     1      20.274  -6.918  39.139  1.00  0.00     0.024 A 
HETATM   20  C19 UNK     1      19.886  -7.226  37.835  1.00  0.00     0.034 A 
HETATM   21  C18 UNK     1      20.809  -7.776  36.944  1.00  0.00     0.024 A 
HETATM   22 Cl1  UNK     1      18.269  -6.931  37.326  1.00  0.00    -0.084 Cl
HETATM   23  C16 UNK     1      22.119  -8.016  37.358  1.00  0.00     0.011 A 
ENDBRANCH  16  17
ENDBRANCH  15  16
ENDBRANCH  13  15
TORSDOF 3
ENDMDL
MODEL 10
REMARK VINA RESULT:      -8.3     14.533     15.687
REMARK  3 active torsions:
REMARK  status: ('A' for Active; 'I' for Inactive)
REMARK    1  A    between atoms: C11_15  and  O2_3 
REMARK    2  A    between atoms: C13_17  and  O2_3 
REMARK    3  A    between atoms: C13_17  and  C14_18 
ROOT
HETATM    1  O1  UNK     1      25.576 -11.350  36.280  1.00  0.00    -0.274 OA
HETATM    2  O3  UNK     1      24.342 -12.816  35.015  1.00  0.00    -0.259 OA
HETATM    3  C1  UNK     1      21.967  -9.090  36.613  1.00  0.00     0.040 C 
HETATM    4  C2  UNK     1      23.286  -9.782  36.572  1.00  0.00    -0.033 A 
HETATM    5  C3  UNK     1      21.018 -10.169  36.079  1.00  0.00     0.009 C 
HETATM    6  C4  UNK     1      21.882 -11.169  35.305  1.00  0.00     0.046 C 
HETATM    7  C5  UNK     1      23.236 -10.911  35.864  1.00  0.00     0.025 A 
HETATM    8  C6  UNK     1      24.519  -9.341  37.192  1.00  0.00     0.005 A 
HETATM    9  C7  UNK     1      25.647 -10.149  37.027  1.00  0.00     0.092 A 
HETATM   10  C8  UNK     1      24.398 -11.781  35.669  1.00  0.00     0.295 A 
HETATM   11  C9  UNK     1      24.643  -8.164  37.933  1.00  0.00     0.017 A 
HETATM   12  C10 UNK     1      26.880  -9.815  37.584  1.00  0.00     0.075 A 
HETATM   13  C11 UNK     1      26.990  -8.640  38.323  1.00  0.00     0.071 A 
HETATM   14  C12 UNK     1      25.875  -7.817  38.497  1.00  0.00     0.038 A 
ENDROOT
BRANCH  13  15
HETATM   15  O2  UNK     1      28.183  -8.292  38.876  1.00  0.00    -0.347 OA
BRANCH  15  16
HETATM   16  C13 UNK     1      28.258  -7.016  39.511  1.00  0.00     0.214 C 
BRANCH  16  17
HETATM   17  C14 UNK     1      29.255  -6.164  38.782  1.00  0.00    -0.034 A 
HETATM   18  C15 UNK     1      30.382  -6.753  38.218  1.00  0.00     0.011 A 
HETATM   19  C17 UNK     1      31.309  -5.960  37.542  1.00  0.00     0.024 A 
HETATM   20  C19 UNK     1      31.105  -4.585  37.433  1.00  0.00     0.034 A 
HETATM   21  C18 UNK     1      29.972  -4.001  38.002  1.00  0.00     0.024 A 
HETATM   22 Cl1  UNK     1      32.249  -3.608  36.598  1.00  0.00    -0.084 Cl
HETATM   23  C16 UNK     1      29.045  -4.794  38.678  1.00  0.00     0.011 A 
ENDBRANCH  16  17
ENDBRANCH  15  16
ENDBRANCH  13  15
TORSDOF 3
ENDMDL
