MODEL 1
REMARK VINA RESULT:      -8.6      0.000      0.000
REMARK  7 active torsions:
REMARK  status: ('A' for Active; 'I' for Inactive)
REMARK    1  A    between atoms: C12_18  and  O2_2 
REMARK    2  A    between atoms: C7_13  and  O2_2 
REMARK    3  A    between atoms: C11_17  and  O3_3 
REMARK    4  A    between atoms: C17_23  and  O3_3 
REMARK    5  A    between atoms: C20_26  and  O5_5 
REMARK    6  A    between atoms: C10_16  and  C9_15 
REMARK    7  A    between atoms: C12_18  and  C17_23 
ROOT
HETATM    1  O1  UNK     1      19.417   2.161  31.057  1.00  0.00    -0.306 OA
HETATM    2  O4  UNK     1      17.888   2.361  27.868  1.00  0.00    -0.284 OA
HETATM    3  C1  UNK     1      19.092   0.791  29.225  1.00  0.00     0.051 A 
HETATM    4  C2  UNK     1      19.629   0.918  30.505  1.00  0.00     0.093 A 
HETATM    5  C3  UNK     1      18.711   2.882  30.101  1.00  0.00     0.127 A 
HETATM    6  C4  UNK     1      18.464   2.063  28.890  1.00  0.00     0.218 A 
HETATM    7  C5  UNK     1      20.294  -0.126  31.108  1.00  0.00     0.075 A 
HETATM    8  C6  UNK     1      19.193  -0.373  28.493  1.00  0.00     0.021 A 
HETATM    9  C7  UNK     1      20.410  -1.319  30.386  1.00  0.00     0.072 A 
HETATM   10  C8  UNK     1      19.865  -1.441  29.092  1.00  0.00     0.038 A 
HETATM   11  C9  UNK     1      18.307   4.145  30.250  1.00  0.00     0.053 C 
ENDROOT
BRANCH  11  12
HETATM   12  C10 UNK     1      18.533   4.991  31.438  1.00  0.00    -0.033 A 
HETATM   13  C13 UNK     1      19.568   5.911  31.426  1.00  0.00     0.014 A 
HETATM   14  C18 UNK     1      19.780   6.710  32.549  1.00  0.00     0.037 A 
HETATM   15  C20 UNK     1      18.956   6.579  33.666  1.00  0.00     0.068 A 
HETATM   16  C19 UNK     1      17.918   5.646  33.660  1.00  0.00     0.037 A 
HETATM   17  C14 UNK     1      17.705   4.847  32.538  1.00  0.00     0.014 A 
BRANCH  15  18
HETATM   18  O5  UNK     1      19.164   7.359  34.761  1.00  0.00    -0.356 OA
HETATM   19  C21 UNK     1      19.826   8.607  34.555  1.00  0.00     0.210 C 
ENDBRANCH  15  18
ENDBRANCH  11  12
BRANCH   9  20
HETATM   20  O2  UNK     1      21.060  -2.381  30.942  1.00  0.00    -0.341 OA
BRANCH  20  21
HETATM   21  C12 UNK     1      20.417  -3.035  32.034  1.00  0.00     0.286 C 
BRANCH  21  22
HETATM   22  C17 UNK     1      21.155  -2.700  33.303  1.00  0.00     0.283 C 
HETATM   23  O6  UNK     1      22.191  -2.051  33.362  1.00  0.00    -0.263 OA
BRANCH  22  24
HETATM   24  O3  UNK     1      20.480  -3.233  34.363  1.00  0.00    -0.315 OA
BRANCH  24  25
HETATM   25  C11 UNK     1      20.297  -2.358  35.481  1.00  0.00     0.123 C 
HETATM   26  C15 UNK     1      19.128  -1.425  35.200  1.00  0.00     0.040 C 
HETATM   27  C16 UNK     1      20.072  -3.188  36.735  1.00  0.00     0.040 C 
ENDBRANCH  24  25
ENDBRANCH  22  24
ENDBRANCH  21  22
ENDBRANCH  20  21
ENDBRANCH   9  20
TORSDOF 7
ENDMDL
MODEL 2
REMARK VINA RESULT:      -8.5      1.367      2.058
REMARK  7 active torsions:
REMARK  status: ('A' for Active; 'I' for Inactive)
REMARK    1  A    between atoms: C12_18  and  O2_2 
REMARK    2  A    between atoms: C7_13  and  O2_2 
REMARK    3  A    between atoms: C11_17  and  O3_3 
REMARK    4  A    between atoms: C17_23  and  O3_3 
REMARK    5  A    between atoms: C20_26  and  O5_5 
REMARK    6  A    between atoms: C10_16  and  C9_15 
REMARK    7  A    between atoms: C12_18  and  C17_23 
ROOT
HETATM    1  O1  UNK     1      19.603   1.161  31.177  1.00  0.00    -0.306 OA
HETATM    2  O4  UNK     1      19.134   0.162  27.812  1.00  0.00    -0.284 OA
HETATM    3  C1  UNK     1      19.854  -0.754  29.909  1.00  0.00     0.051 A 
HETATM    4  C2  UNK     1      19.970  -0.165  31.167  1.00  0.00     0.093 A 
HETATM    5  C3  UNK     1      19.229   1.459  29.872  1.00  0.00     0.127 A 
HETATM    6  C4  UNK     1      19.365   0.271  28.994  1.00  0.00     0.218 A 
HETATM    7  C5  UNK     1      20.413  -0.885  32.255  1.00  0.00     0.075 A 
HETATM    8  C6  UNK     1      20.172  -2.075  29.678  1.00  0.00     0.021 A 
HETATM    9  C7  UNK     1      20.742  -2.230  32.048  1.00  0.00     0.072 A 
HETATM   10  C8  UNK     1      20.621  -2.818  30.772  1.00  0.00     0.038 A 
HETATM   11  C9  UNK     1      18.804   2.653  29.459  1.00  0.00     0.053 C 
ENDROOT
BRANCH  11  12
HETATM   12  C10 UNK     1      18.656   3.857  30.300  1.00  0.00    -0.033 A 
HETATM   13  C13 UNK     1      19.155   5.066  29.845  1.00  0.00     0.014 A 
HETATM   14  C18 UNK     1      19.014   6.203  30.641  1.00  0.00     0.037 A 
HETATM   15  C20 UNK     1      18.377   6.115  31.878  1.00  0.00     0.068 A 
HETATM   16  C19 UNK     1      17.881   4.888  32.321  1.00  0.00     0.037 A 
HETATM   17  C14 UNK     1      18.021   3.752  31.525  1.00  0.00     0.014 A 
BRANCH  15  18
HETATM   18  O5  UNK     1      18.240   7.224  32.653  1.00  0.00    -0.356 OA
HETATM   19  C21 UNK     1      17.755   7.033  33.982  1.00  0.00     0.210 C 
ENDBRANCH  15  18
ENDBRANCH  11  12
BRANCH   9  20
HETATM   20  O2  UNK     1      21.184  -2.983  33.094  1.00  0.00    -0.341 OA
BRANCH  20  21
HETATM   21  C12 UNK     1      20.368  -3.011  34.263  1.00  0.00     0.286 C 
BRANCH  21  22
HETATM   22  C17 UNK     1      21.018  -2.171  35.330  1.00  0.00     0.283 C 
HETATM   23  O6  UNK     1      22.181  -1.789  35.311  1.00  0.00    -0.263 OA
BRANCH  22  24
HETATM   24  O3  UNK     1      20.103  -1.909  36.308  1.00  0.00    -0.315 OA
BRANCH  24  25
HETATM   25  C11 UNK     1      18.830  -1.440  35.851  1.00  0.00     0.123 C 
HETATM   26  C15 UNK     1      17.742  -1.963  36.777  1.00  0.00     0.040 C 
HETATM   27  C16 UNK     1      18.846   0.079  35.796  1.00  0.00     0.040 C 
ENDBRANCH  24  25
ENDBRANCH  22  24
ENDBRANCH  21  22
ENDBRANCH  20  21
ENDBRANCH   9  20
TORSDOF 7
ENDMDL
MODEL 3
REMARK VINA RESULT:      -8.3     22.135     24.629
REMARK  7 active torsions:
REMARK  status: ('A' for Active; 'I' for Inactive)
REMARK    1  A    between atoms: C12_18  and  O2_2 
REMARK    2  A    between atoms: C7_13  and  O2_2 
REMARK    3  A    between atoms: C11_17  and  O3_3 
REMARK    4  A    between atoms: C17_23  and  O3_3 
REMARK    5  A    between atoms: C20_26  and  O5_5 
REMARK    6  A    between atoms: C10_16  and  C9_15 
REMARK    7  A    between atoms: C12_18  and  C17_23 
ROOT
HETATM    1  O1  UNK     1       9.011   5.824   9.945  1.00  0.00    -0.306 OA
HETATM    2  O4  UNK     1       7.463   7.117   7.034  1.00  0.00    -0.284 OA
HETATM    3  C1  UNK     1       9.577   6.230   7.742  1.00  0.00     0.051 A 
HETATM    4  C2  UNK     1       9.996   5.759   8.984  1.00  0.00     0.093 A 
HETATM    5  C3  UNK     1       7.899   6.360   9.308  1.00  0.00     0.127 A 
HETATM    6  C4  UNK     1       8.188   6.649   7.883  1.00  0.00     0.218 A 
HETATM    7  C5  UNK     1      11.276   5.287   9.176  1.00  0.00     0.075 A 
HETATM    8  C6  UNK     1      10.407   6.254   6.642  1.00  0.00     0.021 A 
HETATM    9  C7  UNK     1      12.139   5.299   8.074  1.00  0.00     0.072 A 
HETATM   10  C8  UNK     1      11.708   5.778   6.820  1.00  0.00     0.038 A 
HETATM   11  C9  UNK     1       6.725   6.587   9.899  1.00  0.00     0.053 C 
ENDROOT
BRANCH  11  12
HETATM   12  C10 UNK     1       6.399   6.314  11.311  1.00  0.00    -0.033 A 
HETATM   13  C13 UNK     1       6.167   7.375  12.170  1.00  0.00     0.014 A 
HETATM   14  C18 UNK     1       5.859   7.115  13.505  1.00  0.00     0.037 A 
HETATM   15  C20 UNK     1       5.788   5.800  13.963  1.00  0.00     0.068 A 
HETATM   16  C19 UNK     1       6.026   4.743  13.084  1.00  0.00     0.037 A 
HETATM   17  C14 UNK     1       6.333   5.002  11.749  1.00  0.00     0.014 A 
BRANCH  15  18
HETATM   18  O5  UNK     1       5.488   5.548  15.265  1.00  0.00    -0.356 OA
HETATM   19  C21 UNK     1       5.351   4.179  15.648  1.00  0.00     0.210 C 
ENDBRANCH  15  18
ENDBRANCH  11  12
BRANCH   9  20
HETATM   20  O2  UNK     1      13.415   4.842   8.214  1.00  0.00    -0.341 OA
BRANCH  20  21
HETATM   21  C12 UNK     1      14.405   5.793   8.599  1.00  0.00     0.286 C 
BRANCH  21  22
HETATM   22  C17 UNK     1      15.198   5.231   9.749  1.00  0.00     0.283 C 
HETATM   23  O6  UNK     1      15.765   4.146   9.746  1.00  0.00    -0.263 OA
BRANCH  22  24
HETATM   24  O3  UNK     1      15.179   6.126  10.779  1.00  0.00    -0.315 OA
BRANCH  24  25
HETATM   25  C11 UNK     1      15.728   7.415  10.487  1.00  0.00     0.123 C 
HETATM   26  C15 UNK     1      15.302   8.398  11.567  1.00  0.00     0.040 C 
HETATM   27  C16 UNK     1      17.241   7.305  10.386  1.00  0.00     0.040 C 
ENDBRANCH  24  25
ENDBRANCH  22  24
ENDBRANCH  21  22
ENDBRANCH  20  21
ENDBRANCH   9  20
TORSDOF 7
ENDMDL
MODEL 4
REMARK VINA RESULT:      -8.3      2.139      3.058
REMARK  7 active torsions:
REMARK  status: ('A' for Active; 'I' for Inactive)
REMARK    1  A    between atoms: C12_18  and  O2_2 
REMARK    2  A    between atoms: C7_13  and  O2_2 
REMARK    3  A    between atoms: C11_17  and  O3_3 
REMARK    4  A    between atoms: C17_23  and  O3_3 
REMARK    5  A    between atoms: C20_26  and  O5_5 
REMARK    6  A    between atoms: C10_16  and  C9_15 
REMARK    7  A    between atoms: C12_18  and  C17_23 
ROOT
HETATM    1  O1  UNK     1      17.979   3.013  33.357  1.00  0.00    -0.306 OA
HETATM    2  O4  UNK     1      18.990   2.580  29.991  1.00  0.00    -0.284 OA
HETATM    3  C1  UNK     1      18.684   1.289  31.990  1.00  0.00     0.051 A 
HETATM    4  C2  UNK     1      18.261   1.669  33.262  1.00  0.00     0.093 A 
HETATM    5  C3  UNK     1      18.225   3.540  32.095  1.00  0.00     0.127 A 
HETATM    6  C4  UNK     1      18.685   2.486  31.158  1.00  0.00     0.218 A 
HETATM    7  C5  UNK     1      18.155   0.751  34.284  1.00  0.00     0.075 A 
HETATM    8  C6  UNK     1      19.019  -0.012  31.679  1.00  0.00     0.021 A 
HETATM    9  C7  UNK     1      18.488  -0.577  33.994  1.00  0.00     0.072 A 
HETATM   10  C8  UNK     1      18.915  -0.954  32.704  1.00  0.00     0.038 A 
HETATM   11  C9  UNK     1      18.071   4.823  31.767  1.00  0.00     0.053 C 
ENDROOT
BRANCH  11  12
HETATM   12  C10 UNK     1      17.617   5.898  32.669  1.00  0.00    -0.033 A 
HETATM   13  C13 UNK     1      18.462   6.341  33.673  1.00  0.00     0.014 A 
HETATM   14  C18 UNK     1      18.031   7.358  34.525  1.00  0.00     0.037 A 
HETATM   15  C20 UNK     1      16.765   7.917  34.362  1.00  0.00     0.068 A 
HETATM   16  C19 UNK     1      15.926   7.458  33.345  1.00  0.00     0.037 A 
HETATM   17  C14 UNK     1      16.357   6.442  32.492  1.00  0.00     0.014 A 
BRANCH  15  18
HETATM   18  O5  UNK     1      16.346   8.908  35.193  1.00  0.00    -0.356 OA
HETATM   19  C21 UNK     1      15.166   9.618  34.817  1.00  0.00     0.210 C 
ENDBRANCH  15  18
ENDBRANCH  11  12
BRANCH   9  20
HETATM   20  O2  UNK     1      18.398  -1.522  34.972  1.00  0.00    -0.341 OA
BRANCH  20  21
HETATM   21  C12 UNK     1      19.387  -1.486  36.000  1.00  0.00     0.286 C 
BRANCH  21  22
HETATM   22  C17 UNK     1      20.568  -2.314  35.568  1.00  0.00     0.283 C 
HETATM   23  O6  UNK     1      21.680  -1.871  35.314  1.00  0.00    -0.263 OA
BRANCH  22  24
HETATM   24  O3  UNK     1      20.193  -3.625  35.511  1.00  0.00    -0.315 OA
BRANCH  24  25
HETATM   25  C11 UNK     1      19.806  -4.211  36.759  1.00  0.00     0.123 C 
HETATM   26  C15 UNK     1      19.016  -5.484  36.491  1.00  0.00     0.040 C 
HETATM   27  C16 UNK     1      21.048  -4.479  37.593  1.00  0.00     0.040 C 
ENDBRANCH  24  25
ENDBRANCH  22  24
ENDBRANCH  21  22
ENDBRANCH  20  21
ENDBRANCH   9  20
TORSDOF 7
ENDMDL
MODEL 5
REMARK VINA RESULT:      -8.2     21.898     24.675
REMARK  7 active torsions:
REMARK  status: ('A' for Active; 'I' for Inactive)
REMARK    1  A    between atoms: C12_18  and  O2_2 
REMARK    2  A    between atoms: C7_13  and  O2_2 
REMARK    3  A    between atoms: C11_17  and  O3_3 
REMARK    4  A    between atoms: C17_23  and  O3_3 
REMARK    5  A    between atoms: C20_26  and  O5_5 
REMARK    6  A    between atoms: C10_16  and  C9_15 
REMARK    7  A    between atoms: C12_18  and  C17_23 
ROOT
HETATM    1  O1  UNK     1       8.839   4.848  10.011  1.00  0.00    -0.306 OA
HETATM    2  O4  UNK     1       7.341   7.295   7.935  1.00  0.00    -0.284 OA
HETATM    3  C1  UNK     1       9.474   6.258   8.295  1.00  0.00     0.051 A 
HETATM    4  C2  UNK     1       9.867   5.276   9.201  1.00  0.00     0.093 A 
HETATM    5  C3  UNK     1       7.723   5.579   9.622  1.00  0.00     0.127 A 
HETATM    6  C4  UNK     1       8.056   6.511   8.517  1.00  0.00     0.218 A 
HETATM    7  C5  UNK     1      11.165   4.816   9.239  1.00  0.00     0.075 A 
HETATM    8  C6  UNK     1      10.349   6.824   7.391  1.00  0.00     0.021 A 
HETATM    9  C7  UNK     1      12.073   5.374   8.333  1.00  0.00     0.072 A 
HETATM   10  C8  UNK     1      11.668   6.367   7.418  1.00  0.00     0.038 A 
HETATM   11  C9  UNK     1       6.512   5.461  10.167  1.00  0.00     0.053 C 
ENDROOT
BRANCH  11  12
HETATM   12  C10 UNK     1       6.143   4.547  11.265  1.00  0.00    -0.033 A 
HETATM   13  C13 UNK     1       5.779   3.244  10.967  1.00  0.00     0.014 A 
HETATM   14  C18 UNK     1       5.430   2.381  12.006  1.00  0.00     0.037 A 
HETATM   15  C20 UNK     1       5.450   2.832  13.325  1.00  0.00     0.068 A 
HETATM   16  C19 UNK     1       5.819   4.148  13.606  1.00  0.00     0.037 A 
HETATM   17  C14 UNK     1       6.168   5.011  12.568  1.00  0.00     0.014 A 
BRANCH  15  18
HETATM   18  O5  UNK     1       5.110   1.989  14.337  1.00  0.00    -0.356 OA
HETATM   19  C21 UNK     1       5.545   2.341  15.651  1.00  0.00     0.210 C 
ENDBRANCH  15  18
ENDBRANCH  11  12
BRANCH   9  20
HETATM   20  O2  UNK     1      13.369   4.951   8.332  1.00  0.00    -0.341 OA
BRANCH  20  21
HETATM   21  C12 UNK     1      14.362   5.905   8.701  1.00  0.00     0.286 C 
BRANCH  21  22
HETATM   22  C17 UNK     1      15.216   5.321   9.795  1.00  0.00     0.283 C 
HETATM   23  O6  UNK     1      15.791   4.242   9.735  1.00  0.00    -0.263 OA
BRANCH  22  24
HETATM   24  O3  UNK     1      15.239   6.187  10.849  1.00  0.00    -0.315 OA
BRANCH  24  25
HETATM   25  C11 UNK     1      15.774   7.485  10.568  1.00  0.00     0.123 C 
HETATM   26  C15 UNK     1      15.403   8.435  11.698  1.00  0.00     0.040 C 
HETATM   27  C16 UNK     1      17.280   7.379  10.389  1.00  0.00     0.040 C 
ENDBRANCH  24  25
ENDBRANCH  22  24
ENDBRANCH  21  22
ENDBRANCH  20  21
ENDBRANCH   9  20
TORSDOF 7
ENDMDL
MODEL 6
REMARK VINA RESULT:      -8.2      2.754      3.605
REMARK  7 active torsions:
REMARK  status: ('A' for Active; 'I' for Inactive)
REMARK    1  A    between atoms: C12_18  and  O2_2 
REMARK    2  A    between atoms: C7_13  and  O2_2 
REMARK    3  A    between atoms: C11_17  and  O3_3 
REMARK    4  A    between atoms: C17_23  and  O3_3 
REMARK    5  A    between atoms: C20_26  and  O5_5 
REMARK    6  A    between atoms: C10_16  and  C9_15 
REMARK    7  A    between atoms: C12_18  and  C17_23 
ROOT
HETATM    1  O1  UNK     1      17.950   3.474  33.081  1.00  0.00    -0.306 OA
HETATM    2  O4  UNK     1      18.889   3.316  29.670  1.00  0.00    -0.284 OA
HETATM    3  C1  UNK     1      18.702   1.883  31.585  1.00  0.00     0.051 A 
HETATM    4  C2  UNK     1      18.296   2.156  32.890  1.00  0.00     0.093 A 
HETATM    5  C3  UNK     1      18.136   4.095  31.852  1.00  0.00     0.127 A 
HETATM    6  C4  UNK     1      18.621   3.130  30.835  1.00  0.00     0.218 A 
HETATM    7  C5  UNK     1      18.264   1.168  33.850  1.00  0.00     0.075 A 
HETATM    8  C6  UNK     1      19.092   0.624  31.179  1.00  0.00     0.021 A 
HETATM    9  C7  UNK     1      18.654  -0.119  33.464  1.00  0.00     0.072 A 
HETATM   10  C8  UNK     1      19.064  -0.388  32.141  1.00  0.00     0.038 A 
HETATM   11  C9  UNK     1      17.909   5.387  31.614  1.00  0.00     0.053 C 
ENDROOT
BRANCH  11  12
HETATM   12  C10 UNK     1      17.427   6.376  32.597  1.00  0.00    -0.033 A 
HETATM   13  C13 UNK     1      18.292   6.832  33.578  1.00  0.00     0.014 A 
HETATM   14  C18 UNK     1      17.836   7.767  34.507  1.00  0.00     0.037 A 
HETATM   15  C20 UNK     1      16.523   8.233  34.442  1.00  0.00     0.068 A 
HETATM   16  C19 UNK     1      15.665   7.762  33.448  1.00  0.00     0.037 A 
HETATM   17  C14 UNK     1      16.121   6.828  32.519  1.00  0.00     0.014 A 
BRANCH  15  18
HETATM   18  O5  UNK     1      16.079   9.145  35.349  1.00  0.00    -0.356 OA
HETATM   19  C21 UNK     1      14.953   9.938  34.974  1.00  0.00     0.210 C 
ENDBRANCH  15  18
ENDBRANCH  11  12
BRANCH   9  20
HETATM   20  O2  UNK     1      18.638  -1.129  34.378  1.00  0.00    -0.341 OA
BRANCH  20  21
HETATM   21  C12 UNK     1      18.958  -0.788  35.726  1.00  0.00     0.286 C 
BRANCH  21  22
HETATM   22  C17 UNK     1      18.199  -1.702  36.651  1.00  0.00     0.283 C 
HETATM   23  O6  UNK     1      18.248  -2.925  36.626  1.00  0.00    -0.263 OA
BRANCH  22  24
HETATM   24  O3  UNK     1      17.459  -0.946  37.513  1.00  0.00    -0.315 OA
BRANCH  24  25
HETATM   25  C11 UNK     1      17.296   0.427  37.143  1.00  0.00     0.123 C 
HETATM   26  C15 UNK     1      15.873   0.648  36.652  1.00  0.00     0.040 C 
HETATM   27  C16 UNK     1      17.627   1.310  38.336  1.00  0.00     0.040 C 
ENDBRANCH  24  25
ENDBRANCH  22  24
ENDBRANCH  21  22
ENDBRANCH  20  21
ENDBRANCH   9  20
TORSDOF 7
ENDMDL
MODEL 7
REMARK VINA RESULT:      -8.0      9.055     13.207
REMARK  7 active torsions:
REMARK  status: ('A' for Active; 'I' for Inactive)
REMARK    1  A    between atoms: C12_18  and  O2_2 
REMARK    2  A    between atoms: C7_13  and  O2_2 
REMARK    3  A    between atoms: C11_17  and  O3_3 
REMARK    4  A    between atoms: C17_23  and  O3_3 
REMARK    5  A    between atoms: C20_26  and  O5_5 
REMARK    6  A    between atoms: C10_16  and  C9_15 
REMARK    7  A    between atoms: C12_18  and  C17_23 
ROOT
HETATM    1  O1  UNK     1      24.267  -8.777  37.125  1.00  0.00    -0.306 OA
HETATM    2  O4  UNK     1      25.162 -11.900  35.716  1.00  0.00    -0.284 OA
HETATM    3  C1  UNK     1      23.210 -10.562  36.110  1.00  0.00     0.051 A 
HETATM    4  C2  UNK     1      23.070  -9.310  36.704  1.00  0.00     0.093 A 
HETATM    5  C3  UNK     1      25.236  -9.716  36.793  1.00  0.00     0.127 A 
HETATM    6  C4  UNK     1      24.628 -10.898  36.134  1.00  0.00     0.218 A 
HETATM    7  C5  UNK     1      21.835  -8.713  36.832  1.00  0.00     0.075 A 
HETATM    8  C6  UNK     1      22.135 -11.273  35.620  1.00  0.00     0.021 A 
HETATM    9  C7  UNK     1      20.727  -9.414  36.342  1.00  0.00     0.072 A 
HETATM   10  C8  UNK     1      20.876 -10.681  35.742  1.00  0.00     0.038 A 
HETATM   11  C9  UNK     1      26.540  -9.577  37.034  1.00  0.00     0.053 C 
ENDROOT
BRANCH  11  12
HETATM   12  C10 UNK     1      27.181  -8.419  37.686  1.00  0.00    -0.033 A 
HETATM   13  C13 UNK     1      27.682  -7.394  36.902  1.00  0.00     0.014 A 
HETATM   14  C18 UNK     1      28.288  -6.299  37.519  1.00  0.00     0.037 A 
HETATM   15  C20 UNK     1      28.383  -6.246  38.909  1.00  0.00     0.068 A 
HETATM   16  C19 UNK     1      27.874  -7.289  39.683  1.00  0.00     0.037 A 
HETATM   17  C14 UNK     1      27.268  -8.383  39.066  1.00  0.00     0.014 A 
BRANCH  15  18
HETATM   18  O5  UNK     1      28.975  -5.179  39.510  1.00  0.00    -0.356 OA
HETATM   19  C21 UNK     1      29.786  -4.337  38.690  1.00  0.00     0.210 C 
ENDBRANCH  15  18
ENDBRANCH  11  12
BRANCH   9  20
HETATM   20  O2  UNK     1      19.484  -8.864  36.446  1.00  0.00    -0.341 OA
BRANCH  20  21
HETATM   21  C12 UNK     1      19.295  -7.576  35.863  1.00  0.00     0.286 C 
BRANCH  21  22
HETATM   22  C17 UNK     1      18.594  -6.690  36.859  1.00  0.00     0.283 C 
HETATM   23  O6  UNK     1      17.390  -6.469  36.876  1.00  0.00    -0.263 OA
BRANCH  22  24
HETATM   24  O3  UNK     1      19.516  -6.183  37.728  1.00  0.00    -0.315 OA
BRANCH  24  25
HETATM   25  C11 UNK     1      20.522  -5.350  37.143  1.00  0.00     0.123 C 
HETATM   26  C15 UNK     1      19.929  -3.981  36.847  1.00  0.00     0.040 C 
HETATM   27  C16 UNK     1      21.711  -5.261  38.086  1.00  0.00     0.040 C 
ENDBRANCH  24  25
ENDBRANCH  22  24
ENDBRANCH  21  22
ENDBRANCH  20  21
ENDBRANCH   9  20
TORSDOF 7
ENDMDL
MODEL 8
REMARK VINA RESULT:      -8.0      3.151      5.812
REMARK  7 active torsions:
REMARK  status: ('A' for Active; 'I' for Inactive)
REMARK    1  A    between atoms: C12_18  and  O2_2 
REMARK    2  A    between atoms: C7_13  and  O2_2 
REMARK    3  A    between atoms: C11_17  and  O3_3 
REMARK    4  A    between atoms: C17_23  and  O3_3 
REMARK    5  A    between atoms: C20_26  and  O5_5 
REMARK    6  A    between atoms: C10_16  and  C9_15 
REMARK    7  A    between atoms: C12_18  and  C17_23 
ROOT
HETATM    1  O1  UNK     1      18.924   0.298  34.663  1.00  0.00    -0.306 OA
HETATM    2  O4  UNK     1      17.342   1.164  37.710  1.00  0.00    -0.284 OA
HETATM    3  C1  UNK     1      18.522  -0.675  36.719  1.00  0.00     0.051 A 
HETATM    4  C2  UNK     1      19.086  -0.817  35.453  1.00  0.00     0.093 A 
HETATM    5  C3  UNK     1      18.225   1.213  35.441  1.00  0.00     0.127 A 
HETATM    6  C4  UNK     1      17.929   0.655  36.783  1.00  0.00     0.218 A 
HETATM    7  C5  UNK     1      19.728  -1.979  35.083  1.00  0.00     0.075 A 
HETATM    8  C6  UNK     1      18.570  -1.674  37.668  1.00  0.00     0.021 A 
HETATM    9  C7  UNK     1      19.792  -3.009  36.028  1.00  0.00     0.072 A 
HETATM   10  C8  UNK     1      19.219  -2.858  37.307  1.00  0.00     0.038 A 
HETATM   11  C9  UNK     1      17.866   2.432  35.037  1.00  0.00     0.053 C 
ENDROOT
BRANCH  11  12
HETATM   12  C10 UNK     1      18.142   3.021  33.713  1.00  0.00    -0.033 A 
HETATM   13  C13 UNK     1      18.213   2.193  32.605  1.00  0.00     0.014 A 
HETATM   14  C18 UNK     1      18.473   2.751  31.354  1.00  0.00     0.037 A 
HETATM   15  C20 UNK     1      18.659   4.127  31.228  1.00  0.00     0.068 A 
HETATM   16  C19 UNK     1      18.586   4.946  32.355  1.00  0.00     0.037 A 
HETATM   17  C14 UNK     1      18.325   4.389  33.606  1.00  0.00     0.014 A 
BRANCH  15  18
HETATM   18  O5  UNK     1      18.914   4.671  30.007  1.00  0.00    -0.356 OA
HETATM   19  C21 UNK     1      19.703   5.860  29.976  1.00  0.00     0.210 C 
ENDBRANCH  15  18
ENDBRANCH  11  12
BRANCH   9  20
HETATM   20  O2  UNK     1      20.417  -4.177  35.708  1.00  0.00    -0.341 OA
BRANCH  20  21
HETATM   21  C12 UNK     1      19.881  -5.374  36.268  1.00  0.00     0.286 C 
BRANCH  21  22
HETATM   22  C17 UNK     1      20.955  -6.060  37.070  1.00  0.00     0.283 C 
HETATM   23  O6  UNK     1      21.931  -5.504  37.556  1.00  0.00    -0.263 OA
BRANCH  22  24
HETATM   24  O3  UNK     1      20.659  -7.389  37.161  1.00  0.00    -0.315 OA
BRANCH  24  25
HETATM   25  C11 UNK     1      19.532  -7.715  37.982  1.00  0.00     0.123 C 
HETATM   26  C15 UNK     1      18.928  -9.027  37.505  1.00  0.00     0.040 C 
HETATM   27  C16 UNK     1      19.975  -7.789  39.435  1.00  0.00     0.040 C 
ENDBRANCH  24  25
ENDBRANCH  22  24
ENDBRANCH  21  22
ENDBRANCH  20  21
ENDBRANCH   9  20
TORSDOF 7
ENDMDL
MODEL 9
REMARK VINA RESULT:      -7.9     10.950     14.083
REMARK  7 active torsions:
REMARK  status: ('A' for Active; 'I' for Inactive)
REMARK    1  A    between atoms: C12_18  and  O2_2 
REMARK    2  A    between atoms: C7_13  and  O2_2 
REMARK    3  A    between atoms: C11_17  and  O3_3 
REMARK    4  A    between atoms: C17_23  and  O3_3 
REMARK    5  A    between atoms: C20_26  and  O5_5 
REMARK    6  A    between atoms: C10_16  and  C9_15 
REMARK    7  A    between atoms: C12_18  and  C17_23 
ROOT
HETATM    1  O1  UNK     1      24.277  -8.494  37.392  1.00  0.00    -0.306 OA
HETATM    2  O4  UNK     1      25.732 -11.469  36.137  1.00  0.00    -0.284 OA
HETATM    3  C1  UNK     1      26.364  -9.483  37.325  1.00  0.00     0.051 A 
HETATM    4  C2  UNK     1      25.606  -8.389  37.737  1.00  0.00     0.093 A 
HETATM    5  C3  UNK     1      24.156  -9.707  36.726  1.00  0.00     0.127 A 
HETATM    6  C4  UNK     1      25.463 -10.403  36.643  1.00  0.00     0.218 A 
HETATM    7  C5  UNK     1      26.180  -7.337  38.417  1.00  0.00     0.075 A 
HETATM    8  C6  UNK     1      27.718  -9.579  37.569  1.00  0.00     0.021 A 
HETATM    9  C7  UNK     1      27.552  -7.410  38.678  1.00  0.00     0.072 A 
HETATM   10  C8  UNK     1      28.313  -8.520  38.258  1.00  0.00     0.038 A 
HETATM   11  C9  UNK     1      23.016 -10.185  36.225  1.00  0.00     0.053 C 
ENDROOT
BRANCH  11  12
HETATM   12  C10 UNK     1      21.699  -9.524  36.287  1.00  0.00    -0.033 A 
HETATM   13  C13 UNK     1      20.814  -9.871  37.295  1.00  0.00     0.014 A 
HETATM   14  C18 UNK     1      19.569  -9.245  37.353  1.00  0.00     0.037 A 
HETATM   15  C20 UNK     1      19.227  -8.282  36.405  1.00  0.00     0.068 A 
HETATM   16  C19 UNK     1      20.130  -7.946  35.396  1.00  0.00     0.037 A 
HETATM   17  C14 UNK     1      21.375  -8.571  35.338  1.00  0.00     0.014 A 
BRANCH  15  18
HETATM   18  O5  UNK     1      18.012  -7.673  36.462  1.00  0.00    -0.356 OA
HETATM   19  C21 UNK     1      17.278  -7.569  35.242  1.00  0.00     0.210 C 
ENDBRANCH  15  18
ENDBRANCH  11  12
BRANCH   9  20
HETATM   20  O2  UNK     1      28.165  -6.394  39.349  1.00  0.00    -0.341 OA
BRANCH  20  21
HETATM   21  C12 UNK     1      28.019  -5.081  38.809  1.00  0.00     0.286 C 
BRANCH  21  22
HETATM   22  C17 UNK     1      29.310  -4.331  39.001  1.00  0.00     0.283 C 
HETATM   23  O6  UNK     1      29.624  -3.722  40.016  1.00  0.00    -0.263 OA
BRANCH  22  24
HETATM   24  O3  UNK     1      30.062  -4.444  37.868  1.00  0.00    -0.315 OA
BRANCH  24  25
HETATM   25  C11 UNK     1      31.429  -4.818  38.070  1.00  0.00     0.123 C 
HETATM   26  C15 UNK     1      31.507  -6.320  38.305  1.00  0.00     0.040 C 
HETATM   27  C16 UNK     1      32.249  -4.390  36.864  1.00  0.00     0.040 C 
ENDBRANCH  24  25
ENDBRANCH  22  24
ENDBRANCH  21  22
ENDBRANCH  20  21
ENDBRANCH   9  20
TORSDOF 7
ENDMDL
MODEL 10
REMARK VINA RESULT:      -7.9     22.268     24.938
REMARK  7 active torsions:
REMARK  status: ('A' for Active; 'I' for Inactive)
REMARK    1  A    between atoms: C12_18  and  O2_2 
REMARK    2  A    between atoms: C7_13  and  O2_2 
REMARK    3  A    between atoms: C11_17  and  O3_3 
REMARK    4  A    between atoms: C17_23  and  O3_3 
REMARK    5  A    between atoms: C20_26  and  O5_5 
REMARK    6  A    between atoms: C10_16  and  C9_15 
REMARK    7  A    between atoms: C12_18  and  C17_23 
ROOT
HETATM    1  O1  UNK     1      10.010   5.289   9.245  1.00  0.00    -0.306 OA
HETATM    2  O4  UNK     1       9.060   6.767   6.170  1.00  0.00    -0.284 OA
HETATM    3  C1  UNK     1      11.043   6.102   7.345  1.00  0.00     0.051 A 
HETATM    4  C2  UNK     1      11.204   5.514   8.598  1.00  0.00     0.093 A 
HETATM    5  C3  UNK     1       9.022   5.747   8.382  1.00  0.00     0.127 A 
HETATM    6  C4  UNK     1       9.612   6.287   7.134  1.00  0.00     0.218 A 
HETATM    7  C5  UNK     1      12.455   5.211   9.090  1.00  0.00     0.075 A 
HETATM    8  C6  UNK     1      12.111   6.412   6.530  1.00  0.00     0.021 A 
HETATM    9  C7  UNK     1      13.556   5.515   8.282  1.00  0.00     0.072 A 
HETATM   10  C8  UNK     1      13.385   6.110   7.015  1.00  0.00     0.038 A 
HETATM   11  C9  UNK     1       7.714   5.708   8.640  1.00  0.00     0.053 C 
ENDROOT
BRANCH  11  12
HETATM   12  C10 UNK     1       7.090   5.180   9.868  1.00  0.00    -0.033 A 
HETATM   13  C13 UNK     1       6.679   3.858   9.903  1.00  0.00     0.014 A 
HETATM   14  C18 UNK     1       6.088   3.360  11.064  1.00  0.00     0.037 A 
HETATM   15  C20 UNK     1       5.917   4.189  12.172  1.00  0.00     0.068 A 
HETATM   16  C19 UNK     1       6.336   5.518  12.119  1.00  0.00     0.037 A 
HETATM   17  C14 UNK     1       6.927   6.017  10.958  1.00  0.00     0.014 A 
BRANCH  15  18
HETATM   18  O5  UNK     1       5.341   3.702  13.304  1.00  0.00    -0.356 OA
HETATM   19  C21 UNK     1       5.898   4.122  14.550  1.00  0.00     0.210 C 
ENDBRANCH  15  18
ENDBRANCH  11  12
BRANCH   9  20
HETATM   20  O2  UNK     1      14.814   5.233   8.725  1.00  0.00    -0.341 OA
BRANCH  20  21
HETATM   21  C12 UNK     1      15.030   5.278  10.134  1.00  0.00     0.286 C 
BRANCH  21  22
HETATM   22  C17 UNK     1      15.708   6.577  10.481  1.00  0.00     0.283 C 
HETATM   23  O6  UNK     1      16.831   6.901  10.116  1.00  0.00    -0.263 OA
BRANCH  22  24
HETATM   24  O3  UNK     1      14.870   7.321  11.260  1.00  0.00    -0.315 OA
BRANCH  24  25
HETATM   25  C11 UNK     1      14.783   8.709  10.918  1.00  0.00     0.123 C 
HETATM   26  C15 UNK     1      13.861   8.872   9.719  1.00  0.00     0.040 C 
HETATM   27  C16 UNK     1      14.288   9.491  12.124  1.00  0.00     0.040 C 
ENDBRANCH  24  25
ENDBRANCH  22  24
ENDBRANCH  21  22
ENDBRANCH  20  21
ENDBRANCH   9  20
TORSDOF 7
ENDMDL
