MODEL 1
REMARK VINA RESULT:      -9.6      0.000      0.000
REMARK  2 active torsions:
REMARK  status: ('A' for Active; 'I' for Inactive)
REMARK    1  A    between atoms: C4_8  and  N1_4 
REMARK       I    between atoms: C8_12  and  N1_4 
REMARK    2  A    between atoms: C3_7  and  C8_12 
ROOT
HETATM    1  O1  UNK     1      19.186   1.717  31.589  1.00  0.00    -0.304 OA
HETATM    2  O2  UNK     1      17.838   2.187  27.769  1.00  0.00    -0.287 OA
HETATM    3  C1  UNK     1      19.025   0.856  29.321  1.00  0.00     0.048 A 
HETATM    4  C2  UNK     1      19.456   0.757  30.645  1.00  0.00     0.090 A 
HETATM    5  C3  UNK     1      18.455   2.818  31.194  1.00  0.00     0.147 A 
HETATM    6  C5  UNK     1      18.246   2.036  28.912  1.00  0.00     0.187 A 
HETATM    7  C6  UNK     1      17.980   3.040  29.962  1.00  0.00     0.098 A 
HETATM    8  C9  UNK     1      19.331  -0.152  28.403  1.00  0.00     0.018 A 
HETATM    9  C11 UNK     1      20.197  -0.351  31.057  1.00  0.00     0.038 A 
HETATM   10  C13 UNK     1      20.071  -1.259  28.818  1.00  0.00     0.001 A 
HETATM   11  C15 UNK     1      20.503  -1.359  30.142  1.00  0.00     0.003 A 
ENDROOT
BRANCH   5  12
HETATM   12  C8  UNK     1      18.176   3.829  32.215  1.00  0.00     0.280 C 
HETATM   13  O3  UNK     1      17.912   3.483  33.368  1.00  0.00    -0.265 OA
HETATM   14  N1  UNK     1      18.250   5.122  31.712  1.00  0.00    -0.321 N 
HETATM   15  H4  UNK     1      18.483   5.230  30.726  1.00  0.00     0.169 HD
BRANCH  14  16
HETATM   16  C4  UNK     1      18.040   6.338  32.407  1.00  0.00     0.035 A 
HETATM   17  C10 UNK     1      19.098   6.951  33.077  1.00  0.00     0.036 A 
HETATM   18  C7  UNK     1      18.889   8.148  33.762  1.00  0.00    -0.060 A 
HETATM   19  C14 UNK     1      17.623   8.733  33.776  1.00  0.00     0.007 A 
HETATM   20  C17 UNK     1      20.021   8.804  34.479  1.00  0.00     0.048 C 
HETATM   21  C16 UNK     1      16.565   8.120  33.105  1.00  0.00     0.003 A 
HETATM   22  C12 UNK     1      16.774   6.921  32.421  1.00  0.00     0.029 A 
ENDBRANCH  14  16
ENDBRANCH   5  12
TORSDOF 2
ENDMDL
MODEL 2
REMARK VINA RESULT:      -9.1      1.622      7.694
REMARK  2 active torsions:
REMARK  status: ('A' for Active; 'I' for Inactive)
REMARK    1  A    between atoms: C4_8  and  N1_4 
REMARK       I    between atoms: C8_12  and  N1_4 
REMARK    2  A    between atoms: C3_7  and  C8_12 
ROOT
HETATM    1  O1  UNK     1      17.164   4.798  31.843  1.00  0.00    -0.304 OA
HETATM    2  O2  UNK     1      20.808   6.556  32.355  1.00  0.00    -0.287 OA
HETATM    3  C1  UNK     1      18.462   6.705  32.611  1.00  0.00     0.048 A 
HETATM    4  C2  UNK     1      17.248   6.047  32.408  1.00  0.00     0.090 A 
HETATM    5  C3  UNK     1      18.339   4.183  31.467  1.00  0.00     0.147 A 
HETATM    6  C5  UNK     1      19.710   6.037  32.206  1.00  0.00     0.187 A 
HETATM    7  C6  UNK     1      19.568   4.696  31.604  1.00  0.00     0.098 A 
HETATM    8  C9  UNK     1      18.487   7.975  33.190  1.00  0.00     0.018 A 
HETATM    9  C11 UNK     1      16.051   6.658  32.783  1.00  0.00     0.038 A 
HETATM   10  C13 UNK     1      17.289   8.585  33.565  1.00  0.00     0.001 A 
HETATM   11  C15 UNK     1      16.074   7.928  33.362  1.00  0.00     0.003 A 
ENDROOT
BRANCH   5  12
HETATM   12  C8  UNK     1      18.229   2.852  30.868  1.00  0.00     0.280 C 
HETATM   13  O3  UNK     1      17.145   2.464  30.428  1.00  0.00    -0.265 OA
HETATM   14  N1  UNK     1      19.437   2.165  30.880  1.00  0.00    -0.321 N 
HETATM   15  H4  UNK     1      20.242   2.638  31.287  1.00  0.00     0.169 HD
BRANCH  14  16
HETATM   16  C4  UNK     1      19.700   0.863  30.390  1.00  0.00     0.035 A 
HETATM   17  C10 UNK     1      20.054  -0.157  31.271  1.00  0.00     0.036 A 
HETATM   18  C7  UNK     1      20.312  -1.439  30.786  1.00  0.00    -0.060 A 
HETATM   19  C14 UNK     1      20.217  -1.701  29.419  1.00  0.00     0.007 A 
HETATM   20  C17 UNK     1      20.692  -2.531  31.730  1.00  0.00     0.048 C 
HETATM   21  C16 UNK     1      19.862  -0.680  28.538  1.00  0.00     0.003 A 
HETATM   22  C12 UNK     1      19.604   0.602  29.023  1.00  0.00     0.029 A 
ENDBRANCH  14  16
ENDBRANCH   5  12
TORSDOF 2
ENDMDL
MODEL 3
REMARK VINA RESULT:      -8.8      1.857      7.812
REMARK  2 active torsions:
REMARK  status: ('A' for Active; 'I' for Inactive)
REMARK    1  A    between atoms: C4_8  and  N1_4 
REMARK       I    between atoms: C8_12  and  N1_4 
REMARK    2  A    between atoms: C3_7  and  C8_12 
ROOT
HETATM    1  O1  UNK     1      16.956   6.075  31.970  1.00  0.00    -0.304 OA
HETATM    2  O2  UNK     1      19.082   7.668  35.064  1.00  0.00    -0.287 OA
HETATM    3  C1  UNK     1      17.024   7.545  33.905  1.00  0.00     0.048 A 
HETATM    4  C2  UNK     1      16.355   6.963  32.827  1.00  0.00     0.090 A 
HETATM    5  C3  UNK     1      18.278   5.755  32.200  1.00  0.00     0.147 A 
HETATM    6  C5  UNK     1      18.435   7.195  34.140  1.00  0.00     0.187 A 
HETATM    7  C6  UNK     1      19.037   6.236  33.192  1.00  0.00     0.098 A 
HETATM    8  C9  UNK     1      16.362   8.444  34.744  1.00  0.00     0.018 A 
HETATM    9  C11 UNK     1      15.018   7.279  32.583  1.00  0.00     0.038 A 
HETATM   10  C13 UNK     1      15.025   8.757  34.498  1.00  0.00     0.001 A 
HETATM   11  C15 UNK     1      14.354   8.176  33.420  1.00  0.00     0.003 A 
ENDROOT
BRANCH   5  12
HETATM   12  C8  UNK     1      18.900   4.805  31.275  1.00  0.00     0.280 C 
HETATM   13  O3  UNK     1      19.915   5.127  30.655  1.00  0.00    -0.265 OA
HETATM   14  N1  UNK     1      18.217   3.597  31.220  1.00  0.00    -0.321 N 
HETATM   15  H4  UNK     1      17.389   3.498  31.805  1.00  0.00     0.169 HD
BRANCH  14  16
HETATM   16  C4  UNK     1      18.530   2.457  30.439  1.00  0.00     0.035 A 
HETATM   17  C10 UNK     1      19.390   1.481  30.941  1.00  0.00     0.036 A 
HETATM   18  C7  UNK     1      19.697   0.360  30.171  1.00  0.00    -0.060 A 
HETATM   19  C14 UNK     1      19.144   0.214  28.898  1.00  0.00     0.007 A 
HETATM   20  C17 UNK     1      20.617  -0.684  30.708  1.00  0.00     0.048 C 
HETATM   21  C16 UNK     1      18.284   1.191  28.397  1.00  0.00     0.003 A 
HETATM   22  C12 UNK     1      17.978   2.313  29.167  1.00  0.00     0.029 A 
ENDBRANCH  14  16
ENDBRANCH   5  12
TORSDOF 2
ENDMDL
MODEL 4
REMARK VINA RESULT:      -8.8      1.544      7.565
REMARK  2 active torsions:
REMARK  status: ('A' for Active; 'I' for Inactive)
REMARK    1  A    between atoms: C4_8  and  N1_4 
REMARK       I    between atoms: C8_12  and  N1_4 
REMARK    2  A    between atoms: C3_7  and  C8_12 
ROOT
HETATM    1  O1  UNK     1      19.075   6.010  33.115  1.00  0.00    -0.304 OA
HETATM    2  O2  UNK     1      15.679   8.110  32.283  1.00  0.00    -0.287 OA
HETATM    3  C1  UNK     1      17.861   8.114  33.195  1.00  0.00     0.048 A 
HETATM    4  C2  UNK     1      18.993   7.338  33.451  1.00  0.00     0.090 A 
HETATM    5  C3  UNK     1      17.984   5.434  32.499  1.00  0.00     0.147 A 
HETATM    6  C5  UNK     1      16.703   7.489  32.537  1.00  0.00     0.187 A 
HETATM    7  C6  UNK     1      16.839   6.059  32.194  1.00  0.00     0.098 A 
HETATM    8  C9  UNK     1      17.833   9.462  33.561  1.00  0.00     0.018 A 
HETATM    9  C11 UNK     1      20.103   7.908  34.075  1.00  0.00     0.038 A 
HETATM   10  C13 UNK     1      18.946  10.029  34.184  1.00  0.00     0.001 A 
HETATM   11  C15 UNK     1      20.078   9.254  34.440  1.00  0.00     0.003 A 
ENDROOT
BRANCH   5  12
HETATM   12  C8  UNK     1      18.091   4.017  32.147  1.00  0.00     0.280 C 
HETATM   13  O3  UNK     1      17.869   3.154  32.999  1.00  0.00    -0.265 OA
HETATM   14  N1  UNK     1      18.454   3.828  30.819  1.00  0.00    -0.321 N 
HETATM   15  H4  UNK     1      18.600   4.660  30.250  1.00  0.00     0.169 HD
BRANCH  14  16
HETATM   16  C4  UNK     1      18.650   2.602  30.139  1.00  0.00     0.035 A 
HETATM   17  C10 UNK     1      19.512   1.641  30.667  1.00  0.00     0.036 A 
HETATM   18  C7  UNK     1      19.704   0.433  29.996  1.00  0.00    -0.060 A 
HETATM   19  C14 UNK     1      19.035   0.186  28.797  1.00  0.00     0.007 A 
HETATM   20  C17 UNK     1      20.627  -0.594  30.560  1.00  0.00     0.048 C 
HETATM   21  C16 UNK     1      18.172   1.147  28.270  1.00  0.00     0.003 A 
HETATM   22  C12 UNK     1      17.981   2.356  28.941  1.00  0.00     0.029 A 
ENDBRANCH  14  16
ENDBRANCH   5  12
TORSDOF 2
ENDMDL
MODEL 5
REMARK VINA RESULT:      -8.7      8.689     10.500
REMARK  2 active torsions:
REMARK  status: ('A' for Active; 'I' for Inactive)
REMARK    1  A    between atoms: C4_8  and  N1_4 
REMARK       I    between atoms: C8_12  and  N1_4 
REMARK    2  A    between atoms: C3_7  and  C8_12 
ROOT
HETATM    1  O1  UNK     1      20.227  -5.974  37.984  1.00  0.00    -0.304 OA
HETATM    2  O2  UNK     1      17.637  -8.084  35.644  1.00  0.00    -0.287 OA
HETATM    3  C1  UNK     1      19.142  -8.087  37.468  1.00  0.00     0.048 A 
HETATM    4  C2  UNK     1      20.014  -7.308  38.230  1.00  0.00     0.090 A 
HETATM    5  C3  UNK     1      19.540  -5.396  36.936  1.00  0.00     0.147 A 
HETATM    6  C5  UNK     1      18.415  -7.459  36.352  1.00  0.00     0.187 A 
HETATM    7  C6  UNK     1      18.676  -6.023  36.128  1.00  0.00     0.098 A 
HETATM    8  C9  UNK     1      18.966  -9.441  37.763  1.00  0.00     0.018 A 
HETATM    9  C11 UNK     1      20.715  -7.879  39.292  1.00  0.00     0.038 A 
HETATM   10  C13 UNK     1      19.668 -10.010  38.827  1.00  0.00     0.001 A 
HETATM   11  C15 UNK     1      20.540  -9.231  39.589  1.00  0.00     0.003 A 
ENDROOT
BRANCH   5  12
HETATM   12  C8  UNK     1      19.780  -3.973  36.691  1.00  0.00     0.280 C 
HETATM   13  O3  UNK     1      20.934  -3.553  36.584  1.00  0.00    -0.265 OA
HETATM   14  N1  UNK     1      18.599  -3.245  36.609  1.00  0.00    -0.321 N 
HETATM   15  H4  UNK     1      17.725  -3.755  36.723  1.00  0.00     0.169 HD
BRANCH  14  16
HETATM   16  C4  UNK     1      18.450  -1.855  36.384  1.00  0.00     0.035 A 
HETATM   17  C10 UNK     1      18.076  -1.014  37.431  1.00  0.00     0.036 A 
HETATM   18  C7  UNK     1      17.931   0.356  37.207  1.00  0.00    -0.060 A 
HETATM   19  C14 UNK     1      18.158   0.884  35.936  1.00  0.00     0.007 A 
HETATM   20  C17 UNK     1      17.530   1.255  38.328  1.00  0.00     0.048 C 
HETATM   21  C16 UNK     1      18.533   0.042  34.889  1.00  0.00     0.003 A 
HETATM   22  C12 UNK     1      18.678  -1.328  35.113  1.00  0.00     0.029 A 
ENDBRANCH  14  16
ENDBRANCH   5  12
TORSDOF 2
ENDMDL
MODEL 6
REMARK VINA RESULT:      -8.6      8.297     11.963
REMARK  2 active torsions:
REMARK  status: ('A' for Active; 'I' for Inactive)
REMARK    1  A    between atoms: C4_8  and  N1_4 
REMARK       I    between atoms: C8_12  and  N1_4 
REMARK    2  A    between atoms: C3_7  and  C8_12 
ROOT
HETATM    1  O1  UNK     1      19.141  -2.459  37.471  1.00  0.00    -0.304 OA
HETATM    2  O2  UNK     1      19.701  -1.431  33.565  1.00  0.00    -0.287 OA
HETATM    3  C1  UNK     1      18.759  -0.880  35.663  1.00  0.00     0.048 A 
HETATM    4  C2  UNK     1      18.605  -1.291  36.988  1.00  0.00     0.090 A 
HETATM    5  C3  UNK     1      19.858  -3.247  36.596  1.00  0.00     0.147 A 
HETATM    6  C5  UNK     1      19.528  -1.730  34.738  1.00  0.00     0.187 A 
HETATM    7  C6  UNK     1      20.084  -2.975  35.305  1.00  0.00     0.098 A 
HETATM    8  C9  UNK     1      18.191   0.319  35.226  1.00  0.00     0.018 A 
HETATM    9  C11 UNK     1      17.881  -0.504  37.883  1.00  0.00     0.038 A 
HETATM   10  C13 UNK     1      17.467   1.105  36.124  1.00  0.00     0.001 A 
HETATM   11  C15 UNK     1      17.313   0.694  37.449  1.00  0.00     0.003 A 
ENDROOT
BRANCH   5  12
HETATM   12  C8  UNK     1      20.422  -4.488  37.131  1.00  0.00     0.280 C 
HETATM   13  O3  UNK     1      21.644  -4.626  37.207  1.00  0.00    -0.265 OA
HETATM   14  N1  UNK     1      19.439  -5.399  37.500  1.00  0.00    -0.321 N 
HETATM   15  H4  UNK     1      18.468  -5.120  37.368  1.00  0.00     0.169 HD
BRANCH  14  16
HETATM   16  C4  UNK     1      19.616  -6.692  38.049  1.00  0.00     0.035 A 
HETATM   17  C10 UNK     1      19.258  -7.819  37.311  1.00  0.00     0.036 A 
HETATM   18  C7  UNK     1      19.433  -9.092  37.854  1.00  0.00    -0.060 A 
HETATM   19  C14 UNK     1      19.967  -9.238  39.134  1.00  0.00     0.007 A 
HETATM   20  C17 UNK     1      19.049 -10.298  37.064  1.00  0.00     0.048 C 
HETATM   21  C16 UNK     1      20.326  -8.110  39.872  1.00  0.00     0.003 A 
HETATM   22  C12 UNK     1      20.149  -6.837  39.330  1.00  0.00     0.029 A 
ENDBRANCH  14  16
ENDBRANCH   5  12
TORSDOF 2
ENDMDL
MODEL 7
REMARK VINA RESULT:      -8.6      8.407     11.887
REMARK  2 active torsions:
REMARK  status: ('A' for Active; 'I' for Inactive)
REMARK    1  A    between atoms: C4_8  and  N1_4 
REMARK       I    between atoms: C8_12  and  N1_4 
REMARK    2  A    between atoms: C3_7  and  C8_12 
ROOT
HETATM    1  O1  UNK     1      19.192  -2.431  37.571  1.00  0.00    -0.304 OA
HETATM    2  O2  UNK     1      19.565  -1.393  33.645  1.00  0.00    -0.287 OA
HETATM    3  C1  UNK     1      18.699  -0.863  35.781  1.00  0.00     0.048 A 
HETATM    4  C2  UNK     1      18.610  -1.276  37.111  1.00  0.00     0.090 A 
HETATM    5  C3  UNK     1      19.891  -3.203  36.667  1.00  0.00     0.147 A 
HETATM    6  C5  UNK     1      19.448  -1.695  34.825  1.00  0.00     0.187 A 
HETATM    7  C6  UNK     1      20.056  -2.927  35.367  1.00  0.00     0.098 A 
HETATM    8  C9  UNK     1      18.085   0.322  35.368  1.00  0.00     0.018 A 
HETATM    9  C11 UNK     1      17.905  -0.506  38.036  1.00  0.00     0.038 A 
HETATM   10  C13 UNK     1      17.381   1.091  36.296  1.00  0.00     0.001 A 
HETATM   11  C15 UNK     1      17.291   0.679  37.627  1.00  0.00     0.003 A 
ENDROOT
BRANCH   5  12
HETATM   12  C8  UNK     1      20.505  -4.430  37.177  1.00  0.00     0.280 C 
HETATM   13  O3  UNK     1      21.732  -4.537  37.207  1.00  0.00    -0.265 OA
HETATM   14  N1  UNK     1      19.560  -5.365  37.581  1.00  0.00    -0.321 N 
HETATM   15  H4  UNK     1      18.578  -5.111  37.487  1.00  0.00     0.169 HD
BRANCH  14  16
HETATM   16  C4  UNK     1      19.790  -6.654  38.120  1.00  0.00     0.035 A 
HETATM   17  C10 UNK     1      20.940  -6.904  38.867  1.00  0.00     0.036 A 
HETATM   18  C7  UNK     1      21.165  -8.175  39.398  1.00  0.00    -0.060 A 
HETATM   19  C14 UNK     1      20.239  -9.196  39.181  1.00  0.00     0.007 A 
HETATM   20  C17 UNK     1      22.396  -8.442  40.197  1.00  0.00     0.048 C 
HETATM   21  C16 UNK     1      19.088  -8.945  38.434  1.00  0.00     0.003 A 
HETATM   22  C12 UNK     1      18.864  -7.674  37.902  1.00  0.00     0.029 A 
ENDBRANCH  14  16
ENDBRANCH   5  12
TORSDOF 2
ENDMDL
MODEL 8
REMARK VINA RESULT:      -8.6      1.449      2.308
REMARK  2 active torsions:
REMARK  status: ('A' for Active; 'I' for Inactive)
REMARK    1  A    between atoms: C4_8  and  N1_4 
REMARK       I    between atoms: C8_12  and  N1_4 
REMARK    2  A    between atoms: C3_7  and  C8_12 
ROOT
HETATM    1  O1  UNK     1      19.355   1.954  30.323  1.00  0.00    -0.304 OA
HETATM    2  O2  UNK     1      18.228  -0.044  33.694  1.00  0.00    -0.287 OA
HETATM    3  C1  UNK     1      19.249  -0.134  31.563  1.00  0.00     0.048 A 
HETATM    4  C2  UNK     1      19.608   0.610  30.438  1.00  0.00     0.090 A 
HETATM    5  C3  UNK     1      18.719   2.581  31.374  1.00  0.00     0.147 A 
HETATM    6  C5  UNK     1      18.570   0.546  32.679  1.00  0.00     0.187 A 
HETATM    7  C6  UNK     1      18.321   1.992  32.509  1.00  0.00     0.098 A 
HETATM    8  C9  UNK     1      19.530  -1.500  31.625  1.00  0.00     0.018 A 
HETATM    9  C11 UNK     1      20.251  -0.011  29.367  1.00  0.00     0.038 A 
HETATM   10  C13 UNK     1      20.174  -2.119  30.552  1.00  0.00     0.001 A 
HETATM   11  C15 UNK     1      20.533  -1.376  29.426  1.00  0.00     0.003 A 
ENDROOT
BRANCH   5  12
HETATM   12  C8  UNK     1      18.459   4.015  31.233  1.00  0.00     0.280 C 
HETATM   13  O3  UNK     1      18.727   4.586  30.175  1.00  0.00    -0.265 OA
HETATM   14  N1  UNK     1      17.914   4.568  32.385  1.00  0.00    -0.321 N 
HETATM   15  H4  UNK     1      17.756   3.946  33.175  1.00  0.00     0.169 HD
BRANCH  14  16
HETATM   16  C4  UNK     1      17.540   5.916  32.607  1.00  0.00     0.035 A 
HETATM   17  C10 UNK     1      18.416   6.786  33.254  1.00  0.00     0.036 A 
HETATM   18  C7  UNK     1      18.046   8.114  33.472  1.00  0.00    -0.060 A 
HETATM   19  C14 UNK     1      16.801   8.571  33.042  1.00  0.00     0.007 A 
HETATM   20  C17 UNK     1      18.984   9.044  34.165  1.00  0.00     0.048 C 
HETATM   21  C16 UNK     1      15.925   7.700  32.394  1.00  0.00     0.003 A 
HETATM   22  C12 UNK     1      16.294   6.372  32.177  1.00  0.00     0.029 A 
ENDBRANCH  14  16
ENDBRANCH   5  12
TORSDOF 2
ENDMDL
MODEL 9
REMARK VINA RESULT:      -8.5      8.208     10.216
REMARK  2 active torsions:
REMARK  status: ('A' for Active; 'I' for Inactive)
REMARK    1  A    between atoms: C4_8  and  N1_4 
REMARK       I    between atoms: C8_12  and  N1_4 
REMARK    2  A    between atoms: C3_7  and  C8_12 
ROOT
HETATM    1  O1  UNK     1      20.397  -5.880  35.624  1.00  0.00    -0.304 OA
HETATM    2  O2  UNK     1      20.676  -6.915  39.559  1.00  0.00    -0.287 OA
HETATM    3  C1  UNK     1      20.852  -7.583  37.298  1.00  0.00     0.048 A 
HETATM    4  C2  UNK     1      20.739  -7.163  35.972  1.00  0.00     0.090 A 
HETATM    5  C3  UNK     1      20.159  -4.981  36.643  1.00  0.00     0.147 A 
HETATM    6  C5  UNK     1      20.596  -6.614  38.376  1.00  0.00     0.187 A 
HETATM    7  C6  UNK     1      20.232  -5.247  37.953  1.00  0.00     0.098 A 
HETATM    8  C9  UNK     1      21.202  -8.903  37.592  1.00  0.00     0.018 A 
HETATM    9  C11 UNK     1      20.976  -8.063  34.932  1.00  0.00     0.038 A 
HETATM   10  C13 UNK     1      21.439  -9.801  36.550  1.00  0.00     0.001 A 
HETATM   11  C15 UNK     1      21.326  -9.382  35.223  1.00  0.00     0.003 A 
ENDROOT
BRANCH   5  12
HETATM   12  C8  UNK     1      19.797  -3.617  36.252  1.00  0.00     0.280 C 
HETATM   13  O3  UNK     1      20.541  -2.972  35.512  1.00  0.00    -0.265 OA
HETATM   14  N1  UNK     1      18.589  -3.212  36.808  1.00  0.00    -0.321 N 
HETATM   15  H4  UNK     1      18.100  -3.877  37.403  1.00  0.00     0.169 HD
BRANCH  14  16
HETATM   16  C4  UNK     1      17.936  -1.965  36.649  1.00  0.00     0.035 A 
HETATM   17  C10 UNK     1      18.103  -0.963  37.603  1.00  0.00     0.036 A 
HETATM   18  C7  UNK     1      17.459   0.265  37.445  1.00  0.00    -0.060 A 
HETATM   19  C14 UNK     1      16.648   0.489  36.333  1.00  0.00     0.007 A 
HETATM   20  C17 UNK     1      17.638   1.337  38.467  1.00  0.00     0.048 C 
HETATM   21  C16 UNK     1      16.481  -0.514  35.379  1.00  0.00     0.003 A 
HETATM   22  C12 UNK     1      17.124  -1.742  35.537  1.00  0.00     0.029 A 
ENDBRANCH  14  16
ENDBRANCH   5  12
TORSDOF 2
ENDMDL
MODEL 10
REMARK VINA RESULT:      -8.5     13.656     16.742
REMARK  2 active torsions:
REMARK  status: ('A' for Active; 'I' for Inactive)
REMARK    1  A    between atoms: C4_8  and  N1_4 
REMARK       I    between atoms: C8_12  and  N1_4 
REMARK    2  A    between atoms: C3_7  and  C8_12 
ROOT
HETATM    1  O1  UNK     1      19.459  -1.500  14.248  1.00  0.00    -0.304 OA
HETATM    2  O2  UNK     1      17.972  -5.241  13.594  1.00  0.00    -0.287 OA
HETATM    3  C1  UNK     1      19.291  -3.446  12.801  1.00  0.00     0.048 A 
HETATM    4  C2  UNK     1      19.766  -2.165  13.087  1.00  0.00     0.090 A 
HETATM    5  C3  UNK     1      18.646  -2.141  15.159  1.00  0.00     0.147 A 
HETATM    6  C5  UNK     1      18.424  -4.119  13.781  1.00  0.00     0.187 A 
HETATM    7  C6  UNK     1      18.123  -3.365  15.015  1.00  0.00     0.098 A 
HETATM    8  C9  UNK     1      19.635  -4.074  11.602  1.00  0.00     0.018 A 
HETATM    9  C11 UNK     1      20.589  -1.505  12.174  1.00  0.00     0.038 A 
HETATM   10  C13 UNK     1      20.459  -3.411  10.690  1.00  0.00     0.001 A 
HETATM   11  C15 UNK     1      20.935  -2.130  10.975  1.00  0.00     0.003 A 
ENDROOT
BRANCH   5  12
HETATM   12  C8  UNK     1      18.331  -1.416  16.392  1.00  0.00     0.280 C 
HETATM   13  O3  UNK     1      17.372  -1.766  17.082  1.00  0.00    -0.265 OA
HETATM   14  N1  UNK     1      19.210  -0.366  16.627  1.00  0.00    -0.321 N 
HETATM   15  H4  UNK     1      19.954  -0.216  15.947  1.00  0.00     0.169 HD
BRANCH  14  16
HETATM   16  C4  UNK     1      19.207   0.542  17.713  1.00  0.00     0.035 A 
HETATM   17  C10 UNK     1      19.390   0.075  19.014  1.00  0.00     0.036 A 
HETATM   18  C7  UNK     1      19.387   0.971  20.083  1.00  0.00    -0.060 A 
HETATM   19  C14 UNK     1      19.202   2.334  19.851  1.00  0.00     0.007 A 
HETATM   20  C17 UNK     1      19.582   0.471  21.475  1.00  0.00     0.048 C 
HETATM   21  C16 UNK     1      19.019   2.801  18.550  1.00  0.00     0.003 A 
HETATM   22  C12 UNK     1      19.022   1.904  17.480  1.00  0.00     0.029 A 
ENDBRANCH  14  16
ENDBRANCH   5  12
TORSDOF 2
ENDMDL
