MODEL 1
REMARK VINA RESULT:      -8.2      0.000      0.000
REMARK  2 active torsions:
REMARK  status: ('A' for Active; 'I' for Inactive)
REMARK       I    between atoms: C7_13  and  N1_5 
REMARK       I    between atoms: C6_12  and  N2_6 
REMARK    1  A    between atoms: C1_7  and  C6_12 
REMARK    2  A    between atoms: C7_13  and  C8_14 
ROOT
HETATM    1  O2  UNK     1      10.269   5.671   6.650  1.00  0.00    -0.267 OA
HETATM    2  N1  UNK     1      11.801   6.477   8.204  1.00  0.00    -0.348 N 
HETATM    3  C1  UNK     1      14.569   6.318   9.060  1.00  0.00     0.081 C 
HETATM    4  C2  UNK     1      14.128   5.834   7.677  1.00  0.00     0.034 C 
HETATM    5  C3  UNK     1      13.418   6.210  10.059  1.00  0.00     0.034 C 
HETATM    6  C4  UNK     1      12.878   6.578   7.215  1.00  0.00     0.127 C 
HETATM    7  C5  UNK     1      12.166   6.929   9.556  1.00  0.00     0.127 C 
HETATM    8  C7  UNK     1      10.552   6.013   7.800  1.00  0.00     0.259 C 
ENDROOT
BRANCH   8   9
HETATM    9  C8  UNK     1       9.485   5.930   8.818  1.00  0.00     0.108 A 
HETATM   10  C10 UNK     1       9.420   4.822   9.797  1.00  0.00     0.304 A 
HETATM   11  O3  UNK     1       8.368   4.855  10.708  1.00  0.00    -0.274 OA
HETATM   12  O4  UNK     1      10.249   3.919   9.811  1.00  0.00    -0.259 OA
HETATM   13  C12 UNK     1       7.411   5.888  10.702  1.00  0.00     0.089 A 
HETATM   14  C11 UNK     1       7.491   6.920   9.772  1.00  0.00    -0.001 A 
HETATM   15  C14 UNK     1       6.394   5.836  11.653  1.00  0.00     0.038 A 
HETATM   16  C9  UNK     1       8.579   6.914   8.807  1.00  0.00     0.037 A 
HETATM   17  C13 UNK     1       6.523   7.927   9.797  1.00  0.00     0.014 A 
HETATM   18  C15 UNK     1       5.496   7.887  10.745  1.00  0.00     0.001 A 
HETATM   19  C16 UNK     1       5.433   6.843  11.671  1.00  0.00     0.003 A 
ENDBRANCH   8   9
BRANCH   3  20
HETATM   20  C6  UNK     1      15.728   5.503   9.543  1.00  0.00     0.219 C 
HETATM   21  O1  UNK     1      15.644   4.291   9.723  1.00  0.00    -0.273 OA
HETATM   22  N2  UNK     1      16.865   6.241   9.778  1.00  0.00    -0.370 N 
HETATM   23  H10 UNK     1      17.713   5.797  10.114  1.00  0.00     0.159 HD
HETATM   24  H11 UNK     1      16.904   7.244   9.633  1.00  0.00     0.159 HD
ENDBRANCH   3  20
TORSDOF 2
ENDMDL
MODEL 2
REMARK VINA RESULT:      -8.0     29.219     30.944
REMARK  2 active torsions:
REMARK  status: ('A' for Active; 'I' for Inactive)
REMARK       I    between atoms: C7_13  and  N1_5 
REMARK       I    between atoms: C6_12  and  N2_6 
REMARK    1  A    between atoms: C1_7  and  C6_12 
REMARK    2  A    between atoms: C7_13  and  C8_14 
ROOT
HETATM    1  O2  UNK     1      20.589  -3.408  34.496  1.00  0.00    -0.267 OA
HETATM    2  N1  UNK     1      18.844  -2.443  35.693  1.00  0.00    -0.348 N 
HETATM    3  C1  UNK     1      17.773   0.082  36.642  1.00  0.00     0.081 C 
HETATM    4  C2  UNK     1      18.813   0.022  35.521  1.00  0.00     0.034 C 
HETATM    5  C3  UNK     1      17.914  -1.125  37.571  1.00  0.00     0.034 C 
HETATM    6  C4  UNK     1      18.731  -1.306  34.775  1.00  0.00     0.127 C 
HETATM    7  C5  UNK     1      17.868  -2.441  36.794  1.00  0.00     0.127 C 
HETATM    8  C7  UNK     1      19.805  -3.419  35.447  1.00  0.00     0.259 C 
ENDROOT
BRANCH   8   9
HETATM    9  C8  UNK     1      19.889  -4.556  36.386  1.00  0.00     0.108 A 
HETATM   10  C10 UNK     1      20.537  -4.433  37.711  1.00  0.00     0.304 A 
HETATM   11  O3  UNK     1      20.553  -5.575  38.507  1.00  0.00    -0.274 OA
HETATM   12  O4  UNK     1      21.037  -3.380  38.094  1.00  0.00    -0.259 OA
HETATM   13  C12 UNK     1      19.981  -6.789  38.079  1.00  0.00     0.089 A 
HETATM   14  C11 UNK     1      19.377  -6.883  36.829  1.00  0.00    -0.001 A 
HETATM   15  C14 UNK     1      20.045  -7.877  38.945  1.00  0.00     0.038 A 
HETATM   16  C9  UNK     1      19.345  -5.706  35.973  1.00  0.00     0.037 A 
HETATM   17  C13 UNK     1      18.822  -8.103  36.438  1.00  0.00     0.014 A 
HETATM   18  C15 UNK     1      18.879  -9.205  37.298  1.00  0.00     0.001 A 
HETATM   19  C16 UNK     1      19.490  -9.090  38.549  1.00  0.00     0.003 A 
ENDBRANCH   8   9
BRANCH   3  20
HETATM   20  C6  UNK     1      17.941   1.342  37.432  1.00  0.00     0.219 C 
HETATM   21  O1  UNK     1      17.870   1.358  38.658  1.00  0.00    -0.273 OA
HETATM   22  N2  UNK     1      18.158   2.457  36.657  1.00  0.00    -0.370 N 
HETATM   23  H10 UNK     1      18.282   3.370  37.081  1.00  0.00     0.159 HD
HETATM   24  H11 UNK     1      18.200   2.418  35.644  1.00  0.00     0.159 HD
ENDBRANCH   3  20
TORSDOF 2
ENDMDL
MODEL 3
REMARK VINA RESULT:      -8.0     28.475     30.097
REMARK  2 active torsions:
REMARK  status: ('A' for Active; 'I' for Inactive)
REMARK       I    between atoms: C7_13  and  N1_5 
REMARK       I    between atoms: C6_12  and  N2_6 
REMARK    1  A    between atoms: C1_7  and  C6_12 
REMARK    2  A    between atoms: C7_13  and  C8_14 
ROOT
HETATM    1  O2  UNK     1      21.455  -3.144  38.026  1.00  0.00    -0.267 OA
HETATM    2  N1  UNK     1      20.212  -4.928  37.199  1.00  0.00    -0.348 N 
HETATM    3  C1  UNK     1      20.393  -7.659  36.236  1.00  0.00     0.081 C 
HETATM    4  C2  UNK     1      21.518  -7.020  37.052  1.00  0.00     0.034 C 
HETATM    5  C3  UNK     1      19.614  -6.592  35.467  1.00  0.00     0.034 C 
HETATM    6  C4  UNK     1      20.974  -5.922  37.960  1.00  0.00     0.127 C 
HETATM    7  C5  UNK     1      19.113  -5.484  36.393  1.00  0.00     0.127 C 
HETATM    8  C7  UNK     1      20.547  -3.582  37.317  1.00  0.00     0.259 C 
ENDROOT
BRANCH   8   9
HETATM    9  C8  UNK     1      19.756  -2.604  36.543  1.00  0.00     0.108 A 
HETATM   10  C10 UNK     1      20.026  -2.332  35.113  1.00  0.00     0.304 A 
HETATM   11  O3  UNK     1      19.211  -1.390  34.492  1.00  0.00    -0.274 OA
HETATM   12  O4  UNK     1      20.920  -2.906  34.501  1.00  0.00    -0.259 OA
HETATM   13  C12 UNK     1      18.180  -0.726  35.184  1.00  0.00     0.089 A 
HETATM   14  C11 UNK     1      17.943  -0.996  36.528  1.00  0.00    -0.001 A 
HETATM   15  C14 UNK     1      17.417   0.201  34.478  1.00  0.00     0.038 A 
HETATM   16  C9  UNK     1      18.778  -1.976  37.206  1.00  0.00     0.037 A 
HETATM   17  C13 UNK     1      16.913  -0.317  37.181  1.00  0.00     0.014 A 
HETATM   18  C15 UNK     1      16.138   0.617  36.485  1.00  0.00     0.001 A 
HETATM   19  C16 UNK     1      16.391   0.874  35.136  1.00  0.00     0.003 A 
ENDBRANCH   8   9
BRANCH   3  20
HETATM   20  C6  UNK     1      20.959  -8.655  35.273  1.00  0.00     0.219 C 
HETATM   21  O1  UNK     1      21.278  -8.347  34.127  1.00  0.00    -0.273 OA
HETATM   22  N2  UNK     1      21.063  -9.927  35.787  1.00  0.00    -0.370 N 
HETATM   23  H10 UNK     1      21.429 -10.687  35.225  1.00  0.00     0.159 HD
HETATM   24  H11 UNK     1      20.781 -10.157  36.734  1.00  0.00     0.159 HD
ENDBRANCH   3  20
TORSDOF 2
ENDMDL
MODEL 4
REMARK VINA RESULT:      -7.8     24.173     25.315
REMARK  2 active torsions:
REMARK  status: ('A' for Active; 'I' for Inactive)
REMARK       I    between atoms: C7_13  and  N1_5 
REMARK       I    between atoms: C6_12  and  N2_6 
REMARK    1  A    between atoms: C1_7  and  C6_12 
REMARK    2  A    between atoms: C7_13  and  C8_14 
ROOT
HETATM    1  O2  UNK     1      16.305   8.409  30.891  1.00  0.00    -0.267 OA
HETATM    2  N1  UNK     1      17.514   7.185  32.458  1.00  0.00    -0.348 N 
HETATM    3  C1  UNK     1      18.493   4.531  33.103  1.00  0.00     0.081 C 
HETATM    4  C2  UNK     1      18.033   4.895  31.690  1.00  0.00     0.034 C 
HETATM    5  C3  UNK     1      17.769   5.389  34.141  1.00  0.00     0.034 C 
HETATM    6  C4  UNK     1      18.197   6.389  31.434  1.00  0.00     0.127 C 
HETATM    7  C5  UNK     1      17.915   6.880  33.840  1.00  0.00     0.127 C 
HETATM    8  C7  UNK     1      16.597   8.155  32.062  1.00  0.00     0.259 C 
ENDROOT
BRANCH   8   9
HETATM    9  C8  UNK     1      15.930   8.946  33.116  1.00  0.00     0.108 A 
HETATM   10  C10 UNK     1      14.664   8.506  33.743  1.00  0.00     0.304 A 
HETATM   11  O3  UNK     1      14.133   9.336  34.727  1.00  0.00    -0.274 OA
HETATM   12  O4  UNK     1      14.105   7.464  33.417  1.00  0.00    -0.259 OA
HETATM   13  C12 UNK     1      14.766  10.534  35.111  1.00  0.00     0.089 A 
HETATM   14  C11 UNK     1      15.957  10.929  34.508  1.00  0.00    -0.001 A 
HETATM   15  C14 UNK     1      14.160  11.299  36.105  1.00  0.00     0.038 A 
HETATM   16  C9  UNK     1      16.537  10.083  33.476  1.00  0.00     0.037 A 
HETATM   17  C13 UNK     1      16.555  12.124  34.915  1.00  0.00     0.014 A 
HETATM   18  C15 UNK     1      15.957  12.902  35.911  1.00  0.00     0.001 A 
HETATM   19  C16 UNK     1      14.762  12.488  36.505  1.00  0.00     0.003 A 
ENDBRANCH   8   9
BRANCH   3  20
HETATM   20  C6  UNK     1      18.223   3.084  33.375  1.00  0.00     0.219 C 
HETATM   21  O1  UNK     1      18.332   2.599  34.498  1.00  0.00    -0.273 OA
HETATM   22  N2  UNK     1      17.867   2.367  32.256  1.00  0.00    -0.370 N 
HETATM   23  H10 UNK     1      17.665   1.375  32.317  1.00  0.00     0.159 HD
HETATM   24  H11 UNK     1      17.797   2.790  31.337  1.00  0.00     0.159 HD
ENDBRANCH   3  20
TORSDOF 2
ENDMDL
MODEL 5
REMARK VINA RESULT:      -7.8     24.608     26.474
REMARK  2 active torsions:
REMARK  status: ('A' for Active; 'I' for Inactive)
REMARK       I    between atoms: C7_13  and  N1_5 
REMARK       I    between atoms: C6_12  and  N2_6 
REMARK    1  A    between atoms: C1_7  and  C6_12 
REMARK    2  A    between atoms: C7_13  and  C8_14 
ROOT
HETATM    1  O2  UNK     1      18.642   3.477  34.252  1.00  0.00    -0.267 OA
HETATM    2  N1  UNK     1      17.662   1.438  34.799  1.00  0.00    -0.348 N 
HETATM    3  C1  UNK     1      17.487  -0.595  36.861  1.00  0.00     0.081 C 
HETATM    4  C2  UNK     1      18.014   0.809  37.162  1.00  0.00     0.034 C 
HETATM    5  C3  UNK     1      17.740  -0.962  35.398  1.00  0.00     0.034 C 
HETATM    6  C4  UNK     1      17.427   1.829  36.192  1.00  0.00     0.127 C 
HETATM    7  C5  UNK     1      17.176   0.095  34.448  1.00  0.00     0.127 C 
HETATM    8  C7  UNK     1      18.273   2.344  33.936  1.00  0.00     0.259 C 
ENDROOT
BRANCH   8   9
HETATM    9  C8  UNK     1      18.490   1.924  32.536  1.00  0.00     0.108 A 
HETATM   10  C10 UNK     1      18.056   2.756  31.391  1.00  0.00     0.304 A 
HETATM   11  O3  UNK     1      18.319   2.253  30.120  1.00  0.00    -0.274 OA
HETATM   12  O4  UNK     1      17.495   3.835  31.548  1.00  0.00    -0.259 OA
HETATM   13  C12 UNK     1      18.964   1.016  29.927  1.00  0.00     0.089 A 
HETATM   14  C11 UNK     1      19.363   0.250  31.018  1.00  0.00    -0.001 A 
HETATM   15  C14 UNK     1      19.183   0.597  28.617  1.00  0.00     0.038 A 
HETATM   16  C9  UNK     1      19.103   0.748  32.360  1.00  0.00     0.037 A 
HETATM   17  C13 UNK     1      19.999  -0.971  30.787  1.00  0.00     0.014 A 
HETATM   18  C15 UNK     1      20.226  -1.406  29.477  1.00  0.00     0.001 A 
HETATM   19  C16 UNK     1      19.818  -0.622  28.395  1.00  0.00     0.003 A 
ENDBRANCH   8   9
BRANCH   3  20
HETATM   20  C6  UNK     1      18.157  -1.596  37.749  1.00  0.00     0.219 C 
HETATM   21  O1  UNK     1      18.641  -1.286  38.835  1.00  0.00    -0.273 OA
HETATM   22  N2  UNK     1      18.191  -2.868  37.225  1.00  0.00    -0.370 N 
HETATM   23  H10 UNK     1      18.625  -3.629  37.735  1.00  0.00     0.159 HD
HETATM   24  H11 UNK     1      17.795  -3.095  36.319  1.00  0.00     0.159 HD
ENDBRANCH   3  20
TORSDOF 2
ENDMDL
MODEL 6
REMARK VINA RESULT:      -7.7     34.075     35.733
REMARK  2 active torsions:
REMARK  status: ('A' for Active; 'I' for Inactive)
REMARK       I    between atoms: C7_13  and  N1_5 
REMARK       I    between atoms: C6_12  and  N2_6 
REMARK    1  A    between atoms: C1_7  and  C6_12 
REMARK    2  A    between atoms: C7_13  and  C8_14 
ROOT
HETATM    1  O2  UNK     1      28.521  -9.787  39.371  1.00  0.00    -0.267 OA
HETATM    2  N1  UNK     1      29.161  -8.469  37.564  1.00  0.00    -0.348 N 
HETATM    3  C1  UNK     1      30.714  -6.139  36.801  1.00  0.00     0.081 C 
HETATM    4  C2  UNK     1      30.928  -6.842  38.144  1.00  0.00     0.034 C 
HETATM    5  C3  UNK     1      29.277  -6.334  36.316  1.00  0.00     0.034 C 
HETATM    6  C4  UNK     1      30.533  -8.312  38.056  1.00  0.00     0.127 C 
HETATM    7  C5  UNK     1      28.894  -7.813  36.274  1.00  0.00     0.127 C 
HETATM    8  C7  UNK     1      28.258  -9.224  38.307  1.00  0.00     0.259 C 
ENDROOT
BRANCH   8   9
HETATM    9  C8  UNK     1      26.884  -9.369  37.782  1.00  0.00     0.108 A 
HETATM   10  C10 UNK     1      25.879  -8.290  37.907  1.00  0.00     0.304 A 
HETATM   11  O3  UNK     1      24.620  -8.545  37.371  1.00  0.00    -0.274 OA
HETATM   12  O4  UNK     1      26.136  -7.223  38.453  1.00  0.00    -0.259 OA
HETATM   13  C12 UNK     1      24.312  -9.766  36.741  1.00  0.00     0.089 A 
HETATM   14  C11 UNK     1      25.273 -10.768  36.634  1.00  0.00    -0.001 A 
HETATM   15  C14 UNK     1      23.025  -9.929  36.235  1.00  0.00     0.038 A 
HETATM   16  C9  UNK     1      26.599 -10.531  37.184  1.00  0.00     0.037 A 
HETATM   17  C13 UNK     1      24.931 -11.965  36.003  1.00  0.00     0.014 A 
HETATM   18  C15 UNK     1      23.642 -12.144  35.491  1.00  0.00     0.001 A 
HETATM   19  C16 UNK     1      22.692 -11.126  35.607  1.00  0.00     0.003 A 
ENDBRANCH   8   9
BRANCH   3  20
HETATM   20  C6  UNK     1      31.001  -4.676  36.936  1.00  0.00     0.219 C 
HETATM   21  O1  UNK     1      32.093  -4.195  36.645  1.00  0.00    -0.273 OA
HETATM   22  N2  UNK     1      29.944  -3.947  37.429  1.00  0.00    -0.370 N 
HETATM   23  H10 UNK     1      30.022  -2.946  37.568  1.00  0.00     0.159 HD
HETATM   24  H11 UNK     1      29.055  -4.372  37.674  1.00  0.00     0.159 HD
ENDBRANCH   3  20
TORSDOF 2
ENDMDL
MODEL 7
REMARK VINA RESULT:      -7.6     24.489     26.104
REMARK  2 active torsions:
REMARK  status: ('A' for Active; 'I' for Inactive)
REMARK       I    between atoms: C7_13  and  N1_5 
REMARK       I    between atoms: C6_12  and  N2_6 
REMARK    1  A    between atoms: C1_7  and  C6_12 
REMARK    2  A    between atoms: C7_13  and  C8_14 
ROOT
HETATM    1  O2  UNK     1      20.149   6.079  33.358  1.00  0.00    -0.267 OA
HETATM    2  N1  UNK     1      17.933   6.665  32.959  1.00  0.00    -0.348 N 
HETATM    3  C1  UNK     1      15.919   8.690  33.475  1.00  0.00     0.081 C 
HETATM    4  C2  UNK     1      17.410   8.973  33.669  1.00  0.00     0.034 C 
HETATM    5  C3  UNK     1      15.625   7.202  33.674  1.00  0.00     0.034 C 
HETATM    6  C4  UNK     1      18.254   8.082  32.764  1.00  0.00     0.127 C 
HETATM    7  C5  UNK     1      16.511   6.330  32.785  1.00  0.00     0.127 C 
HETATM    8  C7  UNK     1      18.960   5.772  33.249  1.00  0.00     0.259 C 
ENDROOT
BRANCH   8   9
HETATM    9  C8  UNK     1      18.606   4.349  33.433  1.00  0.00     0.108 A 
HETATM   10  C10 UNK     1      18.239   3.478  32.294  1.00  0.00     0.304 A 
HETATM   11  O3  UNK     1      17.927   2.156  32.594  1.00  0.00    -0.274 OA
HETATM   12  O4  UNK     1      18.211   3.895  31.141  1.00  0.00    -0.259 OA
HETATM   13  C12 UNK     1      17.957   1.665  33.914  1.00  0.00     0.089 A 
HETATM   14  C11 UNK     1      18.305   2.502  34.971  1.00  0.00    -0.001 A 
HETATM   15  C14 UNK     1      17.629   0.327  34.117  1.00  0.00     0.038 A 
HETATM   16  C9  UNK     1      18.637   3.890  34.689  1.00  0.00     0.037 A 
HETATM   17  C13 UNK     1      18.323   1.980  36.266  1.00  0.00     0.014 A 
HETATM   18  C15 UNK     1      17.995   0.638  36.484  1.00  0.00     0.001 A 
HETATM   19  C16 UNK     1      17.650  -0.186  35.411  1.00  0.00     0.003 A 
ENDBRANCH   8   9
BRANCH   3  20
HETATM   20  C6  UNK     1      15.113   9.492  34.447  1.00  0.00     0.219 C 
HETATM   21  O1  UNK     1      15.573   9.870  35.522  1.00  0.00    -0.273 OA
HETATM   22  N2  UNK     1      13.826   9.739  34.030  1.00  0.00    -0.370 N 
HETATM   23  H10 UNK     1      13.184  10.270  34.608  1.00  0.00     0.159 HD
HETATM   24  H11 UNK     1      13.467   9.405  33.142  1.00  0.00     0.159 HD
ENDBRANCH   3  20
TORSDOF 2
ENDMDL
MODEL 8
REMARK VINA RESULT:      -7.6     35.918     37.471
REMARK  2 active torsions:
REMARK  status: ('A' for Active; 'I' for Inactive)
REMARK       I    between atoms: C7_13  and  N1_5 
REMARK       I    between atoms: C6_12  and  N2_6 
REMARK    1  A    between atoms: C1_7  and  C6_12 
REMARK    2  A    between atoms: C7_13  and  C8_14 
ROOT
HETATM    1  O2  UNK     1      30.257  -4.107  39.365  1.00  0.00    -0.267 OA
HETATM    2  N1  UNK     1      29.320  -5.890  38.201  1.00  0.00    -0.348 N 
HETATM    3  C1  UNK     1      27.926  -8.416  38.515  1.00  0.00     0.081 C 
HETATM    4  C2  UNK     1      28.001  -7.394  39.652  1.00  0.00     0.034 C 
HETATM    5  C3  UNK     1      29.138  -8.282  37.592  1.00  0.00     0.034 C 
HETATM    6  C4  UNK     1      28.166  -5.981  39.101  1.00  0.00     0.127 C 
HETATM    7  C5  UNK     1      29.304  -6.850  37.086  1.00  0.00     0.127 C 
HETATM    8  C7  UNK     1      30.288  -4.918  38.438  1.00  0.00     0.259 C 
ENDROOT
BRANCH   8   9
HETATM    9  C8  UNK     1      31.435  -4.847  37.509  1.00  0.00     0.108 A 
HETATM   10  C10 UNK     1      31.713  -3.641  36.698  1.00  0.00     0.304 A 
HETATM   11  O3  UNK     1      32.824  -3.694  35.861  1.00  0.00    -0.274 OA
HETATM   12  O4  UNK     1      31.005  -2.641  36.757  1.00  0.00    -0.259 OA
HETATM   13  C12 UNK     1      33.646  -4.835  35.786  1.00  0.00     0.089 A 
HETATM   14  C11 UNK     1      33.366  -5.959  36.557  1.00  0.00    -0.001 A 
HETATM   15  C14 UNK     1      34.736  -4.795  34.919  1.00  0.00     0.038 A 
HETATM   16  C9  UNK     1      32.211  -5.934  37.443  1.00  0.00     0.037 A 
HETATM   17  C13 UNK     1      34.202  -7.073  36.456  1.00  0.00     0.014 A 
HETATM   18  C15 UNK     1      35.300  -7.046  35.590  1.00  0.00     0.001 A 
HETATM   19  C16 UNK     1      35.565  -5.909  34.824  1.00  0.00     0.003 A 
ENDBRANCH   8   9
BRANCH   3  20
HETATM   20  C6  UNK     1      27.876  -9.803  39.075  1.00  0.00     0.219 C 
HETATM   21  O1  UNK     1      28.882 -10.383  39.474  1.00  0.00    -0.273 OA
HETATM   22  N2  UNK     1      26.616 -10.355  39.075  1.00  0.00    -0.370 N 
HETATM   23  H10 UNK     1      26.459 -11.293  39.427  1.00  0.00     0.159 HD
HETATM   24  H11 UNK     1      25.802  -9.858  38.727  1.00  0.00     0.159 HD
ENDBRANCH   3  20
TORSDOF 2
ENDMDL
MODEL 9
REMARK VINA RESULT:      -7.6      3.789      7.486
REMARK  2 active torsions:
REMARK  status: ('A' for Active; 'I' for Inactive)
REMARK       I    between atoms: C7_13  and  N1_5 
REMARK       I    between atoms: C6_12  and  N2_6 
REMARK    1  A    between atoms: C1_7  and  C6_12 
REMARK    2  A    between atoms: C7_13  and  C8_14 
ROOT
HETATM    1  O2  UNK     1      15.583   6.093   9.398  1.00  0.00    -0.267 OA
HETATM    2  N1  UNK     1      13.326   6.646   9.279  1.00  0.00    -0.348 N 
HETATM    3  C1  UNK     1      10.859   6.112   7.848  1.00  0.00     0.081 C 
HETATM    4  C2  UNK     1      12.055   5.160   7.769  1.00  0.00     0.034 C 
HETATM    5  C3  UNK     1      11.327   7.541   8.125  1.00  0.00     0.034 C 
HETATM    6  C4  UNK     1      12.914   5.263   9.025  1.00  0.00     0.127 C 
HETATM    7  C5  UNK     1      12.218   7.610   9.366  1.00  0.00     0.127 C 
HETATM    8  C7  UNK     1      14.679   6.929   9.446  1.00  0.00     0.259 C 
ENDROOT
BRANCH   8   9
HETATM    9  C8  UNK     1      15.063   8.331   9.708  1.00  0.00     0.108 A 
HETATM   10  C10 UNK     1      15.374   8.818  11.071  1.00  0.00     0.304 A 
HETATM   11  O3  UNK     1      15.724  10.160  11.189  1.00  0.00    -0.274 OA
HETATM   12  O4  UNK     1      15.328   8.081  12.050  1.00  0.00    -0.259 OA
HETATM   13  C12 UNK     1      15.782  11.016  10.072  1.00  0.00     0.089 A 
HETATM   14  C11 UNK     1      15.485  10.537   8.800  1.00  0.00    -0.001 A 
HETATM   15  C14 UNK     1      16.143  12.344  10.290  1.00  0.00     0.038 A 
HETATM   16  C9  UNK     1      15.116   9.139   8.643  1.00  0.00     0.037 A 
HETATM   17  C13 UNK     1      15.552  11.416   7.716  1.00  0.00     0.014 A 
HETATM   18  C15 UNK     1      15.913  12.752   7.920  1.00  0.00     0.001 A 
HETATM   19  C16 UNK     1      16.208  13.213   9.205  1.00  0.00     0.003 A 
ENDBRANCH   8   9
BRANCH   3  20
HETATM   20  C6  UNK     1      10.091   6.079   6.564  1.00  0.00     0.219 C 
HETATM   21  O1  UNK     1       8.944   5.643   6.500  1.00  0.00    -0.273 OA
HETATM   22  N2  UNK     1      10.795   6.559   5.484  1.00  0.00    -0.370 N 
HETATM   23  H10 UNK     1      10.379   6.581   4.560  1.00  0.00     0.159 HD
HETATM   24  H11 UNK     1      11.747   6.902   5.562  1.00  0.00     0.159 HD
ENDBRANCH   3  20
TORSDOF 2
ENDMDL
MODEL 10
REMARK VINA RESULT:      -7.6      3.917      5.543
REMARK  2 active torsions:
REMARK  status: ('A' for Active; 'I' for Inactive)
REMARK       I    between atoms: C7_13  and  N1_5 
REMARK       I    between atoms: C6_12  and  N2_6 
REMARK    1  A    between atoms: C1_7  and  C6_12 
REMARK    2  A    between atoms: C7_13  and  C8_14 
ROOT
HETATM    1  O2  UNK     1      15.464   6.441   9.694  1.00  0.00    -0.267 OA
HETATM    2  N1  UNK     1      15.444   8.712   9.190  1.00  0.00    -0.348 N 
HETATM    3  C1  UNK     1      16.446  11.304  10.027  1.00  0.00     0.081 C 
HETATM    4  C2  UNK     1      17.087  10.001  10.511  1.00  0.00     0.034 C 
HETATM    5  C3  UNK     1      14.968  11.087   9.702  1.00  0.00     0.034 C 
HETATM    6  C4  UNK     1      16.867   8.880   9.500  1.00  0.00     0.127 C 
HETATM    7  C5  UNK     1      14.772   9.933   8.718  1.00  0.00     0.127 C 
HETATM    8  C7  UNK     1      14.866   7.453   9.326  1.00  0.00     0.259 C 
ENDROOT
BRANCH   8   9
HETATM    9  C8  UNK     1      13.432   7.314   8.998  1.00  0.00     0.108 A 
HETATM   10  C10 UNK     1      12.369   7.665   9.967  1.00  0.00     0.304 A 
HETATM   11  O3  UNK     1      11.055   7.492   9.541  1.00  0.00    -0.274 OA
HETATM   12  O4  UNK     1      12.626   8.088  11.089  1.00  0.00    -0.259 OA
HETATM   13  C12 UNK     1      10.747   7.009   8.254  1.00  0.00     0.089 A 
HETATM   14  C11 UNK     1      11.762   6.685   7.360  1.00  0.00    -0.001 A 
HETATM   15  C14 UNK     1       9.402   6.870   7.919  1.00  0.00     0.038 A 
HETATM   16  C9  UNK     1      13.146   6.855   7.775  1.00  0.00     0.037 A 
HETATM   17  C13 UNK     1      11.418   6.208   6.093  1.00  0.00     0.014 A 
HETATM   18  C15 UNK     1      10.072   6.062   5.742  1.00  0.00     0.001 A 
HETATM   19  C16 UNK     1       9.067   6.394   6.654  1.00  0.00     0.003 A 
ENDBRANCH   8   9
BRANCH   3  20
HETATM   20  C6  UNK     1      16.576  12.362  11.078  1.00  0.00     0.219 C 
HETATM   21  O1  UNK     1      15.595  12.887  11.599  1.00  0.00    -0.273 OA
HETATM   22  N2  UNK     1      17.878  12.690  11.376  1.00  0.00    -0.370 N 
HETATM   23  H10 UNK     1      18.090  13.398  12.070  1.00  0.00     0.159 HD
HETATM   24  H11 UNK     1      18.670  12.249  10.921  1.00  0.00     0.159 HD
ENDBRANCH   3  20
TORSDOF 2
ENDMDL
