MODEL 1
REMARK VINA RESULT:      -9.1      0.000      0.000
REMARK  6 active torsions:
REMARK  status: ('A' for Active; 'I' for Inactive)
REMARK    1  A    between atoms: C17_26  and  O3_3 
REMARK    2  A    between atoms: C18_27  and  O3_3 
REMARK       I    between atoms: C8_17  and  N1_8 
REMARK    3  A    between atoms: C9_18  and  N1_8 
REMARK    4  A    between atoms: C7_16  and  N2_9 
REMARK    5  A    between atoms: C3_12  and  C8_17 
REMARK    6  A    between atoms: C12_21  and  C17_26 
ROOT
HETATM    1  O2  UNK     1      17.594   3.214  32.867  1.00  0.00    -0.267 OA
HETATM    2  N1  UNK     1      18.774   4.699  31.470  1.00  0.00    -0.323 N 
HETATM    3  C8  UNK     1      18.304   3.463  31.894  1.00  0.00     0.262 C 
HETATM    4  H5  UNK     1      19.338   4.738  30.625  1.00  0.00     0.169 HD
ENDROOT
BRANCH   3   5
HETATM    5  C3  UNK     1      18.752   2.371  31.022  1.00  0.00     0.108 A 
HETATM    6  C10 UNK     1      18.704   2.476  29.546  1.00  0.00     0.304 A 
HETATM    7  O1  UNK     1      19.158   1.373  28.826  1.00  0.00    -0.274 OA
HETATM    8  O4  UNK     1      18.288   3.480  28.980  1.00  0.00    -0.259 OA
HETATM    9  C2  UNK     1      19.639   0.214  29.466  1.00  0.00     0.089 A 
HETATM   10  C1  UNK     1      19.674   0.137  30.855  1.00  0.00     0.001 A 
HETATM   11  C6  UNK     1      20.071  -0.837  28.662  1.00  0.00     0.041 A 
HETATM   12  C4  UNK     1      19.207   1.273  31.635  1.00  0.00     0.037 A 
HETATM   13  C5  UNK     1      20.157  -1.029  31.453  1.00  0.00     0.050 A 
HETATM   14  C7  UNK     1      20.594  -2.093  30.658  1.00  0.00     0.103 A 
HETATM   15  C11 UNK     1      20.552  -1.998  29.266  1.00  0.00     0.039 A 
BRANCH  14  16
HETATM   16  N2  UNK     1      21.085  -3.277  31.270  1.00  0.00    -0.116 N 
HETATM   17  O5  UNK     1      21.047  -3.375  32.521  1.00  0.00    -0.532 OA
HETATM   18  O6  UNK     1      21.543  -4.193  30.544  1.00  0.00    -0.532 OA
ENDBRANCH  14  16
ENDBRANCH   3   5
BRANCH   2  19
HETATM   19  C9  UNK     1      18.539   5.962  32.065  1.00  0.00     0.035 A 
HETATM   20  C13 UNK     1      17.417   6.685  31.701  1.00  0.00     0.030 A 
HETATM   21  C15 UNK     1      17.187   7.929  32.288  1.00  0.00     0.020 A 
HETATM   22  C12 UNK     1      18.083   8.432  33.231  1.00  0.00     0.039 A 
HETATM   23  C16 UNK     1      19.210   7.691  33.586  1.00  0.00     0.020 A 
HETATM   24  C14 UNK     1      19.440   6.446  32.999  1.00  0.00     0.030 A 
BRANCH  22  25
HETATM   25  C17 UNK     1      17.843   9.729  33.844  1.00  0.00     0.293 C 
HETATM   26  O7  UNK     1      18.418  10.775  33.516  1.00  0.00    -0.259 OA
BRANCH  25  27
HETATM   27  O3  UNK     1      16.899   9.651  34.831  1.00  0.00    -0.318 OA
BRANCH  27  28
HETATM   28  C18 UNK     1      15.764  10.514  34.710  1.00  0.00     0.174 C 
HETATM   29  C19 UNK     1      14.521   9.670  34.522  1.00  0.00     0.034 C 
ENDBRANCH  27  28
ENDBRANCH  25  27
ENDBRANCH  22  25
ENDBRANCH   2  19
TORSDOF 6
ENDMDL
MODEL 2
REMARK VINA RESULT:      -8.8     14.480     20.104
REMARK  6 active torsions:
REMARK  status: ('A' for Active; 'I' for Inactive)
REMARK    1  A    between atoms: C17_26  and  O3_3 
REMARK    2  A    between atoms: C18_27  and  O3_3 
REMARK       I    between atoms: C8_17  and  N1_8 
REMARK    3  A    between atoms: C9_18  and  N1_8 
REMARK    4  A    between atoms: C7_16  and  N2_9 
REMARK    5  A    between atoms: C3_12  and  C8_17 
REMARK    6  A    between atoms: C12_21  and  C17_26 
ROOT
HETATM    1  O2  UNK     1      17.901  -3.509  15.387  1.00  0.00    -0.267 OA
HETATM    2  N1  UNK     1      20.122  -3.350  14.623  1.00  0.00    -0.323 N 
HETATM    3  C8  UNK     1      18.941  -2.886  15.187  1.00  0.00     0.262 C 
HETATM    4  H5  UNK     1      20.906  -2.707  14.546  1.00  0.00     0.169 HD
ENDROOT
BRANCH   3   5
HETATM    5  C3  UNK     1      19.026  -1.470  15.564  1.00  0.00     0.108 A 
HETATM    6  C10 UNK     1      19.232  -0.401  14.560  1.00  0.00     0.304 A 
HETATM    7  O1  UNK     1      19.294   0.904  15.041  1.00  0.00    -0.274 OA
HETATM    8  O4  UNK     1      19.341  -0.647  13.364  1.00  0.00    -0.259 OA
HETATM    9  C2  UNK     1      19.169   1.198  16.413  1.00  0.00     0.089 A 
HETATM   10  C1  UNK     1      18.977   0.177  17.339  1.00  0.00     0.001 A 
HETATM   11  C6  UNK     1      19.245   2.534  16.798  1.00  0.00     0.041 A 
HETATM   12  C4  UNK     1      18.907  -1.197  16.868  1.00  0.00     0.037 A 
HETATM   13  C5  UNK     1      18.858   0.508  18.691  1.00  0.00     0.050 A 
HETATM   14  C7  UNK     1      18.932   1.845  19.093  1.00  0.00     0.103 A 
HETATM   15  C11 UNK     1      19.126   2.856  18.149  1.00  0.00     0.039 A 
BRANCH  14  16
HETATM   16  N2  UNK     1      18.810   2.177  20.469  1.00  0.00    -0.116 N 
HETATM   17  O5  UNK     1      17.679   2.126  21.008  1.00  0.00    -0.532 OA
HETATM   18  O6  UNK     1      19.837   2.512  21.107  1.00  0.00    -0.532 OA
ENDBRANCH  14  16
ENDBRANCH   3   5
BRANCH   2  19
HETATM   19  C9  UNK     1      20.398  -4.655  14.148  1.00  0.00     0.035 A 
HETATM   20  C13 UNK     1      20.139  -4.963  12.824  1.00  0.00     0.030 A 
HETATM   21  C15 UNK     1      20.411  -6.249  12.358  1.00  0.00     0.020 A 
HETATM   22  C12 UNK     1      20.938  -7.208  13.222  1.00  0.00     0.039 A 
HETATM   23  C16 UNK     1      21.194  -6.881  14.554  1.00  0.00     0.020 A 
HETATM   24  C14 UNK     1      20.921  -5.595  15.021  1.00  0.00     0.030 A 
BRANCH  22  25
HETATM   25  C17 UNK     1      21.223  -8.548  12.736  1.00  0.00     0.293 C 
HETATM   26  O7  UNK     1      20.499  -9.178  11.953  1.00  0.00    -0.259 OA
BRANCH  25  27
HETATM   27  O3  UNK     1      22.396  -9.031  13.250  1.00  0.00    -0.318 OA
BRANCH  27  28
HETATM   28  C18 UNK     1      22.837 -10.305  12.769  1.00  0.00     0.174 C 
HETATM   29  C19 UNK     1      24.317 -10.230  12.460  1.00  0.00     0.034 C 
ENDBRANCH  27  28
ENDBRANCH  25  27
ENDBRANCH  22  25
ENDBRANCH   2  19
TORSDOF 6
ENDMDL
MODEL 3
REMARK VINA RESULT:      -8.7      6.739     12.922
REMARK  6 active torsions:
REMARK  status: ('A' for Active; 'I' for Inactive)
REMARK    1  A    between atoms: C17_26  and  O3_3 
REMARK    2  A    between atoms: C18_27  and  O3_3 
REMARK       I    between atoms: C8_17  and  N1_8 
REMARK    3  A    between atoms: C9_18  and  N1_8 
REMARK    4  A    between atoms: C7_16  and  N2_9 
REMARK    5  A    between atoms: C3_12  and  C8_17 
REMARK    6  A    between atoms: C12_21  and  C17_26 
ROOT
HETATM    1  O2  UNK     1      21.098  -3.955  36.499  1.00  0.00    -0.267 OA
HETATM    2  N1  UNK     1      18.880  -4.705  36.754  1.00  0.00    -0.323 N 
HETATM    3  C8  UNK     1      19.882  -3.772  36.520  1.00  0.00     0.262 C 
HETATM    4  H5  UNK     1      17.912  -4.394  36.716  1.00  0.00     0.169 HD
ENDROOT
BRANCH   3   5
HETATM    5  C3  UNK     1      19.343  -2.429  36.276  1.00  0.00     0.108 A 
HETATM    6  C10 UNK     1      18.804  -1.590  37.370  1.00  0.00     0.304 A 
HETATM    7  O1  UNK     1      18.322  -0.333  37.013  1.00  0.00    -0.274 OA
HETATM    8  O4  UNK     1      18.782  -1.975  38.533  1.00  0.00    -0.259 OA
HETATM    9  C2  UNK     1      18.344   0.121  35.679  1.00  0.00     0.089 A 
HETATM   10  C1  UNK     1      18.855  -0.686  34.667  1.00  0.00     0.001 A 
HETATM   11  C6  UNK     1      17.839   1.393  35.420  1.00  0.00     0.041 A 
HETATM   12  C4  UNK     1      19.366  -2.004  35.008  1.00  0.00     0.037 A 
HETATM   13  C5  UNK     1      18.858  -0.201  33.357  1.00  0.00     0.050 A 
HETATM   14  C7  UNK     1      18.355   1.073  33.081  1.00  0.00     0.103 A 
HETATM   15  C11 UNK     1      17.846   1.869  34.110  1.00  0.00     0.039 A 
BRANCH  14  16
HETATM   16  N2  UNK     1      18.362   1.562  31.748  1.00  0.00    -0.116 N 
HETATM   17  O5  UNK     1      18.880   0.861  30.846  1.00  0.00    -0.532 OA
HETATM   18  O6  UNK     1      17.848   2.682  31.508  1.00  0.00    -0.532 OA
ENDBRANCH  14  16
ENDBRANCH   3   5
BRANCH   2  19
HETATM   19  C9  UNK     1      19.032  -6.087  37.023  1.00  0.00     0.035 A 
HETATM   20  C13 UNK     1      19.639  -6.486  38.200  1.00  0.00     0.030 A 
HETATM   21  C15 UNK     1      19.788  -7.848  38.463  1.00  0.00     0.020 A 
HETATM   22  C12 UNK     1      19.327  -8.790  37.544  1.00  0.00     0.039 A 
HETATM   23  C16 UNK     1      18.717  -8.371  36.362  1.00  0.00     0.020 A 
HETATM   24  C14 UNK     1      18.568  -7.009  36.099  1.00  0.00     0.030 A 
BRANCH  22  25
HETATM   25  C17 UNK     1      19.481 -10.210  37.819  1.00  0.00     0.293 C 
HETATM   26  O7  UNK     1      19.138 -10.760  38.874  1.00  0.00    -0.259 OA
BRANCH  25  27
HETATM   27  O3  UNK     1      20.054 -10.867  36.764  1.00  0.00    -0.318 OA
BRANCH  27  28
HETATM   28  C18 UNK     1      21.475 -10.761  36.630  1.00  0.00     0.174 C 
HETATM   29  C19 UNK     1      21.830 -10.716  35.159  1.00  0.00     0.034 C 
ENDBRANCH  27  28
ENDBRANCH  25  27
ENDBRANCH  22  25
ENDBRANCH   2  19
TORSDOF 6
ENDMDL
MODEL 4
REMARK VINA RESULT:      -8.7      1.321      1.934
REMARK  6 active torsions:
REMARK  status: ('A' for Active; 'I' for Inactive)
REMARK    1  A    between atoms: C17_26  and  O3_3 
REMARK    2  A    between atoms: C18_27  and  O3_3 
REMARK       I    between atoms: C8_17  and  N1_8 
REMARK    3  A    between atoms: C9_18  and  N1_8 
REMARK    4  A    between atoms: C7_16  and  N2_9 
REMARK    5  A    between atoms: C3_12  and  C8_17 
REMARK    6  A    between atoms: C12_21  and  C17_26 
ROOT
HETATM    1  O2  UNK     1      16.635   3.103  30.810  1.00  0.00    -0.267 OA
HETATM    2  N1  UNK     1      18.737   3.863  31.553  1.00  0.00    -0.323 N 
HETATM    3  C8  UNK     1      17.849   2.976  30.959  1.00  0.00     0.262 C 
HETATM    4  H5  UNK     1      19.723   3.616  31.578  1.00  0.00     0.169 HD
ENDROOT
BRANCH   3   5
HETATM    5  C3  UNK     1      18.519   1.763  30.473  1.00  0.00     0.108 A 
HETATM    6  C10 UNK     1      18.749   1.518  29.031  1.00  0.00     0.304 A 
HETATM    7  O1  UNK     1      19.395   0.332  28.695  1.00  0.00    -0.274 OA
HETATM    8  O4  UNK     1      18.391   2.316  28.172  1.00  0.00    -0.259 OA
HETATM    9  C2  UNK     1      19.811  -0.592  29.674  1.00  0.00     0.089 A 
HETATM   10  C1  UNK     1      19.585  -0.341  31.023  1.00  0.00     0.001 A 
HETATM   11  C6  UNK     1      20.450  -1.751  29.240  1.00  0.00     0.041 A 
HETATM   12  C4  UNK     1      18.912   0.890  31.407  1.00  0.00     0.037 A 
HETATM   13  C5  UNK     1      20.011  -1.281  31.964  1.00  0.00     0.050 A 
HETATM   14  C7  UNK     1      20.653  -2.449  31.544  1.00  0.00     0.103 A 
HETATM   15  C11 UNK     1      20.873  -2.684  30.185  1.00  0.00     0.039 A 
BRANCH  14  16
HETATM   16  N2  UNK     1      21.086  -3.402  32.504  1.00  0.00    -0.116 N 
HETATM   17  O5  UNK     1      21.659  -4.447  32.108  1.00  0.00    -0.532 OA
HETATM   18  O6  UNK     1      20.885  -3.174  33.721  1.00  0.00    -0.532 OA
ENDBRANCH  14  16
ENDBRANCH   3   5
BRANCH   2  19
HETATM   19  C9  UNK     1      18.444   5.124  32.126  1.00  0.00     0.035 A 
HETATM   20  C13 UNK     1      18.276   6.221  31.300  1.00  0.00     0.030 A 
HETATM   21  C15 UNK     1      17.987   7.463  31.865  1.00  0.00     0.020 A 
HETATM   22  C12 UNK     1      17.871   7.590  33.249  1.00  0.00     0.039 A 
HETATM   23  C16 UNK     1      18.043   6.473  34.068  1.00  0.00     0.020 A 
HETATM   24  C14 UNK     1      18.332   5.231  33.503  1.00  0.00     0.030 A 
BRANCH  22  25
HETATM   25  C17 UNK     1      17.569   8.884  33.839  1.00  0.00     0.293 C 
HETATM   26  O7  UNK     1      16.619   9.100  34.604  1.00  0.00    -0.259 OA
BRANCH  25  27
HETATM   27  O3  UNK     1      18.466   9.839  33.444  1.00  0.00    -0.318 OA
BRANCH  27  28
HETATM   28  C18 UNK     1      19.315  10.387  34.457  1.00  0.00     0.174 C 
HETATM   29  C19 UNK     1      20.652   9.677  34.417  1.00  0.00     0.034 C 
ENDBRANCH  27  28
ENDBRANCH  25  27
ENDBRANCH  22  25
ENDBRANCH   2  19
TORSDOF 6
ENDMDL
MODEL 5
REMARK VINA RESULT:      -8.7     13.485     16.326
REMARK  6 active torsions:
REMARK  status: ('A' for Active; 'I' for Inactive)
REMARK    1  A    between atoms: C17_26  and  O3_3 
REMARK    2  A    between atoms: C18_27  and  O3_3 
REMARK       I    between atoms: C8_17  and  N1_8 
REMARK    3  A    between atoms: C9_18  and  N1_8 
REMARK    4  A    between atoms: C7_16  and  N2_9 
REMARK    5  A    between atoms: C3_12  and  C8_17 
REMARK    6  A    between atoms: C12_21  and  C17_26 
ROOT
HETATM    1  O2  UNK     1      26.121  -9.123  39.351  1.00  0.00    -0.267 OA
HETATM    2  N1  UNK     1      24.689  -7.532  38.371  1.00  0.00    -0.323 N 
HETATM    3  C8  UNK     1      25.893  -8.018  38.863  1.00  0.00     0.262 C 
HETATM    4  H5  UNK     1      24.671  -6.594  37.977  1.00  0.00     0.169 HD
ENDROOT
BRANCH   3   5
HETATM    5  C3  UNK     1      26.976  -7.034  38.751  1.00  0.00     0.108 A 
HETATM    6  C10 UNK     1      26.723  -5.577  38.834  1.00  0.00     0.304 A 
HETATM    7  O1  UNK     1      27.833  -4.744  38.714  1.00  0.00    -0.274 OA
HETATM    8  O4  UNK     1      25.598  -5.122  39.000  1.00  0.00    -0.259 OA
HETATM    9  C2  UNK     1      29.131  -5.256  38.524  1.00  0.00     0.089 A 
HETATM   10  C1  UNK     1      29.345  -6.629  38.449  1.00  0.00     0.001 A 
HETATM   11  C6  UNK     1      30.177  -4.343  38.415  1.00  0.00     0.041 A 
HETATM   12  C4  UNK     1      28.206  -7.526  38.571  1.00  0.00     0.037 A 
HETATM   13  C5  UNK     1      30.646  -7.098  38.259  1.00  0.00     0.050 A 
HETATM   14  C7  UNK     1      31.706  -6.195  38.148  1.00  0.00     0.103 A 
HETATM   15  C11 UNK     1      31.473  -4.820  38.225  1.00  0.00     0.039 A 
BRANCH  14  16
HETATM   16  N2  UNK     1      33.029  -6.677  37.955  1.00  0.00    -0.116 N 
HETATM   17  O5  UNK     1      33.211  -7.910  37.812  1.00  0.00    -0.532 OA
HETATM   18  O6  UNK     1      33.978  -5.856  37.933  1.00  0.00    -0.532 OA
ENDBRANCH  14  16
ENDBRANCH   3   5
BRANCH   2  19
HETATM   19  C9  UNK     1      23.443  -8.203  38.318  1.00  0.00     0.035 A 
HETATM   20  C13 UNK     1      23.099  -8.902  37.174  1.00  0.00     0.030 A 
HETATM   21  C15 UNK     1      21.872  -9.563  37.123  1.00  0.00     0.020 A 
HETATM   22  C12 UNK     1      21.007  -9.515  38.216  1.00  0.00     0.039 A 
HETATM   23  C16 UNK     1      21.370  -8.805  39.361  1.00  0.00     0.020 A 
HETATM   24  C14 UNK     1      22.597  -8.144  39.413  1.00  0.00     0.030 A 
BRANCH  22  25
HETATM   25  C17 UNK     1      19.728 -10.205  38.163  1.00  0.00     0.293 C 
HETATM   26  O7  UNK     1      19.597 -11.436  38.144  1.00  0.00    -0.259 OA
BRANCH  25  27
HETATM   27  O3  UNK     1      18.681  -9.323  38.137  1.00  0.00    -0.318 OA
BRANCH  27  28
HETATM   28  C18 UNK     1      18.578  -8.477  36.988  1.00  0.00     0.174 C 
HETATM   29  C19 UNK     1      18.451  -7.038  37.444  1.00  0.00     0.034 C 
ENDBRANCH  27  28
ENDBRANCH  25  27
ENDBRANCH  22  25
ENDBRANCH   2  19
TORSDOF 6
ENDMDL
MODEL 6
REMARK VINA RESULT:      -8.4      7.217     10.154
REMARK  6 active torsions:
REMARK  status: ('A' for Active; 'I' for Inactive)
REMARK    1  A    between atoms: C17_26  and  O3_3 
REMARK    2  A    between atoms: C18_27  and  O3_3 
REMARK       I    between atoms: C8_17  and  N1_8 
REMARK    3  A    between atoms: C9_18  and  N1_8 
REMARK    4  A    between atoms: C7_16  and  N2_9 
REMARK    5  A    between atoms: C3_12  and  C8_17 
REMARK    6  A    between atoms: C12_21  and  C17_26 
ROOT
HETATM    1  O2  UNK     1      20.996  -4.258  37.969  1.00  0.00    -0.267 OA
HETATM    2  N1  UNK     1      19.073  -4.123  36.617  1.00  0.00    -0.323 N 
HETATM    3  C8  UNK     1      20.104  -4.764  37.289  1.00  0.00     0.262 C 
HETATM    4  H5  UNK     1      18.398  -4.692  36.112  1.00  0.00     0.169 HD
ENDROOT
BRANCH   3   5
HETATM    5  C3  UNK     1      20.055  -6.221  37.120  1.00  0.00     0.108 A 
HETATM    6  C10 UNK     1      18.791  -6.982  37.234  1.00  0.00     0.304 A 
HETATM    7  O1  UNK     1      18.872  -8.360  37.052  1.00  0.00    -0.274 OA
HETATM    8  O4  UNK     1      17.722  -6.432  37.475  1.00  0.00    -0.259 OA
HETATM    9  C2  UNK     1      20.095  -9.002  36.775  1.00  0.00     0.089 A 
HETATM   10  C1  UNK     1      21.272  -8.267  36.672  1.00  0.00     0.001 A 
HETATM   11  C6  UNK     1      20.076 -10.385  36.609  1.00  0.00     0.041 A 
HETATM   12  C4  UNK     1      21.219  -6.825  36.857  1.00  0.00     0.037 A 
HETATM   13  C5  UNK     1      22.464  -8.940  36.397  1.00  0.00     0.050 A 
HETATM   14  C7  UNK     1      22.461 -10.327  36.228  1.00  0.00     0.103 A 
HETATM   15  C11 UNK     1      21.270 -11.049  36.334  1.00  0.00     0.039 A 
BRANCH  14  16
HETATM   16  N2  UNK     1      23.676 -11.008  35.947  1.00  0.00    -0.116 N 
HETATM   17  O5  UNK     1      23.634 -12.088  35.309  1.00  0.00    -0.532 OA
HETATM   18  O6  UNK     1      24.758 -10.510  36.342  1.00  0.00    -0.532 OA
ENDBRANCH  14  16
ENDBRANCH   3   5
BRANCH   2  19
HETATM   19  C9  UNK     1      18.810  -2.732  36.562  1.00  0.00     0.035 A 
HETATM   20  C13 UNK     1      19.298  -1.993  35.499  1.00  0.00     0.030 A 
HETATM   21  C15 UNK     1      19.039  -0.623  35.445  1.00  0.00     0.020 A 
HETATM   22  C12 UNK     1      18.296  -0.014  36.456  1.00  0.00     0.039 A 
HETATM   23  C16 UNK     1      17.811  -0.774  37.520  1.00  0.00     0.020 A 
HETATM   24  C14 UNK     1      18.070  -2.144  37.574  1.00  0.00     0.030 A 
BRANCH  22  25
HETATM   25  C17 UNK     1      18.025   1.414  36.399  1.00  0.00     0.293 C 
HETATM   26  O7  UNK     1      17.098   1.975  37.000  1.00  0.00    -0.259 OA
BRANCH  25  27
HETATM   27  O3  UNK     1      18.923   2.065  35.599  1.00  0.00    -0.318 OA
BRANCH  27  28
HETATM   28  C18 UNK     1      18.385   2.932  34.595  1.00  0.00     0.174 C 
HETATM   29  C19 UNK     1      18.183   2.143  33.319  1.00  0.00     0.034 C 
ENDBRANCH  27  28
ENDBRANCH  25  27
ENDBRANCH  22  25
ENDBRANCH   2  19
TORSDOF 6
ENDMDL
MODEL 7
REMARK VINA RESULT:      -8.4     14.449     19.853
REMARK  6 active torsions:
REMARK  status: ('A' for Active; 'I' for Inactive)
REMARK    1  A    between atoms: C17_26  and  O3_3 
REMARK    2  A    between atoms: C18_27  and  O3_3 
REMARK       I    between atoms: C8_17  and  N1_8 
REMARK    3  A    between atoms: C9_18  and  N1_8 
REMARK    4  A    between atoms: C7_16  and  N2_9 
REMARK    5  A    between atoms: C3_12  and  C8_17 
REMARK    6  A    between atoms: C12_21  and  C17_26 
ROOT
HETATM    1  O2  UNK     1      17.676  -3.303  15.709  1.00  0.00    -0.267 OA
HETATM    2  N1  UNK     1      19.707  -3.181  14.525  1.00  0.00    -0.323 N 
HETATM    3  C8  UNK     1      18.676  -2.702  15.321  1.00  0.00     0.262 C 
HETATM    4  H5  UNK     1      20.481  -2.557  14.309  1.00  0.00     0.169 HD
ENDROOT
BRANCH   3   5
HETATM    5  C3  UNK     1      18.878  -1.300  15.706  1.00  0.00     0.108 A 
HETATM    6  C10 UNK     1      19.130  -0.240  14.705  1.00  0.00     0.304 A 
HETATM    7  O1  UNK     1      19.305   1.052  15.194  1.00  0.00    -0.274 OA
HETATM    8  O4  UNK     1      19.182  -0.481  13.504  1.00  0.00    -0.259 OA
HETATM    9  C2  UNK     1      19.247   1.340  16.571  1.00  0.00     0.089 A 
HETATM   10  C1  UNK     1      19.009   0.328  17.495  1.00  0.00     0.001 A 
HETATM   11  C6  UNK     1      19.435   2.663  16.965  1.00  0.00     0.041 A 
HETATM   12  C4  UNK     1      18.822  -1.033  17.016  1.00  0.00     0.037 A 
HETATM   13  C5  UNK     1      18.959   0.653  18.853  1.00  0.00     0.050 A 
HETATM   14  C7  UNK     1      19.146   1.975  19.263  1.00  0.00     0.103 A 
HETATM   15  C11 UNK     1      19.384   2.979  18.321  1.00  0.00     0.039 A 
BRANCH  14  16
HETATM   16  N2  UNK     1      19.094   2.302  20.644  1.00  0.00    -0.116 N 
HETATM   17  O5  UNK     1      20.166   2.378  21.292  1.00  0.00    -0.532 OA
HETATM   18  O6  UNK     1      17.977   2.505  21.180  1.00  0.00    -0.532 OA
ENDBRANCH  14  16
ENDBRANCH   3   5
BRANCH   2  19
HETATM   19  C9  UNK     1      19.843  -4.479  13.975  1.00  0.00     0.035 A 
HETATM   20  C13 UNK     1      20.366  -5.494  14.757  1.00  0.00     0.030 A 
HETATM   21  C15 UNK     1      20.499  -6.772  14.214  1.00  0.00     0.020 A 
HETATM   22  C12 UNK     1      20.108  -7.016  12.898  1.00  0.00     0.039 A 
HETATM   23  C16 UNK     1      19.583  -5.981  12.124  1.00  0.00     0.020 A 
HETATM   24  C14 UNK     1      19.449  -4.703  12.666  1.00  0.00     0.030 A 
BRANCH  22  25
HETATM   25  C17 UNK     1      20.245  -8.349  12.333  1.00  0.00     0.293 C 
HETATM   26  O7  UNK     1      21.305  -8.989  12.299  1.00  0.00    -0.259 OA
BRANCH  25  27
HETATM   27  O3  UNK     1      19.055  -8.812  11.842  1.00  0.00    -0.318 OA
BRANCH  27  28
HETATM   28  C18 UNK     1      17.973  -8.926  12.771  1.00  0.00     0.174 C 
HETATM   29  C19 UNK     1      16.713  -8.383  12.129  1.00  0.00     0.034 C 
ENDBRANCH  27  28
ENDBRANCH  25  27
ENDBRANCH  22  25
ENDBRANCH   2  19
TORSDOF 6
ENDMDL
MODEL 8
REMARK VINA RESULT:      -8.3      2.795     10.510
REMARK  6 active torsions:
REMARK  status: ('A' for Active; 'I' for Inactive)
REMARK    1  A    between atoms: C17_26  and  O3_3 
REMARK    2  A    between atoms: C18_27  and  O3_3 
REMARK       I    between atoms: C8_17  and  N1_8 
REMARK    3  A    between atoms: C9_18  and  N1_8 
REMARK    4  A    between atoms: C7_16  and  N2_9 
REMARK    5  A    between atoms: C3_12  and  C8_17 
REMARK    6  A    between atoms: C12_21  and  C17_26 
ROOT
HETATM    1  O2  UNK     1      18.648   5.958  33.854  1.00  0.00    -0.267 OA
HETATM    2  N1  UNK     1      17.343   5.026  32.129  1.00  0.00    -0.323 N 
HETATM    3  C8  UNK     1      17.732   6.005  33.035  1.00  0.00     0.262 C 
HETATM    4  H5  UNK     1      16.571   5.231  31.499  1.00  0.00     0.169 HD
ENDROOT
BRANCH   3   5
HETATM    5  C3  UNK     1      16.900   7.210  32.940  1.00  0.00     0.108 A 
HETATM    6  C10 UNK     1      16.563   7.830  31.638  1.00  0.00     0.304 A 
HETATM    7  O1  UNK     1      15.765   8.971  31.678  1.00  0.00    -0.274 OA
HETATM    8  O4  UNK     1      16.962   7.367  30.576  1.00  0.00    -0.259 OA
HETATM    9  C2  UNK     1      15.301   9.512  32.893  1.00  0.00     0.089 A 
HETATM   10  C1  UNK     1      15.630   8.912  34.105  1.00  0.00     0.001 A 
HETATM   11  C6  UNK     1      14.508  10.655  32.832  1.00  0.00     0.041 A 
HETATM   12  C4  UNK     1      16.461   7.719  34.096  1.00  0.00     0.037 A 
HETATM   13  C5  UNK     1      15.151   9.478  35.288  1.00  0.00     0.050 A 
HETATM   14  C7  UNK     1      14.355  10.626  35.242  1.00  0.00     0.103 A 
HETATM   15  C11 UNK     1      14.034  11.214  34.017  1.00  0.00     0.039 A 
BRANCH  14  16
HETATM   16  N2  UNK     1      13.869  11.198  36.449  1.00  0.00    -0.116 N 
HETATM   17  O5  UNK     1      14.341  10.803  37.542  1.00  0.00    -0.532 OA
HETATM   18  O6  UNK     1      12.981  12.082  36.388  1.00  0.00    -0.532 OA
ENDBRANCH  14  16
ENDBRANCH   3   5
BRANCH   2  19
HETATM   19  C9  UNK     1      17.917   3.746  31.941  1.00  0.00     0.035 A 
HETATM   20  C13 UNK     1      17.983   2.869  33.010  1.00  0.00     0.030 A 
HETATM   21  C15 UNK     1      18.549   1.608  32.824  1.00  0.00     0.020 A 
HETATM   22  C12 UNK     1      19.041   1.242  31.571  1.00  0.00     0.039 A 
HETATM   23  C16 UNK     1      18.967   2.138  30.504  1.00  0.00     0.020 A 
HETATM   24  C14 UNK     1      18.401   3.399  30.690  1.00  0.00     0.030 A 
BRANCH  22  25
HETATM   25  C17 UNK     1      19.630  -0.073  31.377  1.00  0.00     0.293 C 
HETATM   26  O7  UNK     1      19.184  -1.119  31.866  1.00  0.00    -0.259 OA
BRANCH  25  27
HETATM   27  O3  UNK     1      20.743  -0.013  30.582  1.00  0.00    -0.318 OA
BRANCH  27  28
HETATM   28  C18 UNK     1      20.841  -0.982  29.533  1.00  0.00     0.174 C 
HETATM   29  C19 UNK     1      19.802  -0.672  28.476  1.00  0.00     0.034 C 
ENDBRANCH  27  28
ENDBRANCH  25  27
ENDBRANCH  22  25
ENDBRANCH   2  19
TORSDOF 6
ENDMDL
MODEL 9
REMARK VINA RESULT:      -8.3      2.497     10.400
REMARK  6 active torsions:
REMARK  status: ('A' for Active; 'I' for Inactive)
REMARK    1  A    between atoms: C17_26  and  O3_3 
REMARK    2  A    between atoms: C18_27  and  O3_3 
REMARK       I    between atoms: C8_17  and  N1_8 
REMARK    3  A    between atoms: C9_18  and  N1_8 
REMARK    4  A    between atoms: C7_16  and  N2_9 
REMARK    5  A    between atoms: C3_12  and  C8_17 
REMARK    6  A    between atoms: C12_21  and  C17_26 
ROOT
HETATM    1  O2  UNK     1      19.009   6.025  30.446  1.00  0.00    -0.267 OA
HETATM    2  N1  UNK     1      17.981   4.243  31.592  1.00  0.00    -0.323 N 
HETATM    3  C8  UNK     1      18.316   5.569  31.354  1.00  0.00     0.262 C 
HETATM    4  H5  UNK     1      17.376   4.031  32.381  1.00  0.00     0.169 HD
ENDROOT
BRANCH   3   5
HETATM    5  C3  UNK     1      17.735   6.475  32.351  1.00  0.00     0.108 A 
HETATM    6  C10 UNK     1      18.125   6.426  33.779  1.00  0.00     0.304 A 
HETATM    7  O1  UNK     1      17.504   7.338  34.628  1.00  0.00    -0.274 OA
HETATM    8  O4  UNK     1      18.954   5.626  34.197  1.00  0.00    -0.259 OA
HETATM    9  C2  UNK     1      16.550   8.262  34.158  1.00  0.00     0.089 A 
HETATM   10  C1  UNK     1      16.198   8.290  32.812  1.00  0.00     0.001 A 
HETATM   11  C6  UNK     1      15.983   9.134  35.083  1.00  0.00     0.041 A 
HETATM   12  C4  UNK     1      16.830   7.351  31.899  1.00  0.00     0.037 A 
HETATM   13  C5  UNK     1      15.249   9.221  32.384  1.00  0.00     0.050 A 
HETATM   14  C7  UNK     1      14.671  10.103  33.301  1.00  0.00     0.103 A 
HETATM   15  C11 UNK     1      15.036  10.060  34.648  1.00  0.00     0.039 A 
BRANCH  14  16
HETATM   16  N2  UNK     1      13.706  11.048  32.861  1.00  0.00    -0.116 N 
HETATM   17  O5  UNK     1      14.054  12.243  32.702  1.00  0.00    -0.532 OA
HETATM   18  O6  UNK     1      12.532  10.663  32.642  1.00  0.00    -0.532 OA
ENDBRANCH  14  16
ENDBRANCH   3   5
BRANCH   2  19
HETATM   19  C9  UNK     1      18.361   3.107  30.836  1.00  0.00     0.035 A 
HETATM   20  C13 UNK     1      18.044   3.051  29.491  1.00  0.00     0.030 A 
HETATM   21  C15 UNK     1      18.419   1.931  28.748  1.00  0.00     0.020 A 
HETATM   22  C12 UNK     1      19.106   0.885  29.362  1.00  0.00     0.039 A 
HETATM   23  C16 UNK     1      19.419   0.958  30.720  1.00  0.00     0.020 A 
HETATM   24  C14 UNK     1      19.043   2.077  31.463  1.00  0.00     0.030 A 
BRANCH  22  25
HETATM   25  C17 UNK     1      19.499  -0.282  28.587  1.00  0.00     0.293 C 
HETATM   26  O7  UNK     1      18.968  -0.626  27.523  1.00  0.00    -0.259 OA
BRANCH  25  27
HETATM   27  O3  UNK     1      20.533  -0.955  29.180  1.00  0.00    -0.318 OA
BRANCH  27  28
HETATM   28  C18 UNK     1      20.249  -2.266  29.679  1.00  0.00     0.174 C 
HETATM   29  C19 UNK     1      20.689  -2.349  31.126  1.00  0.00     0.034 C 
ENDBRANCH  27  28
ENDBRANCH  25  27
ENDBRANCH  22  25
ENDBRANCH   2  19
TORSDOF 6
ENDMDL
MODEL 10
REMARK VINA RESULT:      -8.2      5.712     11.289
REMARK  6 active torsions:
REMARK  status: ('A' for Active; 'I' for Inactive)
REMARK    1  A    between atoms: C17_26  and  O3_3 
REMARK    2  A    between atoms: C18_27  and  O3_3 
REMARK       I    between atoms: C8_17  and  N1_8 
REMARK    3  A    between atoms: C9_18  and  N1_8 
REMARK    4  A    between atoms: C7_16  and  N2_9 
REMARK    5  A    between atoms: C3_12  and  C8_17 
REMARK    6  A    between atoms: C12_21  and  C17_26 
ROOT
HETATM    1  O2  UNK     1      17.758  -2.298  36.838  1.00  0.00    -0.267 OA
HETATM    2  N1  UNK     1      19.736  -2.831  35.676  1.00  0.00    -0.323 N 
HETATM    3  C8  UNK     1      18.613  -2.074  35.983  1.00  0.00     0.262 C 
HETATM    4  H5  UNK     1      20.362  -2.494  34.949  1.00  0.00     0.169 HD
ENDROOT
BRANCH   3   5
HETATM    5  C3  UNK     1      18.505  -0.876  35.141  1.00  0.00     0.108 A 
HETATM    6  C10 UNK     1      18.069   0.429  35.687  1.00  0.00     0.304 A 
HETATM    7  O1  UNK     1      18.007   1.492  34.789  1.00  0.00    -0.274 OA
HETATM    8  O4  UNK     1      17.779   0.574  36.869  1.00  0.00    -0.259 OA
HETATM    9  C2  UNK     1      18.339   1.337  33.429  1.00  0.00     0.089 A 
HETATM   10  C1  UNK     1      18.746   0.100  32.938  1.00  0.00     0.001 A 
HETATM   11  C6  UNK     1      18.246   2.458  32.608  1.00  0.00     0.041 A 
HETATM   12  C4  UNK     1      18.821  -1.030  33.851  1.00  0.00     0.037 A 
HETATM   13  C5  UNK     1      19.066  -0.014  31.583  1.00  0.00     0.050 A 
HETATM   14  C7  UNK     1      18.977   1.102  30.747  1.00  0.00     0.103 A 
HETATM   15  C11 UNK     1      18.568   2.336  31.258  1.00  0.00     0.039 A 
BRANCH  14  16
HETATM   16  N2  UNK     1      19.305   0.982  29.370  1.00  0.00    -0.116 N 
HETATM   17  O5  UNK     1      18.644   1.638  28.529  1.00  0.00    -0.532 OA
HETATM   18  O6  UNK     1      20.246   0.224  29.033  1.00  0.00    -0.532 OA
ENDBRANCH  14  16
ENDBRANCH   3   5
BRANCH   2  19
HETATM   19  C9  UNK     1      20.155  -4.040  36.283  1.00  0.00     0.035 A 
HETATM   20  C13 UNK     1      20.904  -3.990  37.445  1.00  0.00     0.030 A 
HETATM   21  C15 UNK     1      21.316  -5.182  38.042  1.00  0.00     0.020 A 
HETATM   22  C12 UNK     1      20.973  -6.405  37.467  1.00  0.00     0.039 A 
HETATM   23  C16 UNK     1      20.217  -6.437  36.294  1.00  0.00     0.020 A 
HETATM   24  C14 UNK     1      19.805  -5.246  35.698  1.00  0.00     0.030 A 
BRANCH  22  25
HETATM   25  C17 UNK     1      21.401  -7.648  38.089  1.00  0.00     0.293 C 
HETATM   26  O7  UNK     1      22.472  -8.220  37.845  1.00  0.00    -0.259 OA
BRANCH  25  27
HETATM   27  O3  UNK     1      20.473  -8.109  38.983  1.00  0.00    -0.318 OA
BRANCH  27  28
HETATM   28  C18 UNK     1      20.165  -9.505  38.932  1.00  0.00     0.174 C 
HETATM   29  C19 UNK     1      19.084  -9.735  37.897  1.00  0.00     0.034 C 
ENDBRANCH  27  28
ENDBRANCH  25  27
ENDBRANCH  22  25
ENDBRANCH   2  19
TORSDOF 6
ENDMDL
