MODEL 1
REMARK VINA RESULT:      -8.7      0.000      0.000
REMARK  6 active torsions:
REMARK  status: ('A' for Active; 'I' for Inactive)
REMARK    1  A    between atoms: C16_24  and  S1_1 
REMARK    2  A    between atoms: C22_30  and  S1_1 
REMARK    3  A    between atoms: C13_21  and  O3_4 
REMARK    4  A    between atoms: C8_16  and  N1_6 
REMARK    5  A    between atoms: C1_9  and  C3_11 
REMARK    6  A    between atoms: C11_19  and  C16_24 
ROOT
HETATM    1  O1  UNK     1      31.885  -4.732  36.096  1.00  0.00    -0.291 OA
HETATM    2  O2  UNK     1      33.140  -8.707  36.453  1.00  0.00    -0.274 OA
HETATM    3  O4  UNK     1      31.907  -8.928  38.358  1.00  0.00    -0.259 OA
HETATM    4  N2  UNK     1      29.327  -3.510  39.991  1.00  0.00    -0.191 NA
HETATM    5  C1  UNK     1      30.808  -6.270  38.267  1.00  0.00     0.109 C 
HETATM    6  C2  UNK     1      31.795  -6.823  37.259  1.00  0.00     0.066 A 
HETATM    7  C4  UNK     1      32.254  -6.055  36.259  1.00  0.00     0.104 A 
HETATM    8  C5  UNK     1      30.628  -4.760  38.131  1.00  0.00     0.086 C 
HETATM    9  C6  UNK     1      33.182  -6.585  35.264  1.00  0.00     0.033 A 
HETATM   10  C8  UNK     1      31.149  -4.081  37.084  1.00  0.00     0.159 C 
HETATM   11  C9  UNK     1      32.267  -8.224  37.421  1.00  0.00     0.298 A 
HETATM   12  C12 UNK     1      33.597  -7.908  35.388  1.00  0.00     0.092 A 
HETATM   13  C15 UNK     1      33.677  -5.838  34.188  1.00  0.00     0.017 A 
HETATM   14  C17 UNK     1      34.477  -8.498  34.481  1.00  0.00     0.038 A 
HETATM   15  C18 UNK     1      29.910  -4.070  39.158  1.00  0.00     0.100 C 
HETATM   16  C19 UNK     1      34.560  -6.414  33.270  1.00  0.00     0.001 A 
HETATM   17  C20 UNK     1      34.960  -7.743  33.417  1.00  0.00     0.003 A 
ENDROOT
BRANCH   5  18
HETATM   18  C3  UNK     1      29.480  -6.960  38.137  1.00  0.00    -0.043 A 
HETATM   19  C10 UNK     1      28.673  -7.116  39.258  1.00  0.00     0.011 A 
HETATM   20  C14 UNK     1      27.441  -7.756  39.137  1.00  0.00     0.038 A 
HETATM   21  C13 UNK     1      27.022  -8.235  37.896  1.00  0.00     0.075 A 
HETATM   22  C11 UNK     1      27.838  -8.075  36.776  1.00  0.00    -0.015 A 
HETATM   23  C7  UNK     1      29.071  -7.434  36.897  1.00  0.00     0.019 A 
BRANCH  21  24
HETATM   24  O3  UNK     1      25.815  -8.859  37.794  1.00  0.00    -0.355 OA
HETATM   25  C21 UNK     1      24.715  -8.255  38.473  1.00  0.00     0.210 C 
ENDBRANCH  21  24
BRANCH  22  26
HETATM   26  C16 UNK     1      27.407  -8.583  35.440  1.00  0.00     0.122 C 
BRANCH  26  27
HETATM   27  S1  UNK     1      28.814  -9.024  34.375  1.00  0.00    -0.106 SA
BRANCH  27  28
HETATM   28  C22 UNK     1      28.939  -7.573  33.337  1.00  0.00     0.093 A 
HETATM   29  N3  UNK     1      27.891  -7.328  32.522  1.00  0.00    -0.254 NA
HETATM   30  C25 UNK     1      27.989  -6.231  31.737  1.00  0.00     0.118 A 
HETATM   31  C26 UNK     1      29.080  -5.377  31.731  1.00  0.00     0.019 A 
HETATM   32  C24 UNK     1      30.138  -5.667  32.586  1.00  0.00     0.004 A 
HETATM   33  C23 UNK     1      30.073  -6.786  33.408  1.00  0.00     0.039 A 
ENDBRANCH  27  28
ENDBRANCH  26  27
ENDBRANCH  22  26
ENDBRANCH   5  18
BRANCH  10  34
HETATM   34  N1  UNK     1      31.023  -2.734  36.878  1.00  0.00    -0.379 N 
HETATM   35  H10 UNK     1      31.153  -2.334  35.958  1.00  0.00     0.158 HD
HETATM   36  H9  UNK     1      30.796  -2.139  37.664  1.00  0.00     0.158 HD
ENDBRANCH  10  34
TORSDOF 6
ENDMDL
MODEL 2
REMARK VINA RESULT:      -8.6      3.899      6.418
REMARK  6 active torsions:
REMARK  status: ('A' for Active; 'I' for Inactive)
REMARK    1  A    between atoms: C16_24  and  S1_1 
REMARK    2  A    between atoms: C22_30  and  S1_1 
REMARK    3  A    between atoms: C13_21  and  O3_4 
REMARK    4  A    between atoms: C8_16  and  N1_6 
REMARK    5  A    between atoms: C1_9  and  C3_11 
REMARK    6  A    between atoms: C11_19  and  C16_24 
ROOT
HETATM    1  O1  UNK     1      34.712  -7.245  35.516  1.00  0.00    -0.291 OA
HETATM    2  O2  UNK     1      30.993  -5.514  34.694  1.00  0.00    -0.274 OA
HETATM    3  O4  UNK     1      31.175  -6.152  32.513  1.00  0.00    -0.259 OA
HETATM    4  N2  UNK     1      36.708  -8.769  31.405  1.00  0.00    -0.191 NA
HETATM    5  C1  UNK     1      33.686  -7.519  32.850  1.00  0.00     0.109 C 
HETATM    6  C2  UNK     1      32.953  -6.788  33.957  1.00  0.00     0.066 A 
HETATM    7  C4  UNK     1      33.483  -6.703  35.188  1.00  0.00     0.104 A 
HETATM    8  C5  UNK     1      35.111  -7.892  33.248  1.00  0.00     0.086 C 
HETATM    9  C6  UNK     1      32.774  -6.028  36.271  1.00  0.00     0.033 A 
HETATM   10  C8  UNK     1      35.546  -7.752  34.521  1.00  0.00     0.159 C 
HETATM   11  C9  UNK     1      31.653  -6.140  33.642  1.00  0.00     0.298 A 
HETATM   12  C12 UNK     1      31.537  -5.453  35.991  1.00  0.00     0.092 A 
HETATM   13  C15 UNK     1      33.266  -5.929  37.578  1.00  0.00     0.017 A 
HETATM   14  C17 UNK     1      30.789  -4.793  36.965  1.00  0.00     0.038 A 
HETATM   15  C18 UNK     1      35.993  -8.376  32.231  1.00  0.00     0.100 C 
HETATM   16  C19 UNK     1      32.528  -5.270  38.566  1.00  0.00     0.001 A 
HETATM   17  C20 UNK     1      31.291  -4.702  38.260  1.00  0.00     0.003 A 
ENDROOT
BRANCH   5  18
HETATM   18  C3  UNK     1      32.928  -8.748  32.440  1.00  0.00    -0.043 A 
HETATM   19  C10 UNK     1      32.669  -9.742  33.377  1.00  0.00     0.011 A 
HETATM   20  C14 UNK     1      31.964 -10.883  32.996  1.00  0.00     0.038 A 
HETATM   21  C13 UNK     1      31.521 -11.023  31.681  1.00  0.00     0.075 A 
HETATM   22  C11 UNK     1      31.785 -10.021  30.746  1.00  0.00    -0.015 A 
HETATM   23  C7  UNK     1      32.490  -8.879  31.127  1.00  0.00     0.019 A 
BRANCH  21  24
HETATM   24  O3  UNK     1      30.835 -12.144  31.324  1.00  0.00    -0.355 OA
HETATM   25  C21 UNK     1      30.805 -13.212  32.269  1.00  0.00     0.210 C 
ENDBRANCH  21  24
BRANCH  22  26
HETATM   26  C16 UNK     1      31.320 -10.155  29.334  1.00  0.00     0.122 C 
BRANCH  26  27
HETATM   27  S1  UNK     1      31.003  -8.546  28.549  1.00  0.00    -0.106 SA
BRANCH  27  28
HETATM   28  C22 UNK     1      29.472  -8.064  29.338  1.00  0.00     0.093 A 
HETATM   29  N3  UNK     1      29.363  -6.766  29.691  1.00  0.00    -0.254 NA
HETATM   30  C25 UNK     1      28.205  -6.405  30.288  1.00  0.00     0.118 A 
HETATM   31  C26 UNK     1      27.160  -7.279  30.545  1.00  0.00     0.019 A 
HETATM   32  C24 UNK     1      27.314  -8.607  30.164  1.00  0.00     0.004 A 
HETATM   33  C23 UNK     1      28.491  -9.016  29.548  1.00  0.00     0.039 A 
ENDBRANCH  27  28
ENDBRANCH  26  27
ENDBRANCH  22  26
ENDBRANCH   5  18
BRANCH  10  34
HETATM   34  N1  UNK     1      36.799  -8.076  34.966  1.00  0.00    -0.379 N 
HETATM   35  H10 UNK     1      37.396  -7.380  35.392  1.00  0.00     0.158 HD
HETATM   36  H9  UNK     1      37.122  -9.029  34.862  1.00  0.00     0.158 HD
ENDBRANCH  10  34
TORSDOF 6
ENDMDL
MODEL 3
REMARK VINA RESULT:      -8.6      3.230      6.266
REMARK  6 active torsions:
REMARK  status: ('A' for Active; 'I' for Inactive)
REMARK    1  A    between atoms: C16_24  and  S1_1 
REMARK    2  A    between atoms: C22_30  and  S1_1 
REMARK    3  A    between atoms: C13_21  and  O3_4 
REMARK    4  A    between atoms: C8_16  and  N1_6 
REMARK    5  A    between atoms: C1_9  and  C3_11 
REMARK    6  A    between atoms: C11_19  and  C16_24 
ROOT
HETATM    1  O1  UNK     1      31.156  -6.712  37.767  1.00  0.00    -0.291 OA
HETATM    2  O2  UNK     1      27.596  -7.155  35.615  1.00  0.00    -0.274 OA
HETATM    3  O4  UNK     1      28.626  -6.360  33.742  1.00  0.00    -0.259 OA
HETATM    4  N2  UNK     1      34.437  -4.531  34.995  1.00  0.00    -0.191 NA
HETATM    5  C1  UNK     1      31.215  -6.080  34.968  1.00  0.00     0.109 C 
HETATM    6  C2  UNK     1      29.973  -6.560  35.691  1.00  0.00     0.066 A 
HETATM    7  C4  UNK     1      30.013  -6.849  37.001  1.00  0.00     0.104 A 
HETATM    8  C5  UNK     1      32.356  -5.761  35.930  1.00  0.00     0.086 C 
HETATM    9  C6  UNK     1      28.830  -7.342  37.703  1.00  0.00     0.033 A 
HETATM   10  C8  UNK     1      32.285  -6.086  37.241  1.00  0.00     0.159 C 
HETATM   11  C9  UNK     1      28.703  -6.673  34.925  1.00  0.00     0.298 A 
HETATM   12  C12 UNK     1      27.648  -7.486  36.982  1.00  0.00     0.092 A 
HETATM   13  C15 UNK     1      28.819  -7.680  39.062  1.00  0.00     0.017 A 
HETATM   14  C17 UNK     1      26.473  -7.953  37.570  1.00  0.00     0.038 A 
HETATM   15  C18 UNK     1      33.505  -5.082  35.414  1.00  0.00     0.100 C 
HETATM   16  C19 UNK     1      27.649  -8.150  39.666  1.00  0.00     0.001 A 
HETATM   17  C20 UNK     1      26.477  -8.286  38.921  1.00  0.00     0.003 A 
ENDROOT
BRANCH   5  18
HETATM   18  C3  UNK     1      31.663  -7.098  33.959  1.00  0.00    -0.043 A 
HETATM   19  C10 UNK     1      31.876  -8.413  34.356  1.00  0.00     0.011 A 
HETATM   20  C14 UNK     1      32.291  -9.358  33.419  1.00  0.00     0.038 A 
HETATM   21  C13 UNK     1      32.489  -8.983  32.090  1.00  0.00     0.075 A 
HETATM   22  C11 UNK     1      32.273  -7.662  31.700  1.00  0.00    -0.015 A 
HETATM   23  C7  UNK     1      31.858  -6.715  32.637  1.00  0.00     0.019 A 
BRANCH  21  24
HETATM   24  O3  UNK     1      32.895  -9.918  31.187  1.00  0.00    -0.355 OA
HETATM   25  C21 UNK     1      31.947 -10.919  30.821  1.00  0.00     0.210 C 
ENDBRANCH  21  24
BRANCH  22  26
HETATM   26  C16 UNK     1      32.482  -7.242  30.282  1.00  0.00     0.122 C 
BRANCH  26  27
HETATM   27  S1  UNK     1      30.994  -6.494  29.551  1.00  0.00    -0.106 SA
BRANCH  27  28
HETATM   28  C22 UNK     1      30.074  -7.947  29.058  1.00  0.00     0.093 A 
HETATM   29  N3  UNK     1      30.669  -8.754  28.154  1.00  0.00    -0.254 NA
HETATM   30  C25 UNK     1      29.971  -9.850  27.782  1.00  0.00     0.118 A 
HETATM   31  C26 UNK     1      28.714 -10.172  28.270  1.00  0.00     0.019 A 
HETATM   32  C24 UNK     1      28.139  -9.313  29.200  1.00  0.00     0.004 A 
HETATM   33  C23 UNK     1      28.826  -8.176  29.607  1.00  0.00     0.039 A 
ENDBRANCH  27  28
ENDBRANCH  26  27
ENDBRANCH  22  26
ENDBRANCH   5  18
BRANCH  10  34
HETATM   34  N1  UNK     1      33.264  -5.851  38.166  1.00  0.00    -0.379 N 
HETATM   35  H10 UNK     1      33.040  -5.474  39.077  1.00  0.00     0.158 HD
HETATM   36  H9  UNK     1      34.224  -6.059  37.923  1.00  0.00     0.158 HD
ENDBRANCH  10  34
TORSDOF 6
ENDMDL
MODEL 4
REMARK VINA RESULT:      -8.5      2.374      7.056
REMARK  6 active torsions:
REMARK  status: ('A' for Active; 'I' for Inactive)
REMARK    1  A    between atoms: C16_24  and  S1_1 
REMARK    2  A    between atoms: C22_30  and  S1_1 
REMARK    3  A    between atoms: C13_21  and  O3_4 
REMARK    4  A    between atoms: C8_16  and  N1_6 
REMARK    5  A    between atoms: C1_9  and  C3_11 
REMARK    6  A    between atoms: C11_19  and  C16_24 
ROOT
HETATM    1  O1  UNK     1      29.060  -6.325  34.302  1.00  0.00    -0.291 OA
HETATM    2  O2  UNK     1      30.373  -9.659  36.461  1.00  0.00    -0.274 OA
HETATM    3  O4  UNK     1      31.686 -10.284  34.705  1.00  0.00    -0.259 OA
HETATM    4  N2  UNK     1      30.809  -6.537  29.818  1.00  0.00    -0.191 NA
HETATM    5  C1  UNK     1      31.034  -8.006  33.069  1.00  0.00     0.109 C 
HETATM    6  C2  UNK     1      30.455  -8.266  34.446  1.00  0.00     0.066 A 
HETATM    7  C4  UNK     1      29.541  -7.436  34.971  1.00  0.00     0.104 A 
HETATM    8  C5  UNK     1      30.294  -6.893  32.333  1.00  0.00     0.086 C 
HETATM    9  C6  UNK     1      28.997  -7.658  36.309  1.00  0.00     0.033 A 
HETATM   10  C8  UNK     1      29.378  -6.121  32.960  1.00  0.00     0.159 C 
HETATM   11  C9  UNK     1      30.897  -9.478  35.186  1.00  0.00     0.298 A 
HETATM   12  C12 UNK     1      29.437  -8.770  37.022  1.00  0.00     0.092 A 
HETATM   13  C15 UNK     1      28.060  -6.814  36.916  1.00  0.00     0.017 A 
HETATM   14  C17 UNK     1      28.976  -9.057  38.306  1.00  0.00     0.038 A 
HETATM   15  C18 UNK     1      30.579  -6.696  30.944  1.00  0.00     0.100 C 
HETATM   16  C19 UNK     1      27.587  -7.088  38.203  1.00  0.00     0.001 A 
HETATM   17  C20 UNK     1      28.044  -8.209  38.897  1.00  0.00     0.003 A 
ENDROOT
BRANCH   5  18
HETATM   18  C3  UNK     1      32.495  -7.676  33.167  1.00  0.00    -0.043 A 
HETATM   19  C10 UNK     1      33.413  -8.381  32.397  1.00  0.00     0.011 A 
HETATM   20  C14 UNK     1      34.770  -8.075  32.488  1.00  0.00     0.038 A 
HETATM   21  C13 UNK     1      35.201  -7.064  33.348  1.00  0.00     0.075 A 
HETATM   22  C11 UNK     1      34.274  -6.362  34.118  1.00  0.00    -0.015 A 
HETATM   23  C7  UNK     1      32.916  -6.669  34.027  1.00  0.00     0.019 A 
BRANCH  21  24
HETATM   24  O3  UNK     1      36.530  -6.778  33.425  1.00  0.00    -0.355 OA
HETATM   25  C21 UNK     1      37.322  -7.602  34.279  1.00  0.00     0.210 C 
ENDBRANCH  21  24
BRANCH  22  26
HETATM   26  C16 UNK     1      34.718  -5.279  35.045  1.00  0.00     0.122 C 
BRANCH  26  27
HETATM   27  S1  UNK     1      34.624  -5.776  36.792  1.00  0.00    -0.106 SA
BRANCH  27  28
HETATM   28  C22 UNK     1      32.988  -5.203  37.234  1.00  0.00     0.093 A 
HETATM   29  N3  UNK     1      32.554  -4.089  36.608  1.00  0.00    -0.254 NA
HETATM   30  C25 UNK     1      31.318  -3.658  36.945  1.00  0.00     0.118 A 
HETATM   31  C26 UNK     1      30.505  -4.286  37.875  1.00  0.00     0.019 A 
HETATM   32  C24 UNK     1      30.992  -5.430  38.497  1.00  0.00     0.004 A 
HETATM   33  C23 UNK     1      32.258  -5.905  38.176  1.00  0.00     0.039 A 
ENDBRANCH  27  28
ENDBRANCH  26  27
ENDBRANCH  22  26
ENDBRANCH   5  18
BRANCH  10  34
HETATM   34  N1  UNK     1      28.682  -5.095  32.380  1.00  0.00    -0.379 N 
HETATM   35  H10 UNK     1      29.153  -4.402  31.814  1.00  0.00     0.158 HD
HETATM   36  H9  UNK     1      27.683  -5.038  32.529  1.00  0.00     0.158 HD
ENDBRANCH  10  34
TORSDOF 6
ENDMDL
MODEL 5
REMARK VINA RESULT:      -8.3     32.441     35.782
REMARK  6 active torsions:
REMARK  status: ('A' for Active; 'I' for Inactive)
REMARK    1  A    between atoms: C16_24  and  S1_1 
REMARK    2  A    between atoms: C22_30  and  S1_1 
REMARK    3  A    between atoms: C13_21  and  O3_4 
REMARK    4  A    between atoms: C8_16  and  N1_6 
REMARK    5  A    between atoms: C1_9  and  C3_11 
REMARK    6  A    between atoms: C11_19  and  C16_24 
ROOT
HETATM    1  O1  UNK     1      14.130  12.604   9.470  1.00  0.00    -0.291 OA
HETATM    2  O2  UNK     1      17.988  12.227   7.896  1.00  0.00    -0.274 OA
HETATM    3  O4  UNK     1      18.489  10.674   9.488  1.00  0.00    -0.259 OA
HETATM    4  N2  UNK     1      13.794  10.008  13.514  1.00  0.00    -0.191 NA
HETATM    5  C1  UNK     1      15.866  10.661  10.675  1.00  0.00     0.109 C 
HETATM    6  C2  UNK     1      16.276  11.543   9.512  1.00  0.00     0.066 A 
HETATM    7  C4  UNK     1      15.413  12.427   8.986  1.00  0.00     0.104 A 
HETATM    8  C5  UNK     1      14.522  11.076  11.268  1.00  0.00     0.086 C 
HETATM    9  C6  UNK     1      15.785  13.260   7.846  1.00  0.00     0.033 A 
HETATM   10  C8  UNK     1      13.735  11.991  10.658  1.00  0.00     0.159 C 
HETATM   11  C9  UNK     1      17.663  11.430   8.989  1.00  0.00     0.298 A 
HETATM   12  C12 UNK     1      17.071  13.131   7.328  1.00  0.00     0.092 A 
HETATM   13  C15 UNK     1      14.921  14.182   7.243  1.00  0.00     0.017 A 
HETATM   14  C17 UNK     1      17.510  13.883   6.239  1.00  0.00     0.038 A 
HETATM   15  C18 UNK     1      14.120  10.486  12.508  1.00  0.00     0.100 C 
HETATM   16  C19 UNK     1      15.346  14.943   6.151  1.00  0.00     0.001 A 
HETATM   17  C20 UNK     1      16.640  14.794   5.649  1.00  0.00     0.003 A 
ENDROOT
BRANCH   5  18
HETATM   18  C3  UNK     1      15.819   9.221  10.252  1.00  0.00    -0.043 A 
HETATM   19  C10 UNK     1      16.822   8.351  10.665  1.00  0.00     0.011 A 
HETATM   20  C14 UNK     1      16.779   7.014  10.273  1.00  0.00     0.038 A 
HETATM   21  C13 UNK     1      15.733   6.555   9.471  1.00  0.00     0.075 A 
HETATM   22  C11 UNK     1      14.732   7.435   9.061  1.00  0.00    -0.015 A 
HETATM   23  C7  UNK     1      14.774   8.773   9.453  1.00  0.00     0.019 A 
BRANCH  21  24
HETATM   24  O3  UNK     1      15.706   5.245   9.096  1.00  0.00    -0.355 OA
HETATM   25  C21 UNK     1      15.333   4.294  10.092  1.00  0.00     0.210 C 
ENDBRANCH  21  24
BRANCH  22  26
HETATM   26  C16 UNK     1      13.606   6.961   8.202  1.00  0.00     0.122 C 
BRANCH  26  27
HETATM   27  S1  UNK     1      12.248   6.236   9.170  1.00  0.00    -0.106 SA
BRANCH  27  28
HETATM   28  C22 UNK     1      10.904   6.294   7.991  1.00  0.00     0.093 A 
HETATM   29  N3  UNK     1       9.657   6.224   8.501  1.00  0.00    -0.254 NA
HETATM   30  C25 UNK     1       8.643   6.266   7.608  1.00  0.00     0.118 A 
HETATM   31  C26 UNK     1       8.821   6.374   6.238  1.00  0.00     0.019 A 
HETATM   32  C24 UNK     1      10.123   6.444   5.755  1.00  0.00     0.004 A 
HETATM   33  C23 UNK     1      11.192   6.403   6.643  1.00  0.00     0.039 A 
ENDBRANCH  27  28
ENDBRANCH  26  27
ENDBRANCH  22  26
ENDBRANCH   5  18
BRANCH  10  34
HETATM   34  N1  UNK     1      12.513  12.407  11.112  1.00  0.00    -0.379 N 
HETATM   35  H10 UNK     1      12.435  13.000  11.928  1.00  0.00     0.158 HD
HETATM   36  H9  UNK     1      11.682  12.111  10.617  1.00  0.00     0.158 HD
ENDBRANCH  10  34
TORSDOF 6
ENDMDL
MODEL 6
REMARK VINA RESULT:      -8.2      3.036      7.359
REMARK  6 active torsions:
REMARK  status: ('A' for Active; 'I' for Inactive)
REMARK    1  A    between atoms: C16_24  and  S1_1 
REMARK    2  A    between atoms: C22_30  and  S1_1 
REMARK    3  A    between atoms: C13_21  and  O3_4 
REMARK    4  A    between atoms: C8_16  and  N1_6 
REMARK    5  A    between atoms: C1_9  and  C3_11 
REMARK    6  A    between atoms: C11_19  and  C16_24 
ROOT
HETATM    1  O1  UNK     1      30.171  -5.822  33.742  1.00  0.00    -0.291 OA
HETATM    2  O2  UNK     1      30.812  -9.316  35.951  1.00  0.00    -0.274 OA
HETATM    3  O4  UNK     1      31.426 -10.411  34.048  1.00  0.00    -0.259 OA
HETATM    4  N2  UNK     1      30.700  -6.780  29.050  1.00  0.00    -0.191 NA
HETATM    5  C1  UNK     1      31.177  -8.112  32.333  1.00  0.00     0.109 C 
HETATM    6  C2  UNK     1      30.873  -8.110  33.818  1.00  0.00     0.066 A 
HETATM    7  C4  UNK     1      30.413  -7.002  34.421  1.00  0.00     0.104 A 
HETATM    8  C5  UNK     1      30.682  -6.845  31.641  1.00  0.00     0.086 C 
HETATM    9  C6  UNK     1      30.145  -6.979  35.856  1.00  0.00     0.033 A 
HETATM   10  C8  UNK     1      30.225  -5.788  32.349  1.00  0.00     0.159 C 
HETATM   11  C9  UNK     1      31.064  -9.370  34.585  1.00  0.00     0.298 A 
HETATM   12  C12 UNK     1      30.359  -8.145  36.586  1.00  0.00     0.092 A 
HETATM   13  C15 UNK     1      29.686  -5.847  36.541  1.00  0.00     0.017 A 
HETATM   14  C17 UNK     1      30.133  -8.211  37.960  1.00  0.00     0.038 A 
HETATM   15  C18 UNK     1      30.692  -6.810  30.211  1.00  0.00     0.100 C 
HETATM   16  C19 UNK     1      29.455  -5.897  37.919  1.00  0.00     0.001 A 
HETATM   17  C20 UNK     1      29.678  -7.078  38.628  1.00  0.00     0.003 A 
ENDROOT
BRANCH   5  18
HETATM   18  C3  UNK     1      32.650  -8.285  32.099  1.00  0.00    -0.043 A 
HETATM   19  C10 UNK     1      33.103  -9.348  31.326  1.00  0.00     0.011 A 
HETATM   20  C14 UNK     1      34.471  -9.509  31.107  1.00  0.00     0.038 A 
HETATM   21  C13 UNK     1      35.377  -8.605  31.663  1.00  0.00     0.075 A 
HETATM   22  C11 UNK     1      34.914  -7.542  32.438  1.00  0.00    -0.015 A 
HETATM   23  C7  UNK     1      33.546  -7.381  32.656  1.00  0.00     0.019 A 
BRANCH  21  24
HETATM   24  O3  UNK     1      36.710  -8.776  31.441  1.00  0.00    -0.355 OA
HETATM   25  C21 UNK     1      37.337  -9.883  32.086  1.00  0.00     0.210 C 
ENDBRANCH  21  24
BRANCH  22  26
HETATM   26  C16 UNK     1      35.870  -6.566  33.042  1.00  0.00     0.122 C 
BRANCH  26  27
HETATM   27  S1  UNK     1      36.275  -6.966  34.769  1.00  0.00    -0.106 SA
BRANCH  27  28
HETATM   28  C22 UNK     1      34.961  -6.126  35.644  1.00  0.00     0.093 A 
HETATM   29  N3  UNK     1      34.570  -4.937  35.139  1.00  0.00    -0.254 NA
HETATM   30  C25 UNK     1      33.578  -4.303  35.803  1.00  0.00     0.118 A 
HETATM   31  C26 UNK     1      32.965  -4.803  36.941  1.00  0.00     0.019 A 
HETATM   32  C24 UNK     1      33.398  -6.031  37.428  1.00  0.00     0.004 A 
HETATM   33  C23 UNK     1      34.416  -6.713  36.772  1.00  0.00     0.039 A 
ENDBRANCH  27  28
ENDBRANCH  26  27
ENDBRANCH  22  26
ENDBRANCH   5  18
BRANCH  10  34
HETATM   34  N1  UNK     1      29.778  -4.613  31.811  1.00  0.00    -0.379 N 
HETATM   35  H10 UNK     1      30.413  -3.981  31.340  1.00  0.00     0.158 HD
HETATM   36  H9  UNK     1      28.797  -4.381  31.891  1.00  0.00     0.158 HD
ENDBRANCH  10  34
TORSDOF 6
ENDMDL
MODEL 7
REMARK VINA RESULT:      -8.2      3.870      6.481
REMARK  6 active torsions:
REMARK  status: ('A' for Active; 'I' for Inactive)
REMARK    1  A    between atoms: C16_24  and  S1_1 
REMARK    2  A    between atoms: C22_30  and  S1_1 
REMARK    3  A    between atoms: C13_21  and  O3_4 
REMARK    4  A    between atoms: C8_16  and  N1_6 
REMARK    5  A    between atoms: C1_9  and  C3_11 
REMARK    6  A    between atoms: C11_19  and  C16_24 
ROOT
HETATM    1  O1  UNK     1      30.932 -10.799  33.311  1.00  0.00    -0.291 OA
HETATM    2  O2  UNK     1      28.287  -8.040  31.612  1.00  0.00    -0.274 OA
HETATM    3  O4  UNK     1      28.060  -7.008  33.632  1.00  0.00    -0.259 OA
HETATM    4  N2  UNK     1      31.139 -10.090  38.071  1.00  0.00    -0.191 NA
HETATM    5  C1  UNK     1      29.941  -8.703  35.002  1.00  0.00     0.109 C 
HETATM    6  C2  UNK     1      29.556  -8.854  33.544  1.00  0.00     0.066 A 
HETATM    7  C4  UNK     1      30.063  -9.851  32.803  1.00  0.00     0.104 A 
HETATM    8  C5  UNK     1      30.726  -9.905  35.520  1.00  0.00     0.086 C 
HETATM    9  C6  UNK     1      29.724  -9.990  31.389  1.00  0.00     0.033 A 
HETATM   10  C8  UNK     1      31.180 -10.864  34.682  1.00  0.00     0.159 C 
HETATM   11  C9  UNK     1      28.582  -7.892  32.962  1.00  0.00     0.298 A 
HETATM   12  C12 UNK     1      28.843  -9.070  30.829  1.00  0.00     0.092 A 
HETATM   13  C15 UNK     1      30.239 -10.996  30.563  1.00  0.00     0.017 A 
HETATM   14  C17 UNK     1      28.467  -9.123  29.487  1.00  0.00     0.038 A 
HETATM   15  C18 UNK     1      30.954 -10.007  36.929  1.00  0.00     0.100 C 
HETATM   16  C19 UNK     1      29.873 -11.064  29.215  1.00  0.00     0.001 A 
HETATM   17  C20 UNK     1      28.987 -10.129  28.678  1.00  0.00     0.003 A 
ENDROOT
BRANCH   5  18
HETATM   18  C3  UNK     1      30.732  -7.443  35.210  1.00  0.00    -0.043 A 
HETATM   19  C10 UNK     1      30.256  -6.467  36.078  1.00  0.00     0.011 A 
HETATM   20  C14 UNK     1      30.990  -5.298  36.271  1.00  0.00     0.038 A 
HETATM   21  C13 UNK     1      32.197  -5.112  35.596  1.00  0.00     0.075 A 
HETATM   22  C11 UNK     1      32.667  -6.096  34.727  1.00  0.00    -0.015 A 
HETATM   23  C7  UNK     1      31.932  -7.266  34.533  1.00  0.00     0.019 A 
BRANCH  21  24
HETATM   24  O3  UNK     1      32.902  -3.964  35.795  1.00  0.00    -0.355 OA
HETATM   25  C21 UNK     1      32.224  -2.893  36.451  1.00  0.00     0.210 C 
ENDBRANCH  21  24
BRANCH  22  26
HETATM   26  C16 UNK     1      33.955  -5.913  33.994  1.00  0.00     0.122 C 
BRANCH  26  27
HETATM   27  S1  UNK     1      34.705  -7.494  33.499  1.00  0.00    -0.106 SA
BRANCH  27  28
HETATM   28  C22 UNK     1      34.295  -7.548  31.758  1.00  0.00     0.093 A 
HETATM   29  N3  UNK     1      35.254  -7.131  30.904  1.00  0.00    -0.254 NA
HETATM   30  C25 UNK     1      34.941  -7.172  29.590  1.00  0.00     0.118 A 
HETATM   31  C26 UNK     1      33.721  -7.608  29.096  1.00  0.00     0.019 A 
HETATM   32  C24 UNK     1      32.763  -8.029  30.011  1.00  0.00     0.004 A 
HETATM   33  C23 UNK     1      33.047  -8.002  31.371  1.00  0.00     0.039 A 
ENDBRANCH  27  28
ENDBRANCH  26  27
ENDBRANCH  22  26
ENDBRANCH   5  18
BRANCH  10  34
HETATM   34  N1  UNK     1      31.902 -11.963  35.058  1.00  0.00    -0.379 N 
HETATM   35  H10 UNK     1      31.441 -12.821  35.331  1.00  0.00     0.158 HD
HETATM   36  H9  UNK     1      32.912 -11.905  35.061  1.00  0.00     0.158 HD
ENDBRANCH  10  34
TORSDOF 6
ENDMDL
MODEL 8
REMARK VINA RESULT:      -8.2      3.409      6.857
REMARK  6 active torsions:
REMARK  status: ('A' for Active; 'I' for Inactive)
REMARK    1  A    between atoms: C16_24  and  S1_1 
REMARK    2  A    between atoms: C22_30  and  S1_1 
REMARK    3  A    between atoms: C13_21  and  O3_4 
REMARK    4  A    between atoms: C8_16  and  N1_6 
REMARK    5  A    between atoms: C1_9  and  C3_11 
REMARK    6  A    between atoms: C11_19  and  C16_24 
ROOT
HETATM    1  O1  UNK     1      30.728  -5.421  33.646  1.00  0.00    -0.291 OA
HETATM    2  O2  UNK     1      31.087  -8.678  36.247  1.00  0.00    -0.274 OA
HETATM    3  O4  UNK     1      30.026 -10.010  34.730  1.00  0.00    -0.259 OA
HETATM    4  N2  UNK     1      28.076  -6.706  29.835  1.00  0.00    -0.191 NA
HETATM    5  C1  UNK     1      29.767  -7.963  32.722  1.00  0.00     0.109 C 
HETATM    6  C2  UNK     1      30.390  -7.750  34.088  1.00  0.00     0.066 A 
HETATM    7  C4  UNK     1      30.829  -6.536  34.457  1.00  0.00     0.104 A 
HETATM    8  C5  UNK     1      29.508  -6.647  31.994  1.00  0.00     0.086 C 
HETATM    9  C6  UNK     1      31.459  -6.324  35.757  1.00  0.00     0.033 A 
HETATM   10  C8  UNK     1      29.989  -5.475  32.465  1.00  0.00     0.159 C 
HETATM   11  C9  UNK     1      30.473  -8.905  35.020  1.00  0.00     0.298 A 
HETATM   12  C12 UNK     1      31.574  -7.411  36.619  1.00  0.00     0.092 A 
HETATM   13  C15 UNK     1      31.955  -5.087  36.187  1.00  0.00     0.017 A 
HETATM   14  C17 UNK     1      32.165  -7.300  37.878  1.00  0.00     0.038 A 
HETATM   15  C18 UNK     1      28.718  -6.680  30.802  1.00  0.00     0.100 C 
HETATM   16  C19 UNK     1      32.550  -4.959  37.445  1.00  0.00     0.001 A 
HETATM   17  C20 UNK     1      32.654  -6.065  38.290  1.00  0.00     0.003 A 
ENDROOT
BRANCH   5  18
HETATM   18  C3  UNK     1      30.636  -8.855  31.882  1.00  0.00    -0.043 A 
HETATM   19  C10 UNK     1      30.084  -9.975  31.272  1.00  0.00     0.011 A 
HETATM   20  C14 UNK     1      30.890 -10.803  30.492  1.00  0.00     0.038 A 
HETATM   21  C13 UNK     1      32.243 -10.504  30.325  1.00  0.00     0.075 A 
HETATM   22  C11 UNK     1      32.788  -9.378  30.941  1.00  0.00    -0.015 A 
HETATM   23  C7  UNK     1      31.982  -8.550  31.722  1.00  0.00     0.019 A 
BRANCH  21  24
HETATM   24  O3  UNK     1      33.017 -11.323  29.560  1.00  0.00    -0.355 OA
HETATM   25  C21 UNK     1      33.193 -12.662  30.019  1.00  0.00     0.210 C 
ENDBRANCH  21  24
BRANCH  22  26
HETATM   26  C16 UNK     1      34.234  -9.044  30.776  1.00  0.00     0.122 C 
BRANCH  26  27
HETATM   27  S1  UNK     1      34.553  -7.258  30.886  1.00  0.00    -0.106 SA
BRANCH  27  28
HETATM   28  C22 UNK     1      35.265  -7.127  32.522  1.00  0.00     0.093 A 
HETATM   29  N3  UNK     1      36.569  -7.455  32.636  1.00  0.00    -0.254 NA
HETATM   30  C25 UNK     1      37.104  -7.357  33.874  1.00  0.00     0.118 A 
HETATM   31  C26 UNK     1      36.397  -6.948  34.993  1.00  0.00     0.019 A 
HETATM   32  C24 UNK     1      35.056  -6.619  34.831  1.00  0.00     0.004 A 
HETATM   33  C23 UNK     1      34.471  -6.708  33.574  1.00  0.00     0.039 A 
ENDBRANCH  27  28
ENDBRANCH  26  27
ENDBRANCH  22  26
ENDBRANCH   5  18
BRANCH  10  34
HETATM   34  N1  UNK     1      29.817  -4.256  31.868  1.00  0.00    -0.379 N 
HETATM   35  H10 UNK     1      28.896  -3.851  31.768  1.00  0.00     0.158 HD
HETATM   36  H9  UNK     1      30.631  -3.762  31.525  1.00  0.00     0.158 HD
ENDBRANCH  10  34
TORSDOF 6
ENDMDL
MODEL 9
REMARK VINA RESULT:      -8.1      3.360      5.728
REMARK  6 active torsions:
REMARK  status: ('A' for Active; 'I' for Inactive)
REMARK    1  A    between atoms: C16_24  and  S1_1 
REMARK    2  A    between atoms: C22_30  and  S1_1 
REMARK    3  A    between atoms: C13_21  and  O3_4 
REMARK    4  A    between atoms: C8_16  and  N1_6 
REMARK    5  A    between atoms: C1_9  and  C3_11 
REMARK    6  A    between atoms: C11_19  and  C16_24 
ROOT
HETATM    1  O1  UNK     1      29.186 -10.508  31.855  1.00  0.00    -0.291 OA
HETATM    2  O2  UNK     1      31.837 -11.558  34.916  1.00  0.00    -0.274 OA
HETATM    3  O4  UNK     1      31.494  -9.537  35.911  1.00  0.00    -0.259 OA
HETATM    4  N2  UNK     1      27.844  -5.915  32.412  1.00  0.00    -0.191 NA
HETATM    5  C1  UNK     1      29.545  -8.631  33.997  1.00  0.00     0.109 C 
HETATM    6  C2  UNK     1      30.260  -9.965  33.925  1.00  0.00     0.066 A 
HETATM    7  C4  UNK     1      30.041 -10.804  32.900  1.00  0.00     0.104 A 
HETATM    8  C5  UNK     1      28.796  -8.307  32.707  1.00  0.00     0.086 C 
HETATM    9  C6  UNK     1      30.701 -12.106  32.835  1.00  0.00     0.033 A 
HETATM   10  C8  UNK     1      28.646  -9.229  31.729  1.00  0.00     0.159 C 
HETATM   11  C9  UNK     1      31.232 -10.309  34.996  1.00  0.00     0.298 A 
HETATM   12  C12 UNK     1      31.583 -12.449  33.855  1.00  0.00     0.092 A 
HETATM   13  C15 UNK     1      30.494 -13.030  31.803  1.00  0.00     0.017 A 
HETATM   14  C17 UNK     1      32.253 -13.672  33.877  1.00  0.00     0.038 A 
HETATM   15  C18 UNK     1      28.270  -6.986  32.544  1.00  0.00     0.100 C 
HETATM   16  C19 UNK     1      31.159 -14.260  31.809  1.00  0.00     0.001 A 
HETATM   17  C20 UNK     1      32.037 -14.580  32.845  1.00  0.00     0.003 A 
ENDROOT
BRANCH   5  18
HETATM   18  C3  UNK     1      28.599  -8.603  35.162  1.00  0.00    -0.043 A 
HETATM   19  C10 UNK     1      27.822  -9.721  35.444  1.00  0.00     0.011 A 
HETATM   20  C14 UNK     1      26.944  -9.696  36.527  1.00  0.00     0.038 A 
HETATM   21  C13 UNK     1      26.848  -8.553  37.322  1.00  0.00     0.075 A 
HETATM   22  C11 UNK     1      27.631  -7.436  37.032  1.00  0.00    -0.015 A 
HETATM   23  C7  UNK     1      28.510  -7.461  35.948  1.00  0.00     0.019 A 
BRANCH  21  24
HETATM   24  O3  UNK     1      25.985  -8.545  38.375  1.00  0.00    -0.355 OA
HETATM   25  C21 UNK     1      26.393  -9.239  39.552  1.00  0.00     0.210 C 
ENDBRANCH  21  24
BRANCH  22  26
HETATM   26  C16 UNK     1      27.541  -6.204  37.870  1.00  0.00     0.122 C 
BRANCH  26  27
HETATM   27  S1  UNK     1      28.752  -6.194  39.226  1.00  0.00    -0.106 SA
BRANCH  27  28
HETATM   28  C22 UNK     1      30.206  -5.564  38.396  1.00  0.00     0.093 A 
HETATM   29  N3  UNK     1      31.317  -6.326  38.473  1.00  0.00    -0.254 NA
HETATM   30  C25 UNK     1      32.415  -5.846  37.846  1.00  0.00     0.118 A 
HETATM   31  C26 UNK     1      32.449  -4.647  37.153  1.00  0.00     0.019 A 
HETATM   32  C24 UNK     1      31.282  -3.893  37.099  1.00  0.00     0.004 A 
HETATM   33  C23 UNK     1      30.133  -4.353  37.731  1.00  0.00     0.039 A 
ENDBRANCH  27  28
ENDBRANCH  26  27
ENDBRANCH  22  26
ENDBRANCH   5  18
BRANCH  10  34
HETATM   34  N1  UNK     1      27.978  -9.028  30.552  1.00  0.00    -0.379 N 
HETATM   35  H10 UNK     1      28.336  -8.390  29.853  1.00  0.00     0.158 HD
HETATM   36  H9  UNK     1      27.115  -9.529  30.389  1.00  0.00     0.158 HD
ENDBRANCH  10  34
TORSDOF 6
ENDMDL
MODEL 10
REMARK VINA RESULT:      -8.1      4.898      7.873
REMARK  6 active torsions:
REMARK  status: ('A' for Active; 'I' for Inactive)
REMARK    1  A    between atoms: C16_24  and  S1_1 
REMARK    2  A    between atoms: C22_30  and  S1_1 
REMARK    3  A    between atoms: C13_21  and  O3_4 
REMARK    4  A    between atoms: C8_16  and  N1_6 
REMARK    5  A    between atoms: C1_9  and  C3_11 
REMARK    6  A    between atoms: C11_19  and  C16_24 
ROOT
HETATM    1  O1  UNK     1      29.555 -10.649  31.369  1.00  0.00    -0.291 OA
HETATM    2  O2  UNK     1      29.146  -7.035  33.436  1.00  0.00    -0.274 OA
HETATM    3  O4  UNK     1      30.736  -7.704  34.926  1.00  0.00    -0.259 OA
HETATM    4  N2  UNK     1      32.535 -13.550  33.800  1.00  0.00    -0.191 NA
HETATM    5  C1  UNK     1      31.289 -10.205  33.612  1.00  0.00     0.109 C 
HETATM    6  C2  UNK     1      30.248  -9.205  33.148  1.00  0.00     0.066 A 
HETATM    7  C4  UNK     1      29.474  -9.469  32.084  1.00  0.00     0.104 A 
HETATM    8  C5  UNK     1      31.158 -11.548  32.900  1.00  0.00     0.086 C 
HETATM    9  C6  UNK     1      28.488  -8.502  31.609  1.00  0.00     0.033 A 
HETATM   10  C8  UNK     1      30.332 -11.706  31.841  1.00  0.00     0.159 C 
HETATM   11  C9  UNK     1      30.082  -7.943  33.917  1.00  0.00     0.298 A 
HETATM   12  C12 UNK     1      28.355  -7.301  32.301  1.00  0.00     0.092 A 
HETATM   13  C15 UNK     1      27.669  -8.712  30.493  1.00  0.00     0.017 A 
HETATM   14  C17 UNK     1      27.444  -6.319  31.915  1.00  0.00     0.038 A 
HETATM   15  C18 UNK     1      31.918 -12.653  33.397  1.00  0.00     0.100 C 
HETATM   16  C19 UNK     1      26.750  -7.738  30.093  1.00  0.00     0.001 A 
HETATM   17  C20 UNK     1      26.637  -6.543  30.804  1.00  0.00     0.003 A 
ENDROOT
BRANCH   5  18
HETATM   18  C3  UNK     1      32.672  -9.652  33.418  1.00  0.00    -0.043 A 
HETATM   19  C10 UNK     1      33.381  -9.173  34.514  1.00  0.00     0.011 A 
HETATM   20  C14 UNK     1      34.665  -8.660  34.334  1.00  0.00     0.038 A 
HETATM   21  C13 UNK     1      35.233  -8.631  33.060  1.00  0.00     0.075 A 
HETATM   22  C11 UNK     1      34.514  -9.114  31.966  1.00  0.00    -0.015 A 
HETATM   23  C7  UNK     1      33.229  -9.627  32.146  1.00  0.00     0.019 A 
BRANCH  21  24
HETATM   24  O3  UNK     1      36.488  -8.126  32.900  1.00  0.00    -0.355 OA
HETATM   25  C21 UNK     1      37.060  -7.451  34.019  1.00  0.00     0.210 C 
ENDBRANCH  21  24
BRANCH  22  26
HETATM   26  C16 UNK     1      35.105  -9.089  30.595  1.00  0.00     0.122 C 
BRANCH  26  27
HETATM   27  S1  UNK     1      34.783  -7.524  29.726  1.00  0.00    -0.106 SA
BRANCH  27  28
HETATM   28  C22 UNK     1      33.074  -7.734  29.243  1.00  0.00     0.093 A 
HETATM   29  N3  UNK     1      32.794  -8.815  28.484  1.00  0.00    -0.254 NA
HETATM   30  C25 UNK     1      31.501  -8.970  28.120  1.00  0.00     0.118 A 
HETATM   31  C26 UNK     1      30.485  -8.098  28.477  1.00  0.00     0.019 A 
HETATM   32  C24 UNK     1      30.817  -6.997  29.259  1.00  0.00     0.004 A 
HETATM   33  C23 UNK     1      32.136  -6.804  29.654  1.00  0.00     0.039 A 
ENDBRANCH  27  28
ENDBRANCH  26  27
ENDBRANCH  22  26
ENDBRANCH   5  18
BRANCH  10  34
HETATM   34  N1  UNK     1      30.166 -12.867  31.137  1.00  0.00    -0.379 N 
HETATM   35  H10 UNK     1      30.722 -13.686  31.345  1.00  0.00     0.158 HD
HETATM   36  H9  UNK     1      29.475 -12.896  30.399  1.00  0.00     0.158 HD
ENDBRANCH  10  34
TORSDOF 6
ENDMDL
