MODEL 1
REMARK VINA RESULT:      -8.5      0.000      0.000
REMARK  5 active torsions:
REMARK  status: ('A' for Active; 'I' for Inactive)
REMARK    1  A    between atoms: C13_19  and  O2_3 
REMARK    2  A    between atoms: C5_11  and  O2_3 
REMARK    3  A    between atoms: C7_13  and  N1_6 
REMARK       I    between atoms: C8_14  and  N1_6 
REMARK    4  A    between atoms: C3_9  and  C8_14 
REMARK    5  A    between atoms: C12_18  and  C7_13 
ROOT
HETATM    1  O1  UNK     1      18.880   0.390  32.292  1.00  0.00    -0.271 OA
HETATM    2  O4  UNK     1      17.973   2.480  32.474  1.00  0.00    -0.259 OA
HETATM    3  C1  UNK     1      19.912  -0.292  30.199  1.00  0.00     0.002 A 
HETATM    4  C2  UNK     1      19.550  -0.573  31.513  1.00  0.00     0.123 A 
HETATM    5  C3  UNK     1      18.950   1.924  30.388  1.00  0.00     0.108 A 
HETATM    6  C4  UNK     1      19.587   1.013  29.643  1.00  0.00     0.037 A 
HETATM    7  C5  UNK     1      19.832  -1.802  32.105  1.00  0.00     0.103 A 
HETATM    8  C6  UNK     1      20.577  -1.272  29.459  1.00  0.00     0.014 A 
HETATM    9  C9  UNK     1      18.557   1.647  31.788  1.00  0.00     0.304 A 
HETATM   10  C10 UNK     1      20.495  -2.774  31.359  1.00  0.00     0.040 A 
HETATM   11  C11 UNK     1      20.867  -2.510  30.039  1.00  0.00     0.004 A 
ENDROOT
BRANCH   5  12
HETATM   12  C8  UNK     1      18.667   3.210  29.739  1.00  0.00     0.258 C 
HETATM   13  O3  UNK     1      18.085   3.255  28.657  1.00  0.00    -0.267 OA
HETATM   14  N1  UNK     1      19.120   4.293  30.469  1.00  0.00    -0.352 N 
HETATM   15  H7  UNK     1      19.607   4.149  31.349  1.00  0.00     0.163 HD
BRANCH  14  16
HETATM   16  C7  UNK     1      18.958   5.661  30.032  1.00  0.00     0.169 C 
BRANCH  16  17
HETATM   17  C12 UNK     1      18.464   6.549  31.136  1.00  0.00     0.000 A 
HETATM   18  S1  UNK     1      19.382   6.670  32.564  1.00  0.00    -0.105 SA
HETATM   19  C17 UNK     1      18.248   7.761  33.241  1.00  0.00     0.050 A 
HETATM   20  C15 UNK     1      17.199   8.015  32.384  1.00  0.00     0.008 A 
HETATM   21  C14 UNK     1      17.329   7.305  31.155  1.00  0.00     0.017 A 
ENDBRANCH  16  17
ENDBRANCH  14  16
ENDBRANCH   5  12
BRANCH   7  22
HETATM   22  O2  UNK     1      19.472  -2.063  33.390  1.00  0.00    -0.349 OA
BRANCH  22  23
HETATM   23  C13 UNK     1      20.501  -2.509  34.275  1.00  0.00     0.171 C 
HETATM   24  C16 UNK     1      20.153  -2.089  35.686  1.00  0.00     0.034 C 
ENDBRANCH  22  23
ENDBRANCH   7  22
TORSDOF 5
ENDMDL
MODEL 2
REMARK VINA RESULT:      -8.2      4.421      8.928
REMARK  5 active torsions:
REMARK  status: ('A' for Active; 'I' for Inactive)
REMARK    1  A    between atoms: C13_19  and  O2_3 
REMARK    2  A    between atoms: C5_11  and  O2_3 
REMARK    3  A    between atoms: C7_13  and  N1_6 
REMARK       I    between atoms: C8_14  and  N1_6 
REMARK    4  A    between atoms: C3_9  and  C8_14 
REMARK    5  A    between atoms: C12_18  and  C7_13 
ROOT
HETATM    1  O1  UNK     1      18.860  -0.199  33.094  1.00  0.00    -0.271 OA
HETATM    2  O4  UNK     1      18.572  -0.561  35.332  1.00  0.00    -0.259 OA
HETATM    3  C1  UNK     1      20.266  -1.706  31.806  1.00  0.00     0.002 A 
HETATM    4  C2  UNK     1      19.441  -0.588  31.872  1.00  0.00     0.123 A 
HETATM    5  C3  UNK     1      19.965  -2.093  34.178  1.00  0.00     0.108 A 
HETATM    6  C4  UNK     1      20.519  -2.467  33.020  1.00  0.00     0.037 A 
HETATM    7  C5  UNK     1      19.159   0.183  30.747  1.00  0.00     0.103 A 
HETATM    8  C6  UNK     1      20.823  -2.061  30.575  1.00  0.00     0.014 A 
HETATM    9  C9  UNK     1      19.083  -0.908  34.272  1.00  0.00     0.304 A 
HETATM   10  C10 UNK     1      19.718  -0.178  29.523  1.00  0.00     0.040 A 
HETATM   11  C11 UNK     1      20.548  -1.297  29.436  1.00  0.00     0.004 A 
ENDROOT
BRANCH   5  12
HETATM   12  C8  UNK     1      20.279  -2.924  35.347  1.00  0.00     0.258 C 
HETATM   13  O3  UNK     1      21.278  -2.700  36.029  1.00  0.00    -0.267 OA
HETATM   14  N1  UNK     1      19.355  -3.930  35.557  1.00  0.00    -0.352 N 
HETATM   15  H7  UNK     1      18.570  -4.043  34.923  1.00  0.00     0.163 HD
BRANCH  14  16
HETATM   16  C7  UNK     1      19.455  -4.877  36.645  1.00  0.00     0.169 C 
BRANCH  16  17
HETATM   17  C12 UNK     1      20.123  -6.152  36.220  1.00  0.00     0.000 A 
HETATM   18  S1  UNK     1      21.180  -6.925  37.307  1.00  0.00    -0.105 SA
HETATM   19  C17 UNK     1      21.486  -8.172  36.174  1.00  0.00     0.050 A 
HETATM   20  C15 UNK     1      20.791  -7.987  34.999  1.00  0.00     0.008 A 
HETATM   21  C14 UNK     1      19.995  -6.805  35.030  1.00  0.00     0.017 A 
ENDBRANCH  16  17
ENDBRANCH  14  16
ENDBRANCH   5  12
BRANCH   7  22
HETATM   22  O2  UNK     1      18.350   1.274  30.826  1.00  0.00    -0.349 OA
BRANCH  22  23
HETATM   23  C13 UNK     1      18.400   2.201  29.741  1.00  0.00     0.171 C 
HETATM   24  C16 UNK     1      18.767   3.567  30.277  1.00  0.00     0.034 C 
ENDBRANCH  22  23
ENDBRANCH   7  22
TORSDOF 5
ENDMDL
MODEL 3
REMARK VINA RESULT:      -7.9      2.574      4.081
REMARK  5 active torsions:
REMARK  status: ('A' for Active; 'I' for Inactive)
REMARK    1  A    between atoms: C13_19  and  O2_3 
REMARK    2  A    between atoms: C5_11  and  O2_3 
REMARK    3  A    between atoms: C7_13  and  N1_6 
REMARK       I    between atoms: C8_14  and  N1_6 
REMARK    4  A    between atoms: C3_9  and  C8_14 
REMARK    5  A    between atoms: C12_18  and  C7_13 
ROOT
HETATM    1  O1  UNK     1      18.214   1.763  32.244  1.00  0.00    -0.271 OA
HETATM    2  O4  UNK     1      18.152   3.478  30.735  1.00  0.00    -0.259 OA
HETATM    3  C1  UNK     1      18.344   2.259  34.620  1.00  0.00     0.002 A 
HETATM    4  C2  UNK     1      18.280   1.334  33.584  1.00  0.00     0.123 A 
HETATM    5  C3  UNK     1      18.280   4.081  33.023  1.00  0.00     0.108 A 
HETATM    6  C4  UNK     1      18.342   3.678  34.298  1.00  0.00     0.037 A 
HETATM    7  C5  UNK     1      18.278  -0.038  33.824  1.00  0.00     0.103 A 
HETATM    8  C6  UNK     1      18.407   1.795  35.936  1.00  0.00     0.014 A 
HETATM    9  C9  UNK     1      18.210   3.114  31.905  1.00  0.00     0.304 A 
HETATM   10  C10 UNK     1      18.342  -0.493  35.140  1.00  0.00     0.040 A 
HETATM   11  C11 UNK     1      18.405   0.421  36.193  1.00  0.00     0.004 A 
ENDROOT
BRANCH   5  12
HETATM   12  C8  UNK     1      18.283   5.531  32.799  1.00  0.00     0.258 C 
HETATM   13  O3  UNK     1      19.196   6.234  33.230  1.00  0.00    -0.267 OA
HETATM   14  N1  UNK     1      17.184   5.968  32.083  1.00  0.00    -0.352 N 
HETATM   15  H7  UNK     1      16.472   5.308  31.785  1.00  0.00     0.163 HD
BRANCH  14  16
HETATM   16  C7  UNK     1      16.967   7.356  31.742  1.00  0.00     0.169 C 
BRANCH  16  17
HETATM   17  C12 UNK     1      16.170   8.074  32.792  1.00  0.00     0.000 A 
HETATM   18  S1  UNK     1      16.962   9.196  33.798  1.00  0.00    -0.105 SA
HETATM   19  C17 UNK     1      15.502   9.531  34.628  1.00  0.00     0.050 A 
HETATM   20  C15 UNK     1      14.446   8.796  34.137  1.00  0.00     0.008 A 
HETATM   21  C14 UNK     1      14.840   7.945  33.064  1.00  0.00     0.017 A 
ENDBRANCH  16  17
ENDBRANCH  14  16
ENDBRANCH   5  12
BRANCH   7  22
HETATM   22  O2  UNK     1      18.215  -0.932  32.801  1.00  0.00    -0.349 OA
BRANCH  22  23
HETATM   23  C13 UNK     1      19.413  -1.643  32.485  1.00  0.00     0.171 C 
HETATM   24  C16 UNK     1      19.951  -1.137  31.164  1.00  0.00     0.034 C 
ENDBRANCH  22  23
ENDBRANCH   7  22
TORSDOF 5
ENDMDL
MODEL 4
REMARK VINA RESULT:      -7.9     15.748     17.975
REMARK  5 active torsions:
REMARK  status: ('A' for Active; 'I' for Inactive)
REMARK    1  A    between atoms: C13_19  and  O2_3 
REMARK    2  A    between atoms: C5_11  and  O2_3 
REMARK    3  A    between atoms: C7_13  and  N1_6 
REMARK       I    between atoms: C8_14  and  N1_6 
REMARK    4  A    between atoms: C3_9  and  C8_14 
REMARK    5  A    between atoms: C12_18  and  C7_13 
ROOT
HETATM    1  O1  UNK     1      19.553  -1.964  12.803  1.00  0.00    -0.271 OA
HETATM    2  O4  UNK     1      19.395  -0.181  14.223  1.00  0.00    -0.259 OA
HETATM    3  C1  UNK     1      18.750  -4.144  13.519  1.00  0.00     0.002 A 
HETATM    4  C2  UNK     1      19.333  -3.332  12.552  1.00  0.00     0.123 A 
HETATM    5  C3  UNK     1      18.582  -2.256  15.029  1.00  0.00     0.108 A 
HETATM    6  C4  UNK     1      18.371  -3.557  14.795  1.00  0.00     0.037 A 
HETATM    7  C5  UNK     1      19.720  -3.832  11.310  1.00  0.00     0.103 A 
HETATM    8  C6  UNK     1      18.548  -5.496  13.232  1.00  0.00     0.014 A 
HETATM    9  C9  UNK     1      19.200  -1.374  14.014  1.00  0.00     0.304 A 
HETATM   10  C10 UNK     1      19.514  -5.182  11.032  1.00  0.00     0.040 A 
HETATM   11  C11 UNK     1      18.929  -6.012  11.990  1.00  0.00     0.004 A 
ENDROOT
BRANCH   5  12
HETATM   12  C8  UNK     1      18.166  -1.757  16.345  1.00  0.00     0.258 C 
HETATM   13  O3  UNK     1      17.063  -2.043  16.808  1.00  0.00    -0.267 OA
HETATM   14  N1  UNK     1      19.126  -0.968  16.949  1.00  0.00    -0.352 N 
HETATM   15  H7  UNK     1      20.003  -0.775  16.475  1.00  0.00     0.163 HD
BRANCH  14  16
HETATM   16  C7  UNK     1      18.943  -0.361  18.249  1.00  0.00     0.169 C 
BRANCH  16  17
HETATM   17  C12 UNK     1      19.204   1.117  18.220  1.00  0.00     0.000 A 
HETATM   18  S1  UNK     1      19.544   1.918  19.682  1.00  0.00    -0.105 SA
HETATM   19  C17 UNK     1      19.703   3.415  18.864  1.00  0.00     0.050 A 
HETATM   20  C15 UNK     1      19.497   3.287  17.508  1.00  0.00     0.008 A 
HETATM   21  C14 UNK     1      19.206   1.943  17.135  1.00  0.00     0.017 A 
ENDBRANCH  16  17
ENDBRANCH  14  16
ENDBRANCH   5  12
BRANCH   7  22
HETATM   22  O2  UNK     1      20.288  -3.027  10.373  1.00  0.00    -0.349 OA
BRANCH  22  23
HETATM   23  C13 UNK     1      20.954  -3.667   9.283  1.00  0.00     0.171 C 
HETATM   24  C16 UNK     1      22.046  -2.755   8.769  1.00  0.00     0.034 C 
ENDBRANCH  22  23
ENDBRANCH   7  22
TORSDOF 5
ENDMDL
MODEL 5
REMARK VINA RESULT:      -7.8      5.347     10.230
REMARK  5 active torsions:
REMARK  status: ('A' for Active; 'I' for Inactive)
REMARK    1  A    between atoms: C13_19  and  O2_3 
REMARK    2  A    between atoms: C5_11  and  O2_3 
REMARK    3  A    between atoms: C7_13  and  N1_6 
REMARK       I    between atoms: C8_14  and  N1_6 
REMARK    4  A    between atoms: C3_9  and  C8_14 
REMARK    5  A    between atoms: C12_18  and  C7_13 
ROOT
HETATM    1  O1  UNK     1      19.479  -0.950  34.754  1.00  0.00    -0.271 OA
HETATM    2  O4  UNK     1      20.549  -2.908  34.261  1.00  0.00    -0.259 OA
HETATM    3  C1  UNK     1      18.385  -0.689  36.909  1.00  0.00     0.002 A 
HETATM    4  C2  UNK     1      18.731  -0.177  35.663  1.00  0.00     0.123 A 
HETATM    5  C3  UNK     1      19.517  -2.768  36.390  1.00  0.00     0.108 A 
HETATM    6  C4  UNK     1      18.807  -2.038  37.257  1.00  0.00     0.037 A 
HETATM    7  C5  UNK     1      18.358   1.106  35.268  1.00  0.00     0.103 A 
HETATM    8  C6  UNK     1      17.644   0.108  37.784  1.00  0.00     0.014 A 
HETATM    9  C9  UNK     1      19.898  -2.242  35.059  1.00  0.00     0.304 A 
HETATM   10  C10 UNK     1      17.619   1.895  36.146  1.00  0.00     0.040 A 
HETATM   11  C11 UNK     1      17.263   1.398  37.402  1.00  0.00     0.004 A 
ENDROOT
BRANCH   5  12
HETATM   12  C8  UNK     1      19.897  -4.115  36.832  1.00  0.00     0.258 C 
HETATM   13  O3  UNK     1      21.033  -4.348  37.240  1.00  0.00    -0.267 OA
HETATM   14  N1  UNK     1      18.862  -5.026  36.729  1.00  0.00    -0.352 N 
HETATM   15  H7  UNK     1      17.961  -4.738  36.362  1.00  0.00     0.163 HD
BRANCH  14  16
HETATM   16  C7  UNK     1      18.998  -6.416  37.103  1.00  0.00     0.169 C 
BRANCH  16  17
HETATM   17  C12 UNK     1      19.840  -7.182  36.124  1.00  0.00     0.000 A 
HETATM   18  S1  UNK     1      20.700  -8.543  36.672  1.00  0.00    -0.105 SA
HETATM   19  C17 UNK     1      21.338  -8.813  35.105  1.00  0.00     0.050 A 
HETATM   20  C15 UNK     1      20.894  -7.875  34.198  1.00  0.00     0.008 A 
HETATM   21  C14 UNK     1      20.019  -6.924  34.797  1.00  0.00     0.017 A 
ENDBRANCH  16  17
ENDBRANCH  14  16
ENDBRANCH   5  12
BRANCH   7  22
HETATM   22  O2  UNK     1      18.704   1.595  34.047  1.00  0.00    -0.349 OA
BRANCH  22  23
HETATM   23  C13 UNK     1      18.252   2.909  33.720  1.00  0.00     0.171 C 
HETATM   24  C16 UNK     1      18.161   3.040  32.216  1.00  0.00     0.034 C 
ENDBRANCH  22  23
ENDBRANCH   7  22
TORSDOF 5
ENDMDL
MODEL 6
REMARK VINA RESULT:      -7.8      2.660      4.233
REMARK  5 active torsions:
REMARK  status: ('A' for Active; 'I' for Inactive)
REMARK    1  A    between atoms: C13_19  and  O2_3 
REMARK    2  A    between atoms: C5_11  and  O2_3 
REMARK    3  A    between atoms: C7_13  and  N1_6 
REMARK       I    between atoms: C8_14  and  N1_6 
REMARK    4  A    between atoms: C3_9  and  C8_14 
REMARK    5  A    between atoms: C12_18  and  C7_13 
ROOT
HETATM    1  O1  UNK     1      18.711  -0.236  34.104  1.00  0.00    -0.271 OA
HETATM    2  O4  UNK     1      18.971   0.376  31.918  1.00  0.00    -0.259 OA
HETATM    3  C1  UNK     1      17.890   1.387  35.716  1.00  0.00     0.002 A 
HETATM    4  C2  UNK     1      18.339   0.105  35.419  1.00  0.00     0.123 A 
HETATM    5  C3  UNK     1      18.165   2.041  33.399  1.00  0.00     0.108 A 
HETATM    6  C4  UNK     1      17.811   2.371  34.646  1.00  0.00     0.037 A 
HETATM    7  C5  UNK     1      18.439  -0.883  36.397  1.00  0.00     0.103 A 
HETATM    8  C6  UNK     1      17.529   1.688  37.031  1.00  0.00     0.014 A 
HETATM    9  C9  UNK     1      18.646   0.683  33.060  1.00  0.00     0.304 A 
HETATM   10  C10 UNK     1      18.078  -0.575  37.706  1.00  0.00     0.040 A 
HETATM   11  C11 UNK     1      17.623   0.707  38.024  1.00  0.00     0.004 A 
ENDROOT
BRANCH   5  12
HETATM   12  C8  UNK     1      18.050   3.100  32.390  1.00  0.00     0.258 C 
HETATM   13  O3  UNK     1      17.545   2.873  31.292  1.00  0.00    -0.267 OA
HETATM   14  N1  UNK     1      18.561   4.311  32.819  1.00  0.00    -0.352 N 
HETATM   15  H7  UNK     1      18.976   4.392  33.743  1.00  0.00     0.163 HD
BRANCH  14  16
HETATM   16  C7  UNK     1      18.562   5.501  31.999  1.00  0.00     0.169 C 
BRANCH  16  17
HETATM   17  C12 UNK     1      18.767   6.745  32.814  1.00  0.00     0.000 A 
HETATM   18  S1  UNK     1      17.535   7.918  32.843  1.00  0.00    -0.105 SA
HETATM   19  C17 UNK     1      18.460   8.912  33.888  1.00  0.00     0.050 A 
HETATM   20  C15 UNK     1      19.677   8.346  34.196  1.00  0.00     0.008 A 
HETATM   21  C14 UNK     1      19.854   7.080  33.566  1.00  0.00     0.017 A 
ENDBRANCH  16  17
ENDBRANCH  14  16
ENDBRANCH   5  12
BRANCH   7  22
HETATM   22  O2  UNK     1      18.880  -2.133  36.092  1.00  0.00    -0.349 OA
BRANCH  22  23
HETATM   23  C13 UNK     1      20.226  -2.451  36.446  1.00  0.00     0.171 C 
HETATM   24  C16 UNK     1      20.255  -3.818  37.094  1.00  0.00     0.034 C 
ENDBRANCH  22  23
ENDBRANCH   7  22
TORSDOF 5
ENDMDL
MODEL 7
REMARK VINA RESULT:      -7.7      5.406     10.382
REMARK  5 active torsions:
REMARK  status: ('A' for Active; 'I' for Inactive)
REMARK    1  A    between atoms: C13_19  and  O2_3 
REMARK    2  A    between atoms: C5_11  and  O2_3 
REMARK    3  A    between atoms: C7_13  and  N1_6 
REMARK       I    between atoms: C8_14  and  N1_6 
REMARK    4  A    between atoms: C3_9  and  C8_14 
REMARK    5  A    between atoms: C12_18  and  C7_13 
ROOT
HETATM    1  O1  UNK     1      19.553  -1.113  34.620  1.00  0.00    -0.271 OA
HETATM    2  O4  UNK     1      20.733  -2.904  33.832  1.00  0.00    -0.259 OA
HETATM    3  C1  UNK     1      18.621  -1.182  36.864  1.00  0.00     0.002 A 
HETATM    4  C2  UNK     1      18.822  -0.511  35.662  1.00  0.00     0.123 A 
HETATM    5  C3  UNK     1      19.871  -3.084  36.033  1.00  0.00     0.108 A 
HETATM    6  C4  UNK     1      19.178  -2.517  37.026  1.00  0.00     0.037 A 
HETATM    7  C5  UNK     1      18.316   0.768  35.443  1.00  0.00     0.103 A 
HETATM    8  C6  UNK     1      17.893  -0.552  37.875  1.00  0.00     0.014 A 
HETATM    9  C9  UNK     1      20.098  -2.388  34.746  1.00  0.00     0.304 A 
HETATM   10  C10 UNK     1      17.590   1.390  36.456  1.00  0.00     0.040 A 
HETATM   11  C11 UNK     1      17.378   0.732  37.670  1.00  0.00     0.004 A 
ENDROOT
BRANCH   5  12
HETATM   12  C8  UNK     1      20.393  -4.431  36.291  1.00  0.00     0.258 C 
HETATM   13  O3  UNK     1      21.365  -4.601  37.026  1.00  0.00    -0.267 OA
HETATM   14  N1  UNK     1      19.685  -5.419  35.632  1.00  0.00    -0.352 N 
HETATM   15  H7  UNK     1      18.904  -5.173  35.031  1.00  0.00     0.163 HD
BRANCH  14  16
HETATM   16  C7  UNK     1      20.013  -6.823  35.731  1.00  0.00     0.169 C 
BRANCH  16  17
HETATM   17  C12 UNK     1      20.134  -7.272  37.158  1.00  0.00     0.000 A 
HETATM   18  S1  UNK     1      21.591  -7.985  37.672  1.00  0.00    -0.105 SA
HETATM   19  C17 UNK     1      20.971  -8.190  39.256  1.00  0.00     0.050 A 
HETATM   20  C15 UNK     1      19.681  -7.721  39.371  1.00  0.00     0.008 A 
HETATM   21  C14 UNK     1      19.195  -7.186  38.143  1.00  0.00     0.017 A 
ENDBRANCH  16  17
ENDBRANCH  14  16
ENDBRANCH   5  12
BRANCH   7  22
HETATM   22  O2  UNK     1      18.520   1.413  34.263  1.00  0.00    -0.349 OA
BRANCH  22  23
HETATM   23  C13 UNK     1      18.270   2.819  34.238  1.00  0.00     0.171 C 
HETATM   24  C16 UNK     1      18.154   3.274  32.800  1.00  0.00     0.034 C 
ENDBRANCH  22  23
ENDBRANCH   7  22
TORSDOF 5
ENDMDL
MODEL 8
REMARK VINA RESULT:      -7.7      4.285      9.018
REMARK  5 active torsions:
REMARK  status: ('A' for Active; 'I' for Inactive)
REMARK    1  A    between atoms: C13_19  and  O2_3 
REMARK    2  A    between atoms: C5_11  and  O2_3 
REMARK    3  A    between atoms: C7_13  and  N1_6 
REMARK       I    between atoms: C8_14  and  N1_6 
REMARK    4  A    between atoms: C3_9  and  C8_14 
REMARK    5  A    between atoms: C12_18  and  C7_13 
ROOT
HETATM    1  O1  UNK     1      16.838   7.912  33.001  1.00  0.00    -0.271 OA
HETATM    2  O4  UNK     1      15.729   6.043  32.293  1.00  0.00    -0.259 OA
HETATM    3  C1  UNK     1      19.138   7.725  33.764  1.00  0.00     0.002 A 
HETATM    4  C2  UNK     1      18.012   8.500  33.509  1.00  0.00     0.123 A 
HETATM    5  C3  UNK     1      17.965   5.741  33.015  1.00  0.00     0.108 A 
HETATM    6  C4  UNK     1      19.083   6.295  33.498  1.00  0.00     0.037 A 
HETATM    7  C5  UNK     1      17.998   9.874  33.742  1.00  0.00     0.103 A 
HETATM    8  C6  UNK     1      20.284   8.345  34.267  1.00  0.00     0.014 A 
HETATM    9  C9  UNK     1      16.756   6.547  32.736  1.00  0.00     0.304 A 
HETATM   10  C10 UNK     1      19.145  10.485  34.244  1.00  0.00     0.040 A 
HETATM   11  C11 UNK     1      20.286   9.723  34.505  1.00  0.00     0.004 A 
ENDROOT
BRANCH   5  12
HETATM   12  C8  UNK     1      18.008   4.293  32.779  1.00  0.00     0.258 C 
HETATM   13  O3  UNK     1      17.880   3.835  31.645  1.00  0.00    -0.267 OA
HETATM   14  N1  UNK     1      18.196   3.564  33.938  1.00  0.00    -0.352 N 
HETATM   15  H7  UNK     1      18.273   4.037  34.834  1.00  0.00     0.163 HD
BRANCH  14  16
HETATM   16  C7  UNK     1      18.269   2.120  33.958  1.00  0.00     0.169 C 
BRANCH  16  17
HETATM   17  C12 UNK     1      17.837   1.554  35.279  1.00  0.00     0.000 A 
HETATM   18  S1  UNK     1      16.601   0.385  35.304  1.00  0.00    -0.105 SA
HETATM   19  C17 UNK     1      16.696   0.272  37.010  1.00  0.00     0.050 A 
HETATM   20  C15 UNK     1      17.653   1.114  37.532  1.00  0.00     0.008 A 
HETATM   21  C14 UNK     1      18.318   1.862  36.517  1.00  0.00     0.017 A 
ENDBRANCH  16  17
ENDBRANCH  14  16
ENDBRANCH   5  12
BRANCH   7  22
HETATM   22  O2  UNK     1      16.890  10.620  33.488  1.00  0.00    -0.349 OA
BRANCH  22  23
HETATM   23  C13 UNK     1      16.226  11.201  34.611  1.00  0.00     0.171 C 
HETATM   24  C16 UNK     1      15.134  10.263  35.077  1.00  0.00     0.034 C 
ENDBRANCH  22  23
ENDBRANCH   7  22
TORSDOF 5
ENDMDL
MODEL 9
REMARK VINA RESULT:      -7.7      6.389      9.337
REMARK  5 active torsions:
REMARK  status: ('A' for Active; 'I' for Inactive)
REMARK    1  A    between atoms: C13_19  and  O2_3 
REMARK    2  A    between atoms: C5_11  and  O2_3 
REMARK    3  A    between atoms: C7_13  and  N1_6 
REMARK       I    between atoms: C8_14  and  N1_6 
REMARK    4  A    between atoms: C3_9  and  C8_14 
REMARK    5  A    between atoms: C12_18  and  C7_13 
ROOT
HETATM    1  O1  UNK     1      19.224  -6.696  37.731  1.00  0.00    -0.271 OA
HETATM    2  O4  UNK     1      18.029  -5.292  36.380  1.00  0.00    -0.259 OA
HETATM    3  C1  UNK     1      21.491  -6.101  38.374  1.00  0.00     0.002 A 
HETATM    4  C2  UNK     1      20.417  -6.982  38.423  1.00  0.00     0.123 A 
HETATM    5  C3  UNK     1      20.229  -4.610  36.941  1.00  0.00     0.108 A 
HETATM    6  C4  UNK     1      21.364  -4.878  37.596  1.00  0.00     0.037 A 
HETATM    7  C5  UNK     1      20.474  -8.170  39.149  1.00  0.00     0.103 A 
HETATM    8  C6  UNK     1      22.657  -6.419  39.075  1.00  0.00     0.014 A 
HETATM    9  C9  UNK     1      19.072  -5.533  36.979  1.00  0.00     0.304 A 
HETATM   10  C10 UNK     1      21.640  -8.480  39.844  1.00  0.00     0.040 A 
HETATM   11  C11 UNK     1      22.730  -7.608  39.808  1.00  0.00     0.004 A 
ENDROOT
BRANCH   5  12
HETATM   12  C8  UNK     1      20.196  -3.353  36.184  1.00  0.00     0.258 C 
HETATM   13  O3  UNK     1      21.230  -2.859  35.737  1.00  0.00    -0.267 OA
HETATM   14  N1  UNK     1      18.921  -2.834  36.057  1.00  0.00    -0.352 N 
HETATM   15  H7  UNK     1      18.131  -3.310  36.480  1.00  0.00     0.163 HD
BRANCH  14  16
HETATM   16  C7  UNK     1      18.639  -1.602  35.356  1.00  0.00     0.169 C 
BRANCH  16  17
HETATM   17  C12 UNK     1      18.290  -0.487  36.298  1.00  0.00     0.000 A 
HETATM   18  S1  UNK     1      18.457   1.121  35.764  1.00  0.00    -0.105 SA
HETATM   19  C17 UNK     1      17.915   1.715  37.277  1.00  0.00     0.050 A 
HETATM   20  C15 UNK     1      17.619   0.697  38.156  1.00  0.00     0.008 A 
HETATM   21  C14 UNK     1      17.839  -0.588  37.581  1.00  0.00     0.017 A 
ENDBRANCH  16  17
ENDBRANCH  14  16
ENDBRANCH   5  12
BRANCH   7  22
HETATM   22  O2  UNK     1      19.415  -9.023  39.188  1.00  0.00    -0.349 OA
BRANCH  22  23
HETATM   23  C13 UNK     1      19.630 -10.349  38.704  1.00  0.00     0.171 C 
HETATM   24  C16 UNK     1      19.384 -10.374  37.211  1.00  0.00     0.034 C 
ENDBRANCH  22  23
ENDBRANCH   7  22
TORSDOF 5
ENDMDL
MODEL 10
REMARK VINA RESULT:      -7.5      6.330      9.151
REMARK  5 active torsions:
REMARK  status: ('A' for Active; 'I' for Inactive)
REMARK    1  A    between atoms: C13_19  and  O2_3 
REMARK    2  A    between atoms: C5_11  and  O2_3 
REMARK    3  A    between atoms: C7_13  and  N1_6 
REMARK       I    between atoms: C8_14  and  N1_6 
REMARK    4  A    between atoms: C3_9  and  C8_14 
REMARK    5  A    between atoms: C12_18  and  C7_13 
ROOT
HETATM    1  O1  UNK     1      20.115  -7.062  35.815  1.00  0.00    -0.271 OA
HETATM    2  O4  UNK     1      20.276  -5.481  34.173  1.00  0.00    -0.259 OA
HETATM    3  C1  UNK     1      20.101  -6.374  38.146  1.00  0.00     0.002 A 
HETATM    4  C2  UNK     1      20.054  -7.379  37.186  1.00  0.00     0.123 A 
HETATM    5  C3  UNK     1      20.274  -4.694  36.409  1.00  0.00     0.108 A 
HETATM    6  C4  UNK     1      20.216  -4.990  37.712  1.00  0.00     0.037 A 
HETATM    7  C5  UNK     1      19.944  -8.723  37.535  1.00  0.00     0.103 A 
HETATM    8  C6  UNK     1      20.037  -6.728  39.496  1.00  0.00     0.014 A 
HETATM    9  C9  UNK     1      20.224  -5.747  35.369  1.00  0.00     0.304 A 
HETATM   10  C10 UNK     1      19.881  -9.067  38.883  1.00  0.00     0.040 A 
HETATM   11  C11 UNK     1      19.926  -8.073  39.862  1.00  0.00     0.004 A 
ENDROOT
BRANCH   5  12
HETATM   12  C8  UNK     1      20.389  -3.271  36.070  1.00  0.00     0.258 C 
HETATM   13  O3  UNK     1      21.393  -2.629  36.374  1.00  0.00    -0.267 OA
HETATM   14  N1  UNK     1      19.278  -2.784  35.406  1.00  0.00    -0.352 N 
HETATM   15  H7  UNK     1      18.488  -3.394  35.216  1.00  0.00     0.163 HD
BRANCH  14  16
HETATM   16  C7  UNK     1      19.159  -1.410  34.972  1.00  0.00     0.169 C 
BRANCH  16  17
HETATM   17  C12 UNK     1      18.593  -0.530  36.048  1.00  0.00     0.000 A 
HETATM   18  S1  UNK     1      18.633   1.158  35.831  1.00  0.00    -0.105 SA
HETATM   19  C17 UNK     1      17.875   1.404  37.347  1.00  0.00     0.050 A 
HETATM   20  C15 UNK     1      17.605   0.216  37.990  1.00  0.00     0.008 A 
HETATM   21  C14 UNK     1      18.026  -0.912  37.228  1.00  0.00     0.017 A 
ENDBRANCH  16  17
ENDBRANCH  14  16
ENDBRANCH   5  12
BRANCH   7  22
HETATM   22  O2  UNK     1      19.899  -9.695  36.585  1.00  0.00    -0.349 OA
BRANCH  22  23
HETATM   23  C13 UNK     1      20.933 -10.680  36.612  1.00  0.00     0.171 C 
HETATM   24  C16 UNK     1      22.152 -10.133  35.903  1.00  0.00     0.034 C 
ENDBRANCH  22  23
ENDBRANCH   7  22
TORSDOF 5
ENDMDL
