MODEL 1
REMARK VINA RESULT:      -7.8      0.000      0.000
REMARK  5 active torsions:
REMARK  status: ('A' for Active; 'I' for Inactive)
REMARK    1  A    between atoms: C5_10  and  O2_2 
REMARK    2  A    between atoms: C8_13  and  O2_2 
REMARK    3  A    between atoms: C14_19  and  O3_3 
REMARK    4  A    between atoms: C15_20  and  O3_3 
REMARK    5  A    between atoms: C14_19  and  C8_13 
ROOT
HETATM    1  O1  UNK     1      19.139   0.004  32.786  1.00  0.00    -0.274 OA
HETATM    2  O4  UNK     1      19.871  -2.057  33.390  1.00  0.00    -0.259 OA
HETATM    3  C1  UNK     1      19.305   0.736  30.472  1.00  0.00     0.005 A 
HETATM    4  C2  UNK     1      19.902  -0.569  30.120  1.00  0.00    -0.037 A 
HETATM    5  C3  UNK     1      18.942   0.976  31.794  1.00  0.00     0.092 A 
HETATM    6  C4  UNK     1      20.118  -1.482  31.091  1.00  0.00     0.020 A 
HETATM    7  C5  UNK     1      18.155   3.191  31.278  1.00  0.00     0.072 A 
HETATM    8  C6  UNK     1      19.083   1.771  29.549  1.00  0.00     0.017 A 
HETATM    9  C7  UNK     1      18.371   2.182  32.210  1.00  0.00     0.075 A 
HETATM   10  C9  UNK     1      18.512   2.985  29.949  1.00  0.00     0.038 A 
HETATM   11  C10 UNK     1      20.224  -0.802  28.666  1.00  0.00     0.050 C 
HETATM   12  C11 UNK     1      19.715  -1.223  32.504  1.00  0.00     0.294 A 
HETATM   13  C12 UNK     1      20.776  -2.822  30.883  1.00  0.00     0.055 C 
ENDROOT
BRANCH   7  14
HETATM   14  O2  UNK     1      17.601   4.371  31.664  1.00  0.00    -0.336 OA
BRANCH  14  15
HETATM   15  C8  UNK     1      18.394   5.223  32.489  1.00  0.00     0.224 C 
HETATM   16  C13 UNK     1      19.387   5.952  31.600  1.00  0.00     0.051 C 
BRANCH  15  17
HETATM   17  C14 UNK     1      17.478   6.194  33.207  1.00  0.00     0.288 C 
HETATM   18  O5  UNK     1      16.363   6.514  32.814  1.00  0.00    -0.262 OA
BRANCH  17  19
HETATM   19  O3  UNK     1      18.074   6.628  34.355  1.00  0.00    -0.320 OA
BRANCH  19  20
HETATM   20  C15 UNK     1      18.125   8.047  34.527  1.00  0.00     0.174 C 
HETATM   21  C16 UNK     1      19.558   8.510  34.382  1.00  0.00     0.034 C 
ENDBRANCH  19  20
ENDBRANCH  17  19
ENDBRANCH  15  17
ENDBRANCH  14  15
ENDBRANCH   7  14
TORSDOF 5
ENDMDL
MODEL 2
REMARK VINA RESULT:      -7.7      1.782      2.815
REMARK  5 active torsions:
REMARK  status: ('A' for Active; 'I' for Inactive)
REMARK    1  A    between atoms: C5_10  and  O2_2 
REMARK    2  A    between atoms: C8_13  and  O2_2 
REMARK    3  A    between atoms: C14_19  and  O3_3 
REMARK    4  A    between atoms: C15_20  and  O3_3 
REMARK    5  A    between atoms: C14_19  and  C8_13 
ROOT
HETATM    1  O1  UNK     1      19.594   0.984  29.472  1.00  0.00    -0.274 OA
HETATM    2  O4  UNK     1      20.524  -0.650  28.200  1.00  0.00    -0.259 OA
HETATM    3  C1  UNK     1      19.063   0.567  31.809  1.00  0.00     0.005 A 
HETATM    4  C2  UNK     1      19.593  -0.805  31.666  1.00  0.00    -0.037 A 
HETATM    5  C3  UNK     1      19.085   1.415  30.705  1.00  0.00     0.092 A 
HETATM    6  C4  UNK     1      20.048  -1.218  30.464  1.00  0.00     0.020 A 
HETATM    7  C5  UNK     1      18.080   3.215  31.946  1.00  0.00     0.072 A 
HETATM    8  C6  UNK     1      18.524   1.079  33.000  1.00  0.00     0.017 A 
HETATM    9  C7  UNK     1      18.605   2.727  30.755  1.00  0.00     0.075 A 
HETATM   10  C9  UNK     1      18.038   2.391  33.067  1.00  0.00     0.038 A 
HETATM   11  C10 UNK     1      19.602  -1.665  32.905  1.00  0.00     0.050 C 
HETATM   12  C11 UNK     1      20.080  -0.300  29.289  1.00  0.00     0.294 A 
HETATM   13  C12 UNK     1      20.554  -2.606  30.165  1.00  0.00     0.055 C 
ENDROOT
BRANCH   7  14
HETATM   14  O2  UNK     1      17.607   4.487  32.015  1.00  0.00    -0.336 OA
BRANCH  14  15
HETATM   15  C8  UNK     1      18.203   5.352  32.982  1.00  0.00     0.224 C 
HETATM   16  C13 UNK     1      19.375   6.059  32.325  1.00  0.00     0.051 C 
BRANCH  15  17
HETATM   17  C14 UNK     1      17.158   6.341  33.459  1.00  0.00     0.288 C 
HETATM   18  O5  UNK     1      17.204   6.937  34.528  1.00  0.00    -0.262 OA
BRANCH  17  19
HETATM   19  O3  UNK     1      16.186   6.478  32.510  1.00  0.00    -0.320 OA
BRANCH  19  20
HETATM   20  C15 UNK     1      15.305   7.591  32.685  1.00  0.00     0.174 C 
HETATM   21  C16 UNK     1      13.919   7.201  32.218  1.00  0.00     0.034 C 
ENDBRANCH  19  20
ENDBRANCH  17  19
ENDBRANCH  15  17
ENDBRANCH  14  15
ENDBRANCH   7  14
TORSDOF 5
ENDMDL
MODEL 3
REMARK VINA RESULT:      -7.7      1.326      2.038
REMARK  5 active torsions:
REMARK  status: ('A' for Active; 'I' for Inactive)
REMARK    1  A    between atoms: C5_10  and  O2_2 
REMARK    2  A    between atoms: C8_13  and  O2_2 
REMARK    3  A    between atoms: C14_19  and  O3_3 
REMARK    4  A    between atoms: C15_20  and  O3_3 
REMARK    5  A    between atoms: C14_19  and  C8_13 
ROOT
HETATM    1  O1  UNK     1      19.309  -0.419  32.923  1.00  0.00    -0.274 OA
HETATM    2  O4  UNK     1      20.139  -2.525  33.080  1.00  0.00    -0.259 OA
HETATM    3  C1  UNK     1      19.223   0.709  30.769  1.00  0.00     0.005 A 
HETATM    4  C2  UNK     1      19.805  -0.492  30.136  1.00  0.00    -0.037 A 
HETATM    5  C3  UNK     1      18.993   0.702  32.142  1.00  0.00     0.092 A 
HETATM    6  C4  UNK     1      20.137  -1.552  30.905  1.00  0.00     0.020 A 
HETATM    7  C5  UNK     1      18.115   2.942  32.104  1.00  0.00     0.072 A 
HETATM    8  C6  UNK     1      18.887   1.879  30.069  1.00  0.00     0.017 A 
HETATM    9  C7  UNK     1      18.445   1.796  32.818  1.00  0.00     0.075 A 
HETATM   10  C9  UNK     1      18.338   2.984  30.731  1.00  0.00     0.038 A 
HETATM   11  C10 UNK     1      19.981  -0.458  28.639  1.00  0.00     0.050 C 
HETATM   12  C11 UNK     1      19.876  -1.557  32.374  1.00  0.00     0.294 A 
HETATM   13  C12 UNK     1      20.795  -2.810  30.400  1.00  0.00     0.055 C 
ENDROOT
BRANCH   7  14
HETATM   14  O2  UNK     1      17.581   4.017  32.743  1.00  0.00    -0.336 OA
BRANCH  14  15
HETATM   15  C8  UNK     1      17.927   5.309  32.245  1.00  0.00     0.224 C 
HETATM   16  C13 UNK     1      16.748   6.237  32.480  1.00  0.00     0.051 C 
BRANCH  15  17
HETATM   17  C14 UNK     1      19.166   5.794  32.971  1.00  0.00     0.288 C 
HETATM   18  O5  UNK     1      19.442   5.518  34.132  1.00  0.00    -0.262 OA
BRANCH  17  19
HETATM   19  O3  UNK     1      19.925   6.553  32.130  1.00  0.00    -0.320 OA
BRANCH  19  20
HETATM   20  C15 UNK     1      20.687   5.827  31.161  1.00  0.00     0.174 C 
HETATM   21  C16 UNK     1      20.030   5.973  29.805  1.00  0.00     0.034 C 
ENDBRANCH  19  20
ENDBRANCH  17  19
ENDBRANCH  15  17
ENDBRANCH  14  15
ENDBRANCH   7  14
TORSDOF 5
ENDMDL
MODEL 4
REMARK VINA RESULT:      -7.7      1.550      7.778
REMARK  5 active torsions:
REMARK  status: ('A' for Active; 'I' for Inactive)
REMARK    1  A    between atoms: C5_10  and  O2_2 
REMARK    2  A    between atoms: C8_13  and  O2_2 
REMARK    3  A    between atoms: C14_19  and  O3_3 
REMARK    4  A    between atoms: C15_20  and  O3_3 
REMARK    5  A    between atoms: C14_19  and  C8_13 
ROOT
HETATM    1  O1  UNK     1      16.092   6.266  32.653  1.00  0.00    -0.274 OA
HETATM    2  O4  UNK     1      14.534   7.477  33.772  1.00  0.00    -0.259 OA
HETATM    3  C1  UNK     1      18.440   6.896  32.752  1.00  0.00     0.005 A 
HETATM    4  C2  UNK     1      18.082   8.019  33.642  1.00  0.00    -0.037 A 
HETATM    5  C3  UNK     1      17.431   6.056  32.290  1.00  0.00     0.092 A 
HETATM    6  C4  UNK     1      16.786   8.231  33.955  1.00  0.00     0.020 A 
HETATM    7  C5  UNK     1      18.988   4.710  31.043  1.00  0.00     0.072 A 
HETATM    8  C6  UNK     1      19.749   6.617  32.327  1.00  0.00     0.017 A 
HETATM    9  C7  UNK     1      17.683   4.970  31.446  1.00  0.00     0.075 A 
HETATM   10  C9  UNK     1      20.020   5.535  31.482  1.00  0.00     0.038 A 
HETATM   11  C10 UNK     1      19.217   8.865  34.163  1.00  0.00     0.050 C 
HETATM   12  C11 UNK     1      15.711   7.319  33.467  1.00  0.00     0.294 A 
HETATM   13  C12 UNK     1      16.278   9.373  34.797  1.00  0.00     0.055 C 
ENDROOT
BRANCH   7  14
HETATM   14  O2  UNK     1      19.254   3.660  30.222  1.00  0.00    -0.336 OA
BRANCH  14  15
HETATM   15  C8  UNK     1      18.341   2.563  30.252  1.00  0.00     0.224 C 
HETATM   16  C13 UNK     1      18.035   2.164  28.819  1.00  0.00     0.051 C 
BRANCH  15  17
HETATM   17  C14 UNK     1      18.977   1.422  31.020  1.00  0.00     0.288 C 
HETATM   18  O5  UNK     1      18.604   1.032  32.119  1.00  0.00    -0.262 OA
BRANCH  17  19
HETATM   19  O3  UNK     1      20.001   0.891  30.291  1.00  0.00    -0.320 OA
BRANCH  19  20
HETATM   20  C15 UNK     1      20.411  -0.427  30.670  1.00  0.00     0.174 C 
HETATM   21  C16 UNK     1      20.388  -1.321  29.449  1.00  0.00     0.034 C 
ENDBRANCH  19  20
ENDBRANCH  17  19
ENDBRANCH  15  17
ENDBRANCH  14  15
ENDBRANCH   7  14
TORSDOF 5
ENDMDL
MODEL 5
REMARK VINA RESULT:      -7.6     22.908     24.835
REMARK  5 active torsions:
REMARK  status: ('A' for Active; 'I' for Inactive)
REMARK    1  A    between atoms: C5_10  and  O2_2 
REMARK    2  A    between atoms: C8_13  and  O2_2 
REMARK    3  A    between atoms: C14_19  and  O3_3 
REMARK    4  A    between atoms: C15_20  and  O3_3 
REMARK    5  A    between atoms: C14_19  and  C8_13 
ROOT
HETATM    1  O1  UNK     1      15.086   5.315   8.709  1.00  0.00    -0.274 OA
HETATM    2  O4  UNK     1      17.307   5.185   9.160  1.00  0.00    -0.259 OA
HETATM    3  C1  UNK     1      13.781   7.207   9.505  1.00  0.00     0.005 A 
HETATM    4  C2  UNK     1      15.004   7.774  10.109  1.00  0.00    -0.037 A 
HETATM    5  C3  UNK     1      13.866   5.996   8.823  1.00  0.00     0.092 A 
HETATM    6  C4  UNK     1      16.165   7.090  10.022  1.00  0.00     0.020 A 
HETATM    7  C5  UNK     1      11.517   6.012   8.303  1.00  0.00     0.072 A 
HETATM    8  C6  UNK     1      12.516   7.812   9.579  1.00  0.00     0.017 A 
HETATM    9  C7  UNK     1      12.758   5.392   8.221  1.00  0.00     0.075 A 
HETATM   10  C9  UNK     1      11.396   7.221   8.983  1.00  0.00     0.038 A 
HETATM   11  C10 UNK     1      14.872   9.115  10.786  1.00  0.00     0.050 C 
HETATM   12  C11 UNK     1      16.252   5.800   9.279  1.00  0.00     0.294 A 
HETATM   13  C12 UNK     1      17.468   7.520  10.646  1.00  0.00     0.055 C 
ENDROOT
BRANCH   7  14
HETATM   14  O2  UNK     1      10.427   5.440   7.726  1.00  0.00    -0.336 OA
BRANCH  14  15
HETATM   15  C8  UNK     1       9.426   6.319   7.212  1.00  0.00     0.224 C 
HETATM   16  C13 UNK     1       9.450   6.227   5.696  1.00  0.00     0.051 C 
BRANCH  15  17
HETATM   17  C14 UNK     1       8.081   5.900   7.770  1.00  0.00     0.288 C 
HETATM   18  O5  UNK     1       7.666   4.748   7.791  1.00  0.00    -0.262 OA
BRANCH  17  19
HETATM   19  O3  UNK     1       7.426   6.992   8.260  1.00  0.00    -0.320 OA
BRANCH  19  20
HETATM   20  C15 UNK     1       7.418   7.119   9.686  1.00  0.00     0.174 C 
HETATM   21  C16 UNK     1       8.123   8.402  10.071  1.00  0.00     0.034 C 
ENDBRANCH  19  20
ENDBRANCH  17  19
ENDBRANCH  15  17
ENDBRANCH  14  15
ENDBRANCH   7  14
TORSDOF 5
ENDMDL
MODEL 6
REMARK VINA RESULT:      -7.6      2.474      8.570
REMARK  5 active torsions:
REMARK  status: ('A' for Active; 'I' for Inactive)
REMARK    1  A    between atoms: C5_10  and  O2_2 
REMARK    2  A    between atoms: C8_13  and  O2_2 
REMARK    3  A    between atoms: C14_19  and  O3_3 
REMARK    4  A    between atoms: C15_20  and  O3_3 
REMARK    5  A    between atoms: C14_19  and  C8_13 
ROOT
HETATM    1  O1  UNK     1      16.402   8.831  33.416  1.00  0.00    -0.274 OA
HETATM    2  O4  UNK     1      15.824  10.975  33.884  1.00  0.00    -0.259 OA
HETATM    3  C1  UNK     1      18.713   8.107  33.639  1.00  0.00     0.005 A 
HETATM    4  C2  UNK     1      19.079   9.468  34.083  1.00  0.00    -0.037 A 
HETATM    5  C3  UNK     1      17.385   7.836  33.323  1.00  0.00     0.092 A 
HETATM    6  C4  UNK     1      18.128  10.426  34.135  1.00  0.00     0.020 A 
HETATM    7  C5  UNK     1      17.882   5.546  32.776  1.00  0.00     0.072 A 
HETATM    8  C6  UNK     1      19.632   7.054  33.505  1.00  0.00     0.017 A 
HETATM    9  C7  UNK     1      16.956   6.576  32.897  1.00  0.00     0.075 A 
HETATM   10  C9  UNK     1      19.219   5.786  33.078  1.00  0.00     0.038 A 
HETATM   11  C10 UNK     1      20.518   9.697  34.470  1.00  0.00     0.050 C 
HETATM   12  C11 UNK     1      16.705  10.125  33.807  1.00  0.00     0.294 A 
HETATM   13  C12 UNK     1      18.375  11.866  34.507  1.00  0.00     0.055 C 
ENDROOT
BRANCH   7  14
HETATM   14  O2  UNK     1      17.484   4.314  32.362  1.00  0.00    -0.336 OA
BRANCH  14  15
HETATM   15  C8  UNK     1      18.506   3.395  31.976  1.00  0.00     0.224 C 
HETATM   16  C13 UNK     1      18.250   2.077  32.685  1.00  0.00     0.051 C 
BRANCH  15  17
HETATM   17  C14 UNK     1      18.466   3.230  30.470  1.00  0.00     0.288 C 
HETATM   18  O5  UNK     1      18.930   4.034  29.671  1.00  0.00    -0.262 OA
BRANCH  17  19
HETATM   19  O3  UNK     1      17.864   2.047  30.153  1.00  0.00    -0.320 OA
BRANCH  19  20
HETATM   20  C15 UNK     1      17.878   1.700  28.765  1.00  0.00     0.174 C 
HETATM   21  C16 UNK     1      18.836   0.547  28.554  1.00  0.00     0.034 C 
ENDBRANCH  19  20
ENDBRANCH  17  19
ENDBRANCH  15  17
ENDBRANCH  14  15
ENDBRANCH   7  14
TORSDOF 5
ENDMDL
MODEL 7
REMARK VINA RESULT:      -7.4      1.868      2.794
REMARK  5 active torsions:
REMARK  status: ('A' for Active; 'I' for Inactive)
REMARK    1  A    between atoms: C5_10  and  O2_2 
REMARK    2  A    between atoms: C8_13  and  O2_2 
REMARK    3  A    between atoms: C14_19  and  O3_3 
REMARK    4  A    between atoms: C15_20  and  O3_3 
REMARK    5  A    between atoms: C14_19  and  C8_13 
ROOT
HETATM    1  O1  UNK     1      18.041   2.429  33.382  1.00  0.00    -0.274 OA
HETATM    2  O4  UNK     1      17.977   0.399  34.394  1.00  0.00    -0.259 OA
HETATM    3  C1  UNK     1      18.812   2.630  31.083  1.00  0.00     0.005 A 
HETATM    4  C2  UNK     1      19.018   1.167  31.043  1.00  0.00    -0.037 A 
HETATM    5  C3  UNK     1      18.328   3.209  32.252  1.00  0.00     0.092 A 
HETATM    6  C4  UNK     1      18.772   0.432  32.149  1.00  0.00     0.020 A 
HETATM    7  C5  UNK     1      18.374   5.416  31.293  1.00  0.00     0.072 A 
HETATM    8  C6  UNK     1      19.083   3.490  30.007  1.00  0.00     0.017 A 
HETATM    9  C7  UNK     1      18.104   4.584  32.374  1.00  0.00     0.075 A 
HETATM   10  C9  UNK     1      18.865   4.869  30.111  1.00  0.00     0.038 A 
HETATM   11  C10 UNK     1      19.488   0.580  29.736  1.00  0.00     0.050 C 
HETATM   12  C11 UNK     1      18.240   1.058  33.394  1.00  0.00     0.294 A 
HETATM   13  C12 UNK     1      18.999  -1.053  32.264  1.00  0.00     0.055 C 
ENDROOT
BRANCH   7  14
HETATM   14  O2  UNK     1      18.163   6.755  31.391  1.00  0.00    -0.336 OA
BRANCH  14  15
HETATM   15  C8  UNK     1      17.345   7.208  32.470  1.00  0.00     0.224 C 
HETATM   16  C13 UNK     1      18.110   8.279  33.227  1.00  0.00     0.051 C 
BRANCH  15  17
HETATM   17  C14 UNK     1      16.050   7.752  31.901  1.00  0.00     0.288 C 
HETATM   18  O5  UNK     1      15.981   8.599  31.019  1.00  0.00    -0.262 OA
BRANCH  17  19
HETATM   19  O3  UNK     1      14.989   7.137  32.500  1.00  0.00    -0.320 OA
BRANCH  19  20
HETATM   20  C15 UNK     1      14.788   7.458  33.879  1.00  0.00     0.174 C 
HETATM   21  C16 UNK     1      14.361   8.906  33.992  1.00  0.00     0.034 C 
ENDBRANCH  19  20
ENDBRANCH  17  19
ENDBRANCH  15  17
ENDBRANCH  14  15
ENDBRANCH   7  14
TORSDOF 5
ENDMDL
MODEL 8
REMARK VINA RESULT:      -7.4     23.136     25.261
REMARK  5 active torsions:
REMARK  status: ('A' for Active; 'I' for Inactive)
REMARK    1  A    between atoms: C5_10  and  O2_2 
REMARK    2  A    between atoms: C8_13  and  O2_2 
REMARK    3  A    between atoms: C14_19  and  O3_3 
REMARK    4  A    between atoms: C15_20  and  O3_3 
REMARK    5  A    between atoms: C14_19  and  C8_13 
ROOT
HETATM    1  O1  UNK     1      13.267   8.981   8.994  1.00  0.00    -0.274 OA
HETATM    2  O4  UNK     1      14.570  10.726   9.630  1.00  0.00    -0.259 OA
HETATM    3  C1  UNK     1      14.154   6.716   9.017  1.00  0.00     0.005 A 
HETATM    4  C2  UNK     1      15.439   7.243   9.518  1.00  0.00    -0.037 A 
HETATM    5  C3  UNK     1      13.110   7.604   8.774  1.00  0.00     0.092 A 
HETATM    6  C4  UNK     1      15.588   8.574   9.692  1.00  0.00     0.020 A 
HETATM    7  C5  UNK     1      11.643   5.838   8.056  1.00  0.00     0.072 A 
HETATM    8  C6  UNK     1      13.911   5.357   8.757  1.00  0.00     0.017 A 
HETATM    9  C7  UNK     1      11.863   7.189   8.301  1.00  0.00     0.075 A 
HETATM   10  C9  UNK     1      12.667   4.923   8.282  1.00  0.00     0.038 A 
HETATM   11  C10 UNK     1      16.519   6.234   9.821  1.00  0.00     0.050 C 
HETATM   12  C11 UNK     1      14.462   9.519   9.443  1.00  0.00     0.294 A 
HETATM   13  C12 UNK     1      16.861   9.248  10.135  1.00  0.00     0.055 C 
ENDROOT
BRANCH   7  14
HETATM   14  O2  UNK     1      10.437   5.414   7.594  1.00  0.00    -0.336 OA
BRANCH  14  15
HETATM   15  C8  UNK     1       9.552   6.407   7.076  1.00  0.00     0.224 C 
HETATM   16  C13 UNK     1       9.488   6.242   5.568  1.00  0.00     0.051 C 
BRANCH  15  17
HETATM   17  C14 UNK     1       8.189   6.222   7.711  1.00  0.00     0.288 C 
HETATM   18  O5  UNK     1       7.393   7.129   7.922  1.00  0.00    -0.262 OA
BRANCH  17  19
HETATM   19  O3  UNK     1       7.982   4.901   7.982  1.00  0.00    -0.320 OA
BRANCH  19  20
HETATM   20  C15 UNK     1       7.379   4.617   9.248  1.00  0.00     0.174 C 
HETATM   21  C16 UNK     1       8.467   4.466  10.290  1.00  0.00     0.034 C 
ENDBRANCH  19  20
ENDBRANCH  17  19
ENDBRANCH  15  17
ENDBRANCH  14  15
ENDBRANCH   7  14
TORSDOF 5
ENDMDL
MODEL 9
REMARK VINA RESULT:      -7.4      2.317      7.601
REMARK  5 active torsions:
REMARK  status: ('A' for Active; 'I' for Inactive)
REMARK    1  A    between atoms: C5_10  and  O2_2 
REMARK    2  A    between atoms: C8_13  and  O2_2 
REMARK    3  A    between atoms: C14_19  and  O3_3 
REMARK    4  A    between atoms: C15_20  and  O3_3 
REMARK    5  A    between atoms: C14_19  and  C8_13 
ROOT
HETATM    1  O1  UNK     1      15.928   6.714  32.887  1.00  0.00    -0.274 OA
HETATM    2  O4  UNK     1      14.341   8.041  33.823  1.00  0.00    -0.259 OA
HETATM    3  C1  UNK     1      18.276   7.335  33.012  1.00  0.00     0.005 A 
HETATM    4  C2  UNK     1      17.898   8.544  33.773  1.00  0.00    -0.037 A 
HETATM    5  C3  UNK     1      17.276   6.461  32.598  1.00  0.00     0.092 A 
HETATM    6  C4  UNK     1      16.593   8.795  34.015  1.00  0.00     0.020 A 
HETATM    7  C5  UNK     1      18.864   4.988  31.549  1.00  0.00     0.072 A 
HETATM    8  C6  UNK     1      19.597   7.008  32.667  1.00  0.00     0.017 A 
HETATM    9  C7  UNK     1      17.548   5.295  31.876  1.00  0.00     0.075 A 
HETATM   10  C9  UNK     1      19.887   5.845  31.943  1.00  0.00     0.038 A 
HETATM   11  C10 UNK     1      19.022   9.430  34.250  1.00  0.00     0.050 C 
HETATM   12  C11 UNK     1      15.528   7.846  33.579  1.00  0.00     0.294 A 
HETATM   13  C12 UNK     1      16.067  10.018  34.720  1.00  0.00     0.055 C 
ENDROOT
BRANCH   7  14
HETATM   14  O2  UNK     1      19.149   3.860  30.847  1.00  0.00    -0.336 OA
BRANCH  14  15
HETATM   15  C8  UNK     1      18.151   2.839  30.822  1.00  0.00     0.224 C 
HETATM   16  C13 UNK     1      18.114   2.249  29.423  1.00  0.00     0.051 C 
BRANCH  15  17
HETATM   17  C14 UNK     1      18.505   1.789  31.856  1.00  0.00     0.288 C 
HETATM   18  O5  UNK     1      19.371   0.935  31.710  1.00  0.00    -0.262 OA
BRANCH  17  19
HETATM   19  O3  UNK     1      17.734   1.961  32.969  1.00  0.00    -0.320 OA
BRANCH  19  20
HETATM   20  C15 UNK     1      18.138   1.216  34.121  1.00  0.00     0.174 C 
HETATM   21  C16 UNK     1      18.572   2.180  35.205  1.00  0.00     0.034 C 
ENDBRANCH  19  20
ENDBRANCH  17  19
ENDBRANCH  15  17
ENDBRANCH  14  15
ENDBRANCH   7  14
TORSDOF 5
ENDMDL
MODEL 10
REMARK VINA RESULT:      -7.3      2.719      9.120
REMARK  5 active torsions:
REMARK  status: ('A' for Active; 'I' for Inactive)
REMARK    1  A    between atoms: C5_10  and  O2_2 
REMARK    2  A    between atoms: C8_13  and  O2_2 
REMARK    3  A    between atoms: C14_19  and  O3_3 
REMARK    4  A    between atoms: C15_20  and  O3_3 
REMARK    5  A    between atoms: C14_19  and  C8_13 
ROOT
HETATM    1  O1  UNK     1      18.450  10.019  33.679  1.00  0.00    -0.274 OA
HETATM    2  O4  UNK     1      18.439  12.197  34.317  1.00  0.00    -0.259 OA
HETATM    3  C1  UNK     1      16.363   8.782  33.503  1.00  0.00     0.005 A 
HETATM    4  C2  UNK     1      15.628   9.998  33.909  1.00  0.00    -0.037 A 
HETATM    5  C3  UNK     1      17.750   8.836  33.400  1.00  0.00     0.092 A 
HETATM    6  C4  UNK     1      16.317  11.120  34.208  1.00  0.00     0.020 A 
HETATM    7  C5  UNK     1      17.889   6.527  32.738  1.00  0.00     0.072 A 
HETATM    8  C6  UNK     1      15.748   7.552  33.217  1.00  0.00     0.017 A 
HETATM    9  C7  UNK     1      18.520   7.733  33.022  1.00  0.00     0.075 A 
HETATM   10  C9  UNK     1      16.503   6.437  32.837  1.00  0.00     0.038 A 
HETATM   11  C10 UNK     1      14.124   9.905  33.949  1.00  0.00     0.050 C 
HETATM   12  C11 UNK     1      17.802  11.175  34.083  1.00  0.00     0.294 A 
HETATM   13  C12 UNK     1      15.700  12.406  34.695  1.00  0.00     0.055 C 
ENDROOT
BRANCH   7  14
HETATM   14  O2  UNK     1      18.620   5.442  32.369  1.00  0.00    -0.336 OA
BRANCH  14  15
HETATM   15  C8  UNK     1      18.568   5.058  30.995  1.00  0.00     0.224 C 
HETATM   16  C13 UNK     1      19.866   5.489  30.334  1.00  0.00     0.051 C 
BRANCH  15  17
HETATM   17  C14 UNK     1      18.380   3.556  30.918  1.00  0.00     0.288 C 
HETATM   18  O5  UNK     1      17.802   2.885  31.763  1.00  0.00    -0.262 OA
BRANCH  17  19
HETATM   19  O3  UNK     1      18.927   3.083  29.760  1.00  0.00    -0.320 OA
BRANCH  19  20
HETATM   20  C15 UNK     1      18.228   1.995  29.147  1.00  0.00     0.174 C 
HETATM   21  C16 UNK     1      19.156   0.802  29.056  1.00  0.00     0.034 C 
ENDBRANCH  19  20
ENDBRANCH  17  19
ENDBRANCH  15  17
ENDBRANCH  14  15
ENDBRANCH   7  14
TORSDOF 5
ENDMDL
