MODEL 1
REMARK VINA RESULT:      -7.8      0.000      0.000
REMARK  3 active torsions:
REMARK  status: ('A' for Active; 'I' for Inactive)
REMARK    1  A    between atoms: C5_10  and  O2_3 
REMARK    2  A    between atoms: C8_13  and  O3_4 
REMARK    3  A    between atoms: C3_8  and  C6_11 
ROOT
HETATM    1  O1  UNK     1      18.828   5.207  29.631  1.00  0.00    -0.321 OA
HETATM    2  O4  UNK     1      17.653   4.694  33.504  1.00  0.00    -0.286 OA
HETATM    3  C1  UNK     1      18.335   3.711  31.477  1.00  0.00     0.082 A 
HETATM    4  C2  UNK     1      18.741   3.946  30.164  1.00  0.00     0.094 A 
HETATM    5  C3  UNK     1      18.075   6.205  31.713  1.00  0.00     0.048 A 
HETATM    6  C4  UNK     1      17.985   4.856  32.338  1.00  0.00     0.200 A 
HETATM    7  C5  UNK     1      18.266   2.404  31.968  1.00  0.00     0.087 A 
HETATM    8  C7  UNK     1      19.079   2.877  29.335  1.00  0.00     0.075 A 
HETATM    9  C8  UNK     1      19.010   1.572  29.822  1.00  0.00     0.073 A 
HETATM   10  C9  UNK     1      18.605   1.336  31.136  1.00  0.00     0.074 A 
HETATM   11  C10 UNK     1      18.481   6.265  30.436  1.00  0.00     0.159 A 
ENDROOT
BRANCH   5  12
HETATM   12  C6  UNK     1      17.717   7.429  32.449  1.00  0.00    -0.020 A 
HETATM   13  C11 UNK     1      16.450   7.993  32.294  1.00  0.00     0.014 A 
HETATM   14  C13 UNK     1      16.111   9.153  32.990  1.00  0.00     0.024 A 
HETATM   15  C15 UNK     1      17.039   9.752  33.842  1.00  0.00     0.034 A 
HETATM   16  C14 UNK     1      18.307   9.191  33.997  1.00  0.00     0.024 A 
HETATM   17 Cl1  UNK     1      16.622  11.184  34.701  1.00  0.00    -0.084 Cl
HETATM   18  C12 UNK     1      18.645   8.030  33.301  1.00  0.00     0.014 A 
ENDBRANCH   5  12
BRANCH   7  19
HETATM   19  O2  UNK     1      17.878   2.117  33.242  1.00  0.00    -0.355 OA
HETATM   20  C16 UNK     1      18.245   0.838  33.757  1.00  0.00     0.210 C 
ENDBRANCH   7  19
BRANCH   9  21
HETATM   21  O3  UNK     1      19.338   0.527  29.013  1.00  0.00    -0.356 OA
HETATM   22  C17 UNK     1      20.485  -0.240  29.376  1.00  0.00     0.210 C 
ENDBRANCH   9  21
TORSDOF 3
ENDMDL
MODEL 2
REMARK VINA RESULT:      -7.5      1.585      2.959
REMARK  3 active torsions:
REMARK  status: ('A' for Active; 'I' for Inactive)
REMARK    1  A    between atoms: C5_10  and  O2_3 
REMARK    2  A    between atoms: C8_13  and  O3_4 
REMARK    3  A    between atoms: C3_8  and  C6_11 
ROOT
HETATM    1  O1  UNK     1      18.333   2.322  34.311  1.00  0.00    -0.321 OA
HETATM    2  O4  UNK     1      18.410   4.565  30.904  1.00  0.00    -0.286 OA
HETATM    3  C1  UNK     1      18.615   2.444  31.905  1.00  0.00     0.082 A 
HETATM    4  C2  UNK     1      18.567   1.727  33.099  1.00  0.00     0.094 A 
HETATM    5  C3  UNK     1      18.173   4.512  33.273  1.00  0.00     0.048 A 
HETATM    6  C4  UNK     1      18.405   3.903  31.934  1.00  0.00     0.200 A 
HETATM    7  C5  UNK     1      18.856   1.783  30.696  1.00  0.00     0.087 A 
HETATM    8  C7  UNK     1      18.760   0.345  33.093  1.00  0.00     0.075 A 
HETATM    9  C8  UNK     1      19.002  -0.316  31.890  1.00  0.00     0.073 A 
HETATM   10  C9  UNK     1      19.050   0.401  30.694  1.00  0.00     0.074 A 
HETATM   11  C10 UNK     1      18.159   3.685  34.329  1.00  0.00     0.159 A 
ENDROOT
BRANCH   5  12
HETATM   12  C6  UNK     1      17.988   5.962  33.448  1.00  0.00    -0.020 A 
HETATM   13  C11 UNK     1      16.751   6.547  33.176  1.00  0.00     0.014 A 
HETATM   14  C13 UNK     1      16.575   7.921  33.341  1.00  0.00     0.024 A 
HETATM   15  C15 UNK     1      17.638   8.713  33.778  1.00  0.00     0.034 A 
HETATM   16  C14 UNK     1      18.876   8.130  34.049  1.00  0.00     0.024 A 
HETATM   17 Cl1  UNK     1      17.422  10.408  33.981  1.00  0.00    -0.084 Cl
HETATM   18  C12 UNK     1      19.051   6.755  33.885  1.00  0.00     0.014 A 
ENDBRANCH   5  12
BRANCH   7  19
HETATM   19  O2  UNK     1      18.911   2.434  29.501  1.00  0.00    -0.355 OA
HETATM   20  C16 UNK     1      17.942   2.068  28.520  1.00  0.00     0.210 C 
ENDBRANCH   7  19
BRANCH   9  21
HETATM   21  O3  UNK     1      19.193  -1.664  31.882  1.00  0.00    -0.356 OA
HETATM   22  C17 UNK     1      20.274  -2.163  31.097  1.00  0.00     0.210 C 
ENDBRANCH   9  21
TORSDOF 3
ENDMDL
MODEL 3
REMARK VINA RESULT:      -7.2      6.592     10.631
REMARK  3 active torsions:
REMARK  status: ('A' for Active; 'I' for Inactive)
REMARK    1  A    between atoms: C5_10  and  O2_3 
REMARK    2  A    between atoms: C8_13  and  O3_4 
REMARK    3  A    between atoms: C3_8  and  C6_11 
ROOT
HETATM    1  O1  UNK     1      19.772  -1.955  33.882  1.00  0.00    -0.321 OA
HETATM    2  O4  UNK     1      18.382  -2.137  37.713  1.00  0.00    -0.286 OA
HETATM    3  C1  UNK     1      18.509  -0.943  35.689  1.00  0.00     0.082 A 
HETATM    4  C2  UNK     1      19.002  -0.938  34.385  1.00  0.00     0.094 A 
HETATM    5  C3  UNK     1      19.675  -3.154  35.991  1.00  0.00     0.048 A 
HETATM    6  C4  UNK     1      18.820  -2.082  36.572  1.00  0.00     0.200 A 
HETATM    7  C5  UNK     1      17.726   0.121  36.149  1.00  0.00     0.087 A 
HETATM    8  C7  UNK     1      18.716   0.128  33.533  1.00  0.00     0.075 A 
HETATM    9  C8  UNK     1      17.937   1.191  33.989  1.00  0.00     0.073 A 
HETATM   10  C9  UNK     1      17.443   1.187  35.294  1.00  0.00     0.074 A 
HETATM   11  C10 UNK     1      20.072  -3.002  34.719  1.00  0.00     0.159 A 
ENDROOT
BRANCH   5  12
HETATM   12  C6  UNK     1      20.093  -4.328  36.776  1.00  0.00    -0.020 A 
HETATM   13  C11 UNK     1      21.282  -4.295  37.506  1.00  0.00     0.014 A 
HETATM   14  C13 UNK     1      21.678  -5.407  38.249  1.00  0.00     0.024 A 
HETATM   15  C15 UNK     1      20.885  -6.554  38.263  1.00  0.00     0.034 A 
HETATM   16  C14 UNK     1      19.696  -6.590  37.535  1.00  0.00     0.024 A 
HETATM   17 Cl1  UNK     1      21.374  -7.927  39.180  1.00  0.00    -0.084 Cl
HETATM   18  C12 UNK     1      19.300  -5.477  36.792  1.00  0.00     0.014 A 
ENDBRANCH   5  12
BRANCH   7  19
HETATM   19  O2  UNK     1      17.218   0.168  37.411  1.00  0.00    -0.355 OA
HETATM   20  C16 UNK     1      17.556   1.305  38.204  1.00  0.00     0.210 C 
ENDBRANCH   7  19
BRANCH   9  21
HETATM   21  O3  UNK     1      17.658   2.234  33.160  1.00  0.00    -0.356 OA
HETATM   22  C17 UNK     1      18.233   3.498  33.490  1.00  0.00     0.210 C 
ENDBRANCH   9  21
TORSDOF 3
ENDMDL
MODEL 4
REMARK VINA RESULT:      -7.2     15.137     17.058
REMARK  3 active torsions:
REMARK  status: ('A' for Active; 'I' for Inactive)
REMARK    1  A    between atoms: C5_10  and  O2_3 
REMARK    2  A    between atoms: C8_13  and  O3_4 
REMARK    3  A    between atoms: C3_8  and  C6_11 
ROOT
HETATM    1  O1  UNK     1      25.845  -5.100  38.841  1.00  0.00    -0.321 OA
HETATM    2  O4  UNK     1      26.091  -9.168  38.648  1.00  0.00    -0.286 OA
HETATM    3  C1  UNK     1      27.212  -7.099  38.691  1.00  0.00     0.082 A 
HETATM    4  C2  UNK     1      27.069  -5.714  38.769  1.00  0.00     0.094 A 
HETATM    5  C3  UNK     1      24.699  -7.239  38.746  1.00  0.00     0.048 A 
HETATM    6  C4  UNK     1      26.007  -7.948  38.686  1.00  0.00     0.200 A 
HETATM    7  C5  UNK     1      28.486  -7.671  38.621  1.00  0.00     0.087 A 
HETATM    8  C7  UNK     1      28.196  -4.893  38.778  1.00  0.00     0.075 A 
HETATM    9  C8  UNK     1      29.468  -5.461  38.708  1.00  0.00     0.073 A 
HETATM   10  C9  UNK     1      29.613  -6.847  38.630  1.00  0.00     0.074 A 
HETATM   11  C10 UNK     1      24.728  -5.900  38.816  1.00  0.00     0.159 A 
ENDROOT
BRANCH   5  12
HETATM   12  C6  UNK     1      23.418  -7.965  38.709  1.00  0.00    -0.020 A 
HETATM   13  C11 UNK     1      22.935  -8.473  37.502  1.00  0.00     0.014 A 
HETATM   14  C13 UNK     1      21.722  -9.159  37.468  1.00  0.00     0.024 A 
HETATM   15  C15 UNK     1      20.988  -9.338  38.640  1.00  0.00     0.034 A 
HETATM   16  C14 UNK     1      21.467  -8.830  39.848  1.00  0.00     0.024 A 
HETATM   17 Cl1  UNK     1      19.490 -10.185  38.598  1.00  0.00    -0.084 Cl
HETATM   18  C12 UNK     1      22.682  -8.144  39.882  1.00  0.00     0.014 A 
ENDBRANCH   5  12
BRANCH   7  19
HETATM   19  O2  UNK     1      28.685  -9.016  38.545  1.00  0.00    -0.355 OA
HETATM   20  C16 UNK     1      29.983  -9.457  38.148  1.00  0.00     0.210 C 
ENDBRANCH   7  19
BRANCH   9  21
HETATM   21  O3  UNK     1      30.570  -4.662  38.714  1.00  0.00    -0.356 OA
HETATM   22  C17 UNK     1      31.808  -5.260  38.333  1.00  0.00     0.210 C 
ENDBRANCH   9  21
TORSDOF 3
ENDMDL
MODEL 5
REMARK VINA RESULT:      -7.2      6.573     10.627
REMARK  3 active torsions:
REMARK  status: ('A' for Active; 'I' for Inactive)
REMARK    1  A    between atoms: C5_10  and  O2_3 
REMARK    2  A    between atoms: C8_13  and  O3_4 
REMARK    3  A    between atoms: C3_8  and  C6_11 
ROOT
HETATM    1  O1  UNK     1      18.460  -0.995  36.382  1.00  0.00    -0.321 OA
HETATM    2  O4  UNK     1      20.543  -3.648  34.087  1.00  0.00    -0.286 OA
HETATM    3  C1  UNK     1      19.374  -1.609  34.220  1.00  0.00     0.082 A 
HETATM    4  C2  UNK     1      18.678  -0.735  35.054  1.00  0.00     0.094 A 
HETATM    5  C3  UNK     1      19.625  -3.120  36.219  1.00  0.00     0.048 A 
HETATM    6  C4  UNK     1      19.902  -2.868  34.778  1.00  0.00     0.200 A 
HETATM    7  C5  UNK     1      19.568  -1.291  32.872  1.00  0.00     0.087 A 
HETATM    8  C7  UNK     1      18.173   0.462  34.546  1.00  0.00     0.075 A 
HETATM    9  C8  UNK     1      18.365   0.782  33.203  1.00  0.00     0.073 A 
HETATM   10  C9  UNK     1      19.061  -0.093  32.367  1.00  0.00     0.074 A 
HETATM   11  C10 UNK     1      18.939  -2.180  36.887  1.00  0.00     0.159 A 
ENDROOT
BRANCH   5  12
HETATM   12  C6  UNK     1      20.062  -4.355  36.892  1.00  0.00    -0.020 A 
HETATM   13  C11 UNK     1      19.280  -5.508  36.814  1.00  0.00     0.014 A 
HETATM   14  C13 UNK     1      19.694  -6.678  37.452  1.00  0.00     0.024 A 
HETATM   15  C15 UNK     1      20.890  -6.696  38.170  1.00  0.00     0.034 A 
HETATM   16  C14 UNK     1      21.673  -5.544  38.249  1.00  0.00     0.024 A 
HETATM   17 Cl1  UNK     1      21.400  -8.138  38.957  1.00  0.00    -0.084 Cl
HETATM   18  C12 UNK     1      21.259  -4.374  37.611  1.00  0.00     0.014 A 
ENDBRANCH   5  12
BRANCH   7  19
HETATM   19  O2  UNK     1      20.240  -2.107  32.014  1.00  0.00    -0.355 OA
HETATM   20  C16 UNK     1      20.165  -1.789  30.625  1.00  0.00     0.210 C 
ENDBRANCH   7  19
BRANCH   9  21
HETATM   21  O3  UNK     1      17.871   1.949  32.705  1.00  0.00    -0.356 OA
HETATM   22  C17 UNK     1      18.410   2.405  31.465  1.00  0.00     0.210 C 
ENDBRANCH   9  21
TORSDOF 3
ENDMDL
MODEL 6
REMARK VINA RESULT:      -7.1      3.586      7.945
REMARK  3 active torsions:
REMARK  status: ('A' for Active; 'I' for Inactive)
REMARK    1  A    between atoms: C5_10  and  O2_3 
REMARK    2  A    between atoms: C8_13  and  O3_4 
REMARK    3  A    between atoms: C3_8  and  C6_11 
ROOT
HETATM    1  O1  UNK     1      19.563   8.547  33.682  1.00  0.00    -0.321 OA
HETATM    2  O4  UNK     1      16.100   7.143  32.044  1.00  0.00    -0.286 OA
HETATM    3  C1  UNK     1      17.201   8.857  33.223  1.00  0.00     0.082 A 
HETATM    4  C2  UNK     1      18.414   9.291  33.755  1.00  0.00     0.094 A 
HETATM    5  C3  UNK     1      18.404   6.763  32.509  1.00  0.00     0.048 A 
HETATM    6  C4  UNK     1      17.139   7.547  32.549  1.00  0.00     0.200 A 
HETATM    7  C5  UNK     1      16.060   9.660  33.326  1.00  0.00     0.087 A 
HETATM    8  C7  UNK     1      18.495  10.529  34.394  1.00  0.00     0.075 A 
HETATM    9  C8  UNK     1      17.359  11.331  34.499  1.00  0.00     0.073 A 
HETATM   10  C9  UNK     1      16.144  10.897  33.966  1.00  0.00     0.074 A 
HETATM   11  C10 UNK     1      19.489   7.319  33.070  1.00  0.00     0.159 A 
ENDROOT
BRANCH   5  12
HETATM   12  C6  UNK     1      18.471   5.424  31.902  1.00  0.00    -0.020 A 
HETATM   13  C11 UNK     1      18.901   5.274  30.583  1.00  0.00     0.014 A 
HETATM   14  C13 UNK     1      18.964   4.005  30.007  1.00  0.00     0.024 A 
HETATM   15  C15 UNK     1      18.597   2.883  30.750  1.00  0.00     0.034 A 
HETATM   16  C14 UNK     1      18.167   3.030  32.069  1.00  0.00     0.024 A 
HETATM   17 Cl1  UNK     1      18.674   1.317  30.040  1.00  0.00    -0.084 Cl
HETATM   18  C12 UNK     1      18.104   4.300  32.645  1.00  0.00     0.014 A 
ENDBRANCH   5  12
BRANCH   7  19
HETATM   19  O2  UNK     1      14.851   9.287  32.823  1.00  0.00    -0.355 OA
HETATM   20  C16 UNK     1      13.728  10.094  33.173  1.00  0.00     0.210 C 
ENDBRANCH   7  19
BRANCH   9  21
HETATM   21  O3  UNK     1      17.435  12.538  35.123  1.00  0.00    -0.356 OA
HETATM   22  C17 UNK     1      16.255  13.010  35.771  1.00  0.00     0.210 C 
ENDBRANCH   9  21
TORSDOF 3
ENDMDL
MODEL 7
REMARK VINA RESULT:      -6.9      4.351      8.116
REMARK  3 active torsions:
REMARK  status: ('A' for Active; 'I' for Inactive)
REMARK    1  A    between atoms: C5_10  and  O2_3 
REMARK    2  A    between atoms: C8_13  and  O3_4 
REMARK    3  A    between atoms: C3_8  and  C6_11 
ROOT
HETATM    1  O1  UNK     1      18.418   2.815  35.348  1.00  0.00    -0.321 OA
HETATM    2  O4  UNK     1      18.718  -0.217  32.634  1.00  0.00    -0.286 OA
HETATM    3  C1  UNK     1      18.395   2.080  33.036  1.00  0.00     0.082 A 
HETATM    4  C2  UNK     1      18.311   3.077  34.006  1.00  0.00     0.094 A 
HETATM    5  C3  UNK     1      18.700   0.440  34.923  1.00  0.00     0.048 A 
HETATM    6  C4  UNK     1      18.609   0.683  33.456  1.00  0.00     0.200 A 
HETATM    7  C5  UNK     1      18.280   2.406  31.681  1.00  0.00     0.087 A 
HETATM    8  C7  UNK     1      18.111   4.405  33.629  1.00  0.00     0.075 A 
HETATM    9  C8  UNK     1      17.996   4.733  32.279  1.00  0.00     0.073 A 
HETATM   10  C9  UNK     1      18.080   3.735  31.306  1.00  0.00     0.074 A 
HETATM   11  C10 UNK     1      18.597   1.508  35.729  1.00  0.00     0.159 A 
ENDROOT
BRANCH   5  12
HETATM   12  C6  UNK     1      18.874  -0.912  35.479  1.00  0.00    -0.020 A 
HETATM   13  C11 UNK     1      17.901  -1.453  36.320  1.00  0.00     0.014 A 
HETATM   14  C13 UNK     1      18.066  -2.734  36.848  1.00  0.00     0.024 A 
HETATM   15  C15 UNK     1      19.206  -3.475  36.536  1.00  0.00     0.034 A 
HETATM   16  C14 UNK     1      20.180  -2.936  35.696  1.00  0.00     0.024 A 
HETATM   17 Cl1  UNK     1      19.411  -5.055  37.187  1.00  0.00    -0.084 Cl
HETATM   18  C12 UNK     1      20.015  -1.654  35.168  1.00  0.00     0.014 A 
ENDBRANCH   5  12
BRANCH   7  19
HETATM   19  O2  UNK     1      18.356   1.473  30.691  1.00  0.00    -0.355 OA
HETATM   20  C16 UNK     1      18.234   1.942  29.349  1.00  0.00     0.210 C 
ENDBRANCH   7  19
BRANCH   9  21
HETATM   21  O3  UNK     1      17.799   6.028  31.908  1.00  0.00    -0.356 OA
HETATM   22  C17 UNK     1      16.605   6.660  32.366  1.00  0.00     0.210 C 
ENDBRANCH   9  21
TORSDOF 3
ENDMDL
MODEL 8
REMARK VINA RESULT:      -6.9     15.491     17.342
REMARK  3 active torsions:
REMARK  status: ('A' for Active; 'I' for Inactive)
REMARK    1  A    between atoms: C5_10  and  O2_3 
REMARK    2  A    between atoms: C8_13  and  O3_4 
REMARK    3  A    between atoms: C3_8  and  C6_11 
ROOT
HETATM    1  O1  UNK     1      27.617  -9.719  37.927  1.00  0.00    -0.321 OA
HETATM    2  O4  UNK     1      26.058  -6.036  38.733  1.00  0.00    -0.286 OA
HETATM    3  C1  UNK     1      27.972  -7.375  38.440  1.00  0.00     0.082 A 
HETATM    4  C2  UNK     1      28.449  -8.652  38.150  1.00  0.00     0.094 A 
HETATM    5  C3  UNK     1      25.651  -8.338  38.281  1.00  0.00     0.048 A 
HETATM    6  C4  UNK     1      26.517  -7.149  38.510  1.00  0.00     0.200 A 
HETATM    7  C5  UNK     1      28.867  -6.322  38.657  1.00  0.00     0.087 A 
HETATM    8  C7  UNK     1      29.822  -8.886  38.076  1.00  0.00     0.075 A 
HETATM    9  C8  UNK     1      30.717  -7.839  38.292  1.00  0.00     0.073 A 
HETATM   10  C9  UNK     1      30.240  -6.560  38.582  1.00  0.00     0.074 A 
HETATM   11  C10 UNK     1      26.264  -9.502  38.015  1.00  0.00     0.159 A 
ENDROOT
BRANCH   5  12
HETATM   12  C6  UNK     1      24.183  -8.260  38.361  1.00  0.00    -0.020 A 
HETATM   13  C11 UNK     1      23.400  -8.657  37.276  1.00  0.00     0.014 A 
HETATM   14  C13 UNK     1      22.010  -8.582  37.352  1.00  0.00     0.024 A 
HETATM   15  C15 UNK     1      21.399  -8.110  38.514  1.00  0.00     0.034 A 
HETATM   16  C14 UNK     1      22.178  -7.712  39.599  1.00  0.00     0.024 A 
HETATM   17 Cl1  UNK     1      19.682  -8.017  38.607  1.00  0.00    -0.084 Cl
HETATM   18  C12 UNK     1      23.570  -7.788  39.524  1.00  0.00     0.014 A 
ENDBRANCH   5  12
BRANCH   7  19
HETATM   19  O2  UNK     1      28.457  -5.055  38.941  1.00  0.00    -0.355 OA
HETATM   20  C16 UNK     1      29.475  -4.079  39.160  1.00  0.00     0.210 C 
ENDBRANCH   7  19
BRANCH   9  21
HETATM   21  O3  UNK     1      32.057  -8.065  38.222  1.00  0.00    -0.356 OA
HETATM   22  C17 UNK     1      32.600  -8.357  36.936  1.00  0.00     0.210 C 
ENDBRANCH   9  21
TORSDOF 3
ENDMDL
MODEL 9
REMARK VINA RESULT:      -6.8     22.859     24.336
REMARK  3 active torsions:
REMARK  status: ('A' for Active; 'I' for Inactive)
REMARK    1  A    between atoms: C5_10  and  O2_3 
REMARK    2  A    between atoms: C8_13  and  O3_4 
REMARK    3  A    between atoms: C3_8  and  C6_11 
ROOT
HETATM    1  O1  UNK     1      12.688   6.387   7.537  1.00  0.00    -0.321 OA
HETATM    2  O4  UNK     1      12.265   9.647   9.953  1.00  0.00    -0.286 OA
HETATM    3  C1  UNK     1      11.253   7.818   8.871  1.00  0.00     0.082 A 
HETATM    4  C2  UNK     1      11.458   6.711   8.049  1.00  0.00     0.094 A 
HETATM    5  C3  UNK     1      13.711   8.306   8.618  1.00  0.00     0.048 A 
HETATM    6  C4  UNK     1      12.398   8.683   9.212  1.00  0.00     0.200 A 
HETATM    7  C5  UNK     1       9.976   8.100   9.366  1.00  0.00     0.087 A 
HETATM    8  C7  UNK     1      10.389   5.879   7.717  1.00  0.00     0.075 A 
HETATM    9  C8  UNK     1       9.114   6.158   8.209  1.00  0.00     0.073 A 
HETATM   10  C9  UNK     1       8.908   7.266   9.032  1.00  0.00     0.074 A 
HETATM   11  C10 UNK     1      13.743   7.211   7.844  1.00  0.00     0.159 A 
ENDROOT
BRANCH   5  12
HETATM   12  C6  UNK     1      14.926   9.105   8.846  1.00  0.00    -0.020 A 
HETATM   13  C11 UNK     1      15.896   8.663   9.747  1.00  0.00     0.014 A 
HETATM   14  C13 UNK     1      17.047   9.421   9.963  1.00  0.00     0.024 A 
HETATM   15  C15 UNK     1      17.230  10.622   9.279  1.00  0.00     0.034 A 
HETATM   16  C14 UNK     1      16.262  11.067   8.378  1.00  0.00     0.024 A 
HETATM   17 Cl1  UNK     1      18.650  11.557   9.546  1.00  0.00    -0.084 Cl
HETATM   18  C12 UNK     1      15.111  10.308   8.162  1.00  0.00     0.014 A 
ENDBRANCH   5  12
BRANCH   7  19
HETATM   19  O2  UNK     1       9.719   9.166  10.174  1.00  0.00    -0.355 OA
HETATM   20  C16 UNK     1       8.367   9.352  10.590  1.00  0.00     0.210 C 
ENDBRANCH   7  19
BRANCH   9  21
HETATM   21  O3  UNK     1       8.069   5.348   7.885  1.00  0.00    -0.356 OA
HETATM   22  C17 UNK     1       7.411   4.676   8.958  1.00  0.00     0.210 C 
ENDBRANCH   9  21
TORSDOF 3
ENDMDL
MODEL 10
REMARK VINA RESULT:      -6.7     16.382     18.081
REMARK  3 active torsions:
REMARK  status: ('A' for Active; 'I' for Inactive)
REMARK    1  A    between atoms: C5_10  and  O2_3 
REMARK    2  A    between atoms: C8_13  and  O3_4 
REMARK    3  A    between atoms: C3_8  and  C6_11 
ROOT
HETATM    1  O1  UNK     1      28.467  -7.092  35.822  1.00  0.00    -0.321 OA
HETATM    2  O4  UNK     1      31.242  -6.333  32.930  1.00  0.00    -0.286 OA
HETATM    3  C1  UNK     1      30.499  -5.961  35.132  1.00  0.00     0.082 A 
HETATM    4  C2  UNK     1      29.527  -6.264  36.084  1.00  0.00     0.094 A 
HETATM    5  C3  UNK     1      29.217  -7.428  33.536  1.00  0.00     0.048 A 
HETATM    6  C4  UNK     1      30.394  -6.551  33.785  1.00  0.00     0.200 A 
HETATM    7  C5  UNK     1      31.561  -5.111  35.456  1.00  0.00     0.087 A 
HETATM    8  C7  UNK     1      29.610  -5.719  37.366  1.00  0.00     0.075 A 
HETATM    9  C8  UNK     1      30.667  -4.870  37.692  1.00  0.00     0.073 A 
HETATM   10  C9  UNK     1      31.641  -4.567  36.739  1.00  0.00     0.074 A 
HETATM   11  C10 UNK     1      28.367  -7.619  34.557  1.00  0.00     0.159 A 
ENDROOT
BRANCH   5  12
HETATM   12  C6  UNK     1      28.970  -8.048  32.224  1.00  0.00    -0.020 A 
HETATM   13  C11 UNK     1      27.939  -7.578  31.409  1.00  0.00     0.014 A 
HETATM   14  C13 UNK     1      27.706  -8.166  30.167  1.00  0.00     0.024 A 
HETATM   15  C15 UNK     1      28.503  -9.227  29.736  1.00  0.00     0.034 A 
HETATM   16  C14 UNK     1      29.534  -9.699  30.548  1.00  0.00     0.024 A 
HETATM   17 Cl1  UNK     1      28.215  -9.953  28.202  1.00  0.00    -0.084 Cl
HETATM   18  C12 UNK     1      29.768  -9.110  31.792  1.00  0.00     0.014 A 
ENDBRANCH   5  12
BRANCH   7  19
HETATM   19  O2  UNK     1      32.538  -4.783  34.566  1.00  0.00    -0.355 OA
HETATM   20  C16 UNK     1      33.783  -4.341  35.106  1.00  0.00     0.210 C 
ENDBRANCH   7  19
BRANCH   9  21
HETATM   21  O3  UNK     1      30.749  -4.336  38.941  1.00  0.00    -0.356 OA
HETATM   22  C17 UNK     1      29.529  -3.910  39.547  1.00  0.00     0.210 C 
ENDBRANCH   9  21
TORSDOF 3
ENDMDL
