MODEL 1
REMARK VINA RESULT:      -8.5      0.000      0.000
REMARK  5 active torsions:
REMARK  status: ('A' for Active; 'I' for Inactive)
REMARK    1  A    between atoms: C16_22  and  O4_4 
REMARK    2  A    between atoms: C20_26  and  O4_4 
REMARK    3  A    between atoms: C7_13  and  N1_5 
REMARK    4  A    between atoms: C1_7  and  C4_10 
REMARK    5  A    between atoms: C20_26  and  C21_27 
ROOT
HETATM    1  O1  UNK     1      16.874   8.204   9.754  1.00  0.00    -0.291 OA
HETATM    2  O2  UNK     1      13.626  10.389  11.232  1.00  0.00    -0.274 OA
HETATM    3  O3  UNK     1      12.406   8.470  11.398  1.00  0.00    -0.259 OA
HETATM    4  N2  UNK     1      15.850   3.501   9.935  1.00  0.00    -0.191 NA
HETATM    5  C1  UNK     1      14.444   6.769  10.283  1.00  0.00     0.108 C 
HETATM    6  C2  UNK     1      14.603   8.260  10.511  1.00  0.00     0.066 A 
HETATM    7  C3  UNK     1      15.762   8.875  10.234  1.00  0.00     0.104 A 
HETATM    8  C5  UNK     1      15.773   6.091   9.959  1.00  0.00     0.086 C 
HETATM    9  C6  UNK     1      15.919  10.315  10.421  1.00  0.00     0.033 A 
HETATM   10  C7  UNK     1      16.890   6.811   9.709  1.00  0.00     0.159 C 
HETATM   11  C8  UNK     1      13.456   9.018  11.078  1.00  0.00     0.298 A 
HETATM   12  C9  UNK     1      14.834  11.037  10.913  1.00  0.00     0.092 A 
HETATM   13  C12 UNK     1      17.096  11.012  10.128  1.00  0.00     0.017 A 
HETATM   14  C15 UNK     1      14.892  12.414  11.117  1.00  0.00     0.038 A 
HETATM   15  C17 UNK     1      15.815   4.661   9.946  1.00  0.00     0.100 C 
HETATM   16  C18 UNK     1      17.171  12.394  10.328  1.00  0.00     0.001 A 
HETATM   17  C19 UNK     1      16.069  13.094  10.822  1.00  0.00     0.003 A 
ENDROOT
BRANCH   5  18
HETATM   18  C4  UNK     1      13.451   6.507   9.189  1.00  0.00    -0.044 A 
HETATM   19  C10 UNK     1      13.611   7.124   7.953  1.00  0.00     0.011 A 
HETATM   20  C13 UNK     1      12.689   6.880   6.936  1.00  0.00     0.037 A 
HETATM   21  C16 UNK     1      11.612   6.021   7.162  1.00  0.00     0.069 A 
HETATM   22  C14 UNK     1      11.460   5.407   8.404  1.00  0.00     0.037 A 
HETATM   23  C11 UNK     1      12.383   5.650   9.421  1.00  0.00     0.011 A 
BRANCH  21  24
HETATM   24  O4  UNK     1      10.712   5.785   6.169  1.00  0.00    -0.348 OA
BRANCH  24  25
HETATM   25  C20 UNK     1       9.630   6.705   6.040  1.00  0.00     0.202 C 
BRANCH  25  26
HETATM   26  C21 UNK     1       8.517   6.268   6.932  1.00  0.00    -0.011 C 
HETATM   27  C22 UNK     1       7.990   7.029   7.898  1.00  0.00     0.009 C 
ENDBRANCH  25  26
ENDBRANCH  24  25
ENDBRANCH  21  24
ENDBRANCH   5  18
BRANCH  10  28
HETATM   28  N1  UNK     1      18.113   6.286   9.396  1.00  0.00    -0.379 N 
HETATM   29  H10 UNK     1      18.209   5.583   8.673  1.00  0.00     0.158 HD
HETATM   30  H9  UNK     1      18.927   6.612   9.899  1.00  0.00     0.158 HD
ENDBRANCH  10  28
TORSDOF 5
ENDMDL
MODEL 2
REMARK VINA RESULT:      -8.1     31.891     34.496
REMARK  5 active torsions:
REMARK  status: ('A' for Active; 'I' for Inactive)
REMARK    1  A    between atoms: C16_22  and  O4_4 
REMARK    2  A    between atoms: C20_26  and  O4_4 
REMARK    3  A    between atoms: C7_13  and  N1_5 
REMARK    4  A    between atoms: C1_7  and  C4_10 
REMARK    5  A    between atoms: C20_26  and  C21_27 
ROOT
HETATM    1  O1  UNK     1      30.584  -5.265  37.102  1.00  0.00    -0.291 OA
HETATM    2  O2  UNK     1      30.556  -9.448  37.146  1.00  0.00    -0.274 OA
HETATM    3  O3  UNK     1      32.305  -9.478  35.684  1.00  0.00    -0.259 OA
HETATM    4  N2  UNK     1      34.351  -3.719  34.528  1.00  0.00    -0.191 NA
HETATM    5  C1  UNK     1      32.443  -6.618  35.383  1.00  0.00     0.108 C 
HETATM    6  C2  UNK     1      31.466  -7.339  36.293  1.00  0.00     0.066 A 
HETATM    7  C3  UNK     1      30.614  -6.648  37.065  1.00  0.00     0.104 A 
HETATM    8  C5  UNK     1      32.478  -5.116  35.650  1.00  0.00     0.086 C 
HETATM    9  C6  UNK     1      29.649  -7.329  37.923  1.00  0.00     0.033 A 
HETATM   10  C7  UNK     1      31.575  -4.522  36.462  1.00  0.00     0.159 C 
HETATM   11  C8  UNK     1      31.496  -8.824  36.333  1.00  0.00     0.298 A 
HETATM   12  C9  UNK     1      29.644  -8.721  37.934  1.00  0.00     0.092 A 
HETATM   13  C12 UNK     1      28.723  -6.661  38.733  1.00  0.00     0.017 A 
HETATM   14  C15 UNK     1      28.754  -9.454  38.718  1.00  0.00     0.038 A 
HETATM   15  C17 UNK     1      33.513  -4.344  35.031  1.00  0.00     0.100 C 
HETATM   16  C18 UNK     1      27.823  -7.381  39.526  1.00  0.00     0.001 A 
HETATM   17  C19 UNK     1      27.839  -8.776  39.517  1.00  0.00     0.003 A 
ENDROOT
BRANCH   5  18
HETATM   18  C4  UNK     1      32.110  -6.879  33.943  1.00  0.00    -0.044 A 
HETATM   19  C10 UNK     1      30.855  -6.534  33.453  1.00  0.00     0.011 A 
HETATM   20  C13 UNK     1      30.546  -6.775  32.116  1.00  0.00     0.037 A 
HETATM   21  C16 UNK     1      31.495  -7.361  31.276  1.00  0.00     0.069 A 
HETATM   22  C14 UNK     1      32.751  -7.704  31.775  1.00  0.00     0.037 A 
HETATM   23  C11 UNK     1      33.059  -7.462  33.113  1.00  0.00     0.011 A 
BRANCH  21  24
HETATM   24  O4  UNK     1      31.192  -7.597  29.970  1.00  0.00    -0.348 OA
BRANCH  24  25
HETATM   25  C20 UNK     1      29.882  -7.243  29.532  1.00  0.00     0.202 C 
BRANCH  25  26
HETATM   26  C21 UNK     1      29.101  -8.492  29.291  1.00  0.00    -0.011 C 
HETATM   27  C22 UNK     1      27.948  -8.783  29.905  1.00  0.00     0.009 C 
ENDBRANCH  25  26
ENDBRANCH  24  25
ENDBRANCH  21  24
ENDBRANCH   5  18
BRANCH  10  28
HETATM   28  N1  UNK     1      31.525  -3.184  36.741  1.00  0.00    -0.379 N 
HETATM   29  H10 UNK     1      31.372  -2.854  37.685  1.00  0.00     0.158 HD
HETATM   30  H9  UNK     1      31.646  -2.523  35.984  1.00  0.00     0.158 HD
ENDBRANCH  10  28
TORSDOF 5
ENDMDL
MODEL 3
REMARK VINA RESULT:      -7.8     31.172     33.611
REMARK  5 active torsions:
REMARK  status: ('A' for Active; 'I' for Inactive)
REMARK    1  A    between atoms: C16_22  and  O4_4 
REMARK    2  A    between atoms: C20_26  and  O4_4 
REMARK    3  A    between atoms: C7_13  and  N1_5 
REMARK    4  A    between atoms: C1_7  and  C4_10 
REMARK    5  A    between atoms: C20_26  and  C21_27 
ROOT
HETATM    1  O1  UNK     1      32.484  -4.762  35.750  1.00  0.00    -0.291 OA
HETATM    2  O2  UNK     1      29.746  -7.728  36.851  1.00  0.00    -0.274 OA
HETATM    3  O3  UNK     1      30.616  -9.121  35.270  1.00  0.00    -0.259 OA
HETATM    4  N2  UNK     1      35.550  -6.546  32.493  1.00  0.00    -0.191 NA
HETATM    5  C1  UNK     1      32.505  -7.206  34.245  1.00  0.00     0.108 C 
HETATM    6  C2  UNK     1      31.561  -6.944  35.404  1.00  0.00     0.066 A 
HETATM    7  C3  UNK     1      31.594  -5.775  36.061  1.00  0.00     0.104 A 
HETATM    8  C5  UNK     1      33.576  -6.126  34.119  1.00  0.00     0.086 C 
HETATM    9  C6  UNK     1      30.671  -5.498  37.158  1.00  0.00     0.033 A 
HETATM   10  C7  UNK     1      33.518  -4.987  34.844  1.00  0.00     0.159 C 
HETATM   11  C8  UNK     1      30.624  -8.022  35.813  1.00  0.00     0.298 A 
HETATM   12  C9  UNK     1      29.762  -6.490  37.520  1.00  0.00     0.092 A 
HETATM   13  C12 UNK     1      30.645  -4.291  37.865  1.00  0.00     0.017 A 
HETATM   14  C15 UNK     1      28.842  -6.311  38.552  1.00  0.00     0.038 A 
HETATM   15  C17 UNK     1      34.667  -6.359  33.221  1.00  0.00     0.100 C 
HETATM   16  C18 UNK     1      29.728  -4.095  38.903  1.00  0.00     0.001 A 
HETATM   17  C19 UNK     1      28.827  -5.104  39.245  1.00  0.00     0.003 A 
ENDROOT
BRANCH   5  18
HETATM   18  C4  UNK     1      31.739  -7.325  32.960  1.00  0.00    -0.044 A 
HETATM   19  C10 UNK     1      31.827  -8.494  32.212  1.00  0.00     0.011 A 
HETATM   20  C13 UNK     1      31.115  -8.605  31.019  1.00  0.00     0.037 A 
HETATM   21  C16 UNK     1      30.319  -7.546  30.581  1.00  0.00     0.069 A 
HETATM   22  C14 UNK     1      30.236  -6.377  31.337  1.00  0.00     0.037 A 
HETATM   23  C11 UNK     1      30.949  -6.267  32.531  1.00  0.00     0.011 A 
BRANCH  21  24
HETATM   24  O4  UNK     1      29.625  -7.654  29.416  1.00  0.00    -0.348 OA
BRANCH  24  25
HETATM   25  C20 UNK     1      28.708  -8.742  29.304  1.00  0.00     0.202 C 
BRANCH  25  26
HETATM   26  C21 UNK     1      27.564  -8.504  30.233  1.00  0.00    -0.011 C 
HETATM   27  C22 UNK     1      26.817  -7.394  30.227  1.00  0.00     0.009 C 
ENDBRANCH  25  26
ENDBRANCH  24  25
ENDBRANCH  21  24
ENDBRANCH   5  18
BRANCH  10  28
HETATM   28  N1  UNK     1      34.425  -3.965  34.781  1.00  0.00    -0.379 N 
HETATM   29  H10 UNK     1      35.171  -3.972  34.097  1.00  0.00     0.158 HD
HETATM   30  H9  UNK     1      34.337  -3.194  35.431  1.00  0.00     0.158 HD
ENDBRANCH  10  28
TORSDOF 5
ENDMDL
MODEL 4
REMARK VINA RESULT:      -7.7     31.957     34.506
REMARK  5 active torsions:
REMARK  status: ('A' for Active; 'I' for Inactive)
REMARK    1  A    between atoms: C16_22  and  O4_4 
REMARK    2  A    between atoms: C20_26  and  O4_4 
REMARK    3  A    between atoms: C7_13  and  N1_5 
REMARK    4  A    between atoms: C1_7  and  C4_10 
REMARK    5  A    between atoms: C20_26  and  C21_27 
ROOT
HETATM    1  O1  UNK     1      31.042  -5.449  33.557  1.00  0.00    -0.291 OA
HETATM    2  O2  UNK     1      33.117  -8.354  35.739  1.00  0.00    -0.274 OA
HETATM    3  O3  UNK     1      31.516  -9.892  35.220  1.00  0.00    -0.259 OA
HETATM    4  N2  UNK     1      27.299  -7.498  31.324  1.00  0.00    -0.191 NA
HETATM    5  C1  UNK     1      29.843  -8.048  33.774  1.00  0.00     0.108 C 
HETATM    6  C2  UNK     1      31.174  -7.685  34.404  1.00  0.00     0.066 A 
HETATM    7  C3  UNK     1      31.676  -6.448  34.275  1.00  0.00     0.104 A 
HETATM    8  C5  UNK     1      29.331  -6.957  32.838  1.00  0.00     0.086 C 
HETATM    9  C6  UNK     1      32.942  -6.076  34.902  1.00  0.00     0.033 A 
HETATM   10  C7  UNK     1      29.926  -5.744  32.777  1.00  0.00     0.159 C 
HETATM   11  C8  UNK     1      31.923  -8.738  35.139  1.00  0.00     0.298 A 
HETATM   12  C9  UNK     1      33.628  -7.048  35.626  1.00  0.00     0.092 A 
HETATM   13  C12 UNK     1      33.503  -4.797  34.819  1.00  0.00     0.017 A 
HETATM   14  C15 UNK     1      34.840  -6.781  36.262  1.00  0.00     0.038 A 
HETATM   15  C17 UNK     1      28.209  -7.256  32.001  1.00  0.00     0.100 C 
HETATM   16  C18 UNK     1      34.718  -4.513  35.451  1.00  0.00     0.001 A 
HETATM   17  C19 UNK     1      35.385  -5.504  36.171  1.00  0.00     0.003 A 
ENDROOT
BRANCH   5  18
HETATM   18  C4  UNK     1      28.821  -8.338  34.835  1.00  0.00    -0.044 A 
HETATM   19  C10 UNK     1      28.445  -7.335  35.720  1.00  0.00     0.011 A 
HETATM   20  C13 UNK     1      27.495  -7.604  36.705  1.00  0.00     0.037 A 
HETATM   21  C16 UNK     1      26.929  -8.876  36.798  1.00  0.00     0.069 A 
HETATM   22  C14 UNK     1      27.311  -9.876  35.905  1.00  0.00     0.037 A 
HETATM   23  C11 UNK     1      28.261  -9.606  34.920  1.00  0.00     0.011 A 
BRANCH  21  24
HETATM   24  O4  UNK     1      26.002  -9.138  37.759  1.00  0.00    -0.348 OA
BRANCH  24  25
HETATM   25  C20 UNK     1      26.346  -8.800  39.102  1.00  0.00     0.202 C 
BRANCH  25  26
HETATM   26  C21 UNK     1      26.968  -9.990  39.754  1.00  0.00    -0.011 C 
HETATM   27  C22 UNK     1      28.287 -10.159  39.897  1.00  0.00     0.009 C 
ENDBRANCH  25  26
ENDBRANCH  24  25
ENDBRANCH  21  24
ENDBRANCH   5  18
BRANCH  10  28
HETATM   28  N1  UNK     1      29.523  -4.707  31.980  1.00  0.00    -0.379 N 
HETATM   29  H10 UNK     1      30.085  -3.871  31.890  1.00  0.00     0.158 HD
HETATM   30  H9  UNK     1      28.649  -4.790  31.477  1.00  0.00     0.158 HD
ENDBRANCH  10  28
TORSDOF 5
ENDMDL
MODEL 5
REMARK VINA RESULT:      -7.6     32.294     34.982
REMARK  5 active torsions:
REMARK  status: ('A' for Active; 'I' for Inactive)
REMARK    1  A    between atoms: C16_22  and  O4_4 
REMARK    2  A    between atoms: C20_26  and  O4_4 
REMARK    3  A    between atoms: C7_13  and  N1_5 
REMARK    4  A    between atoms: C1_7  and  C4_10 
REMARK    5  A    between atoms: C20_26  and  C21_27 
ROOT
HETATM    1  O1  UNK     1      30.307  -5.307  37.266  1.00  0.00    -0.291 OA
HETATM    2  O2  UNK     1      30.578  -9.475  37.503  1.00  0.00    -0.274 OA
HETATM    3  O3  UNK     1      32.455  -9.430  36.210  1.00  0.00    -0.259 OA
HETATM    4  N2  UNK     1      34.178  -3.582  34.977  1.00  0.00    -0.191 NA
HETATM    5  C1  UNK     1      32.413  -6.582  35.790  1.00  0.00     0.108 C 
HETATM    6  C2  UNK     1      31.409  -7.338  36.639  1.00  0.00     0.066 A 
HETATM    7  C3  UNK     1      30.441  -6.684  37.297  1.00  0.00     0.104 A 
HETATM    8  C5  UNK     1      32.314  -5.072  35.988  1.00  0.00     0.086 C 
HETATM    9  C6  UNK     1      29.450  -7.402  38.095  1.00  0.00     0.033 A 
HETATM   10  C7  UNK     1      31.297  -4.517  36.685  1.00  0.00     0.159 C 
HETATM   11  C8  UNK     1      31.543  -8.814  36.751  1.00  0.00     0.298 A 
HETATM   12  C9  UNK     1      29.545  -8.789  38.170  1.00  0.00     0.092 A 
HETATM   13  C12 UNK     1      28.406  -6.775  38.784  1.00  0.00     0.017 A 
HETATM   14  C15 UNK     1      28.640  -9.556  38.903  1.00  0.00     0.038 A 
HETATM   15  C17 UNK     1      33.344  -4.249  35.430  1.00  0.00     0.100 C 
HETATM   16  C18 UNK     1      27.490  -7.530  39.524  1.00  0.00     0.001 A 
HETATM   17  C19 UNK     1      27.607  -8.918  39.583  1.00  0.00     0.003 A 
ENDROOT
BRANCH   5  18
HETATM   18  C4  UNK     1      32.238  -6.925  34.339  1.00  0.00    -0.044 A 
HETATM   19  C10 UNK     1      33.299  -7.475  33.629  1.00  0.00     0.011 A 
HETATM   20  C13 UNK     1      33.135  -7.795  32.281  1.00  0.00     0.037 A 
HETATM   21  C16 UNK     1      31.912  -7.560  31.653  1.00  0.00     0.069 A 
HETATM   22  C14 UNK     1      30.853  -7.008  32.372  1.00  0.00     0.037 A 
HETATM   23  C11 UNK     1      31.016  -6.689  33.720  1.00  0.00     0.011 A 
BRANCH  21  24
HETATM   24  O4  UNK     1      31.753  -7.871  30.338  1.00  0.00    -0.348 OA
BRANCH  24  25
HETATM   25  C20 UNK     1      32.457  -7.069  29.391  1.00  0.00     0.202 C 
BRANCH  25  26
HETATM   26  C21 UNK     1      33.679  -7.805  28.952  1.00  0.00    -0.011 C 
HETATM   27  C22 UNK     1      34.912  -7.286  28.976  1.00  0.00     0.009 C 
ENDBRANCH  25  26
ENDBRANCH  24  25
ENDBRANCH  21  24
ENDBRANCH   5  18
BRANCH  10  28
HETATM   28  N1  UNK     1      31.125  -3.177  36.896  1.00  0.00    -0.379 N 
HETATM   29  H10 UNK     1      30.218  -2.800  37.140  1.00  0.00     0.158 HD
HETATM   30  H9  UNK     1      31.924  -2.562  36.803  1.00  0.00     0.158 HD
ENDBRANCH  10  28
TORSDOF 5
ENDMDL
MODEL 6
REMARK VINA RESULT:      -7.6     32.371     35.241
REMARK  5 active torsions:
REMARK  status: ('A' for Active; 'I' for Inactive)
REMARK    1  A    between atoms: C16_22  and  O4_4 
REMARK    2  A    between atoms: C20_26  and  O4_4 
REMARK    3  A    between atoms: C7_13  and  N1_5 
REMARK    4  A    between atoms: C1_7  and  C4_10 
REMARK    5  A    between atoms: C20_26  and  C21_27 
ROOT
HETATM    1  O1  UNK     1      28.468  -8.224  34.984  1.00  0.00    -0.291 OA
HETATM    2  O2  UNK     1      29.062  -6.637  38.809  1.00  0.00    -0.274 OA
HETATM    3  O3  UNK     1      30.236  -4.901  37.910  1.00  0.00    -0.259 OA
HETATM    4  N2  UNK     1      30.189  -5.155  31.695  1.00  0.00    -0.191 NA
HETATM    5  C1  UNK     1      30.076  -5.856  35.198  1.00  0.00     0.108 C 
HETATM    6  C2  UNK     1      29.441  -6.548  36.390  1.00  0.00     0.066 A 
HETATM    7  C3  UNK     1      28.709  -7.659  36.224  1.00  0.00     0.104 A 
HETATM    8  C5  UNK     1      29.583  -6.426  33.871  1.00  0.00     0.086 C 
HETATM    9  C6  UNK     1      28.117  -8.352  37.365  1.00  0.00     0.033 A 
HETATM   10  C7  UNK     1      28.834  -7.550  33.821  1.00  0.00     0.159 C 
HETATM   11  C8  UNK     1      29.623  -5.949  37.738  1.00  0.00     0.298 A 
HETATM   12  C9  UNK     1      28.318  -7.819  38.636  1.00  0.00     0.092 A 
HETATM   13  C12 UNK     1      27.362  -9.525  37.255  1.00  0.00     0.017 A 
HETATM   14  C15 UNK     1      27.795  -8.416  39.782  1.00  0.00     0.038 A 
HETATM   15  C17 UNK     1      29.918  -5.723  32.669  1.00  0.00     0.100 C 
HETATM   16  C18 UNK     1      26.830 -10.137  38.395  1.00  0.00     0.001 A 
HETATM   17  C19 UNK     1      27.047  -9.583  39.657  1.00  0.00     0.003 A 
ENDROOT
BRANCH   5  18
HETATM   18  C4  UNK     1      31.573  -5.946  35.274  1.00  0.00    -0.044 A 
HETATM   19  C10 UNK     1      32.339  -4.795  35.132  1.00  0.00     0.011 A 
HETATM   20  C13 UNK     1      33.729  -4.878  35.204  1.00  0.00     0.037 A 
HETATM   21  C16 UNK     1      34.343  -6.113  35.416  1.00  0.00     0.069 A 
HETATM   22  C14 UNK     1      33.567  -7.262  35.558  1.00  0.00     0.037 A 
HETATM   23  C11 UNK     1      32.177  -7.178  35.487  1.00  0.00     0.011 A 
BRANCH  21  24
HETATM   24  O4  UNK     1      35.700  -6.194  35.485  1.00  0.00    -0.348 OA
BRANCH  24  25
HETATM   25  C20 UNK     1      36.327  -7.239  34.742  1.00  0.00     0.202 C 
BRANCH  25  26
HETATM   26  C21 UNK     1      36.341  -6.861  33.298  1.00  0.00    -0.011 C 
HETATM   27  C22 UNK     1      35.848  -7.629  32.320  1.00  0.00     0.009 C 
ENDBRANCH  25  26
ENDBRANCH  24  25
ENDBRANCH  21  24
ENDBRANCH   5  18
BRANCH  10  28
HETATM   28  N1  UNK     1      28.366  -8.135  32.676  1.00  0.00    -0.379 N 
HETATM   29  H10 UNK     1      28.452  -7.670  31.781  1.00  0.00     0.158 HD
HETATM   30  H9  UNK     1      27.930  -9.046  32.738  1.00  0.00     0.158 HD
ENDBRANCH  10  28
TORSDOF 5
ENDMDL
MODEL 7
REMARK VINA RESULT:      -7.5     33.314     36.050
REMARK  5 active torsions:
REMARK  status: ('A' for Active; 'I' for Inactive)
REMARK    1  A    between atoms: C16_22  and  O4_4 
REMARK    2  A    between atoms: C20_26  and  O4_4 
REMARK    3  A    between atoms: C7_13  and  N1_5 
REMARK    4  A    between atoms: C1_7  and  C4_10 
REMARK    5  A    between atoms: C20_26  and  C21_27 
ROOT
HETATM    1  O1  UNK     1      30.784  -6.039  35.279  1.00  0.00    -0.291 OA
HETATM    2  O2  UNK     1      28.868  -9.293  33.476  1.00  0.00    -0.274 OA
HETATM    3  O3  UNK     1      27.554  -9.546  35.322  1.00  0.00    -0.259 OA
HETATM    4  N2  UNK     1      28.609  -5.017  39.453  1.00  0.00    -0.191 NA
HETATM    5  C1  UNK     1      28.802  -7.429  36.822  1.00  0.00     0.108 C 
HETATM    6  C2  UNK     1      29.181  -7.814  35.404  1.00  0.00     0.066 A 
HETATM    7  C3  UNK     1      30.124  -7.130  34.740  1.00  0.00     0.104 A 
HETATM    8  C5  UNK     1      29.425  -6.101  37.245  1.00  0.00     0.086 C 
HETATM    9  C6  UNK     1      30.520  -7.508  33.386  1.00  0.00     0.033 A 
HETATM   10  C7  UNK     1      30.361  -5.488  36.487  1.00  0.00     0.159 C 
HETATM   11  C8  UNK     1      28.462  -8.944  34.759  1.00  0.00     0.298 A 
HETATM   12  C9  UNK     1      29.878  -8.592  32.791  1.00  0.00     0.092 A 
HETATM   13  C12 UNK     1      31.511  -6.846  32.653  1.00  0.00     0.017 A 
HETATM   14  C15 UNK     1      30.195  -9.026  31.505  1.00  0.00     0.038 A 
HETATM   15  C17 UNK     1      28.974  -5.502  38.464  1.00  0.00     0.100 C 
HETATM   16  C18 UNK     1      31.841  -7.269  31.361  1.00  0.00     0.001 A 
HETATM   17  C19 UNK     1      31.183  -8.358  30.788  1.00  0.00     0.003 A 
ENDROOT
BRANCH   5  18
HETATM   18  C4  UNK     1      29.196  -8.512  37.784  1.00  0.00    -0.044 A 
HETATM   19  C10 UNK     1      30.497  -9.003  37.773  1.00  0.00     0.011 A 
HETATM   20  C13 UNK     1      30.863 -10.008  38.667  1.00  0.00     0.037 A 
HETATM   21  C16 UNK     1      29.924 -10.517  39.565  1.00  0.00     0.069 A 
HETATM   22  C14 UNK     1      28.622 -10.020  39.570  1.00  0.00     0.037 A 
HETATM   23  C11 UNK     1      28.256  -9.014  38.676  1.00  0.00     0.011 A 
BRANCH  21  24
HETATM   24  O4  UNK     1      30.282 -11.499  40.437  1.00  0.00    -0.348 OA
BRANCH  24  25
HETATM   25  C20 UNK     1      29.637 -11.505  41.710  1.00  0.00     0.202 C 
BRANCH  25  26
HETATM   26  C21 UNK     1      30.660 -11.759  42.766  1.00  0.00    -0.011 C 
HETATM   27  C22 UNK     1      31.650 -12.650  42.648  1.00  0.00     0.009 C 
ENDBRANCH  25  26
ENDBRANCH  24  25
ENDBRANCH  21  24
ENDBRANCH   5  18
BRANCH  10  28
HETATM   28  N1  UNK     1      30.980  -4.309  36.799  1.00  0.00    -0.379 N 
HETATM   29  H10 UNK     1      31.050  -3.562  36.119  1.00  0.00     0.158 HD
HETATM   30  H9  UNK     1      31.368  -4.192  37.726  1.00  0.00     0.158 HD
ENDBRANCH  10  28
TORSDOF 5
ENDMDL
MODEL 8
REMARK VINA RESULT:      -7.4      3.057      7.296
REMARK  5 active torsions:
REMARK  status: ('A' for Active; 'I' for Inactive)
REMARK    1  A    between atoms: C16_22  and  O4_4 
REMARK    2  A    between atoms: C20_26  and  O4_4 
REMARK    3  A    between atoms: C7_13  and  N1_5 
REMARK    4  A    between atoms: C1_7  and  C4_10 
REMARK    5  A    between atoms: C20_26  and  C21_27 
ROOT
HETATM    1  O1  UNK     1      11.239   8.990  10.169  1.00  0.00    -0.291 OA
HETATM    2  O2  UNK     1      13.268   6.100   7.924  1.00  0.00    -0.274 OA
HETATM    3  O3  UNK     1      15.156   6.472   9.146  1.00  0.00    -0.259 OA
HETATM    4  N2  UNK     1      14.080  10.521  13.744  1.00  0.00    -0.191 NA
HETATM    5  C1  UNK     1      14.024   8.586  10.739  1.00  0.00     0.108 C 
HETATM    6  C2  UNK     1      13.265   7.812   9.678  1.00  0.00     0.066 A 
HETATM    7  C3  UNK     1      11.966   8.055   9.452  1.00  0.00     0.104 A 
HETATM    8  C5  UNK     1      13.097   9.432  11.608  1.00  0.00     0.086 C 
HETATM    9  C6  UNK     1      11.231   7.338   8.413  1.00  0.00     0.033 A 
HETATM   10  C7  UNK     1      11.792   9.599  11.294  1.00  0.00     0.159 C 
HETATM   11  C8  UNK     1      13.986   6.757   8.917  1.00  0.00     0.298 A 
HETATM   12  C9  UNK     1      11.912   6.377   7.669  1.00  0.00     0.092 A 
HETATM   13  C12 UNK     1       9.882   7.565   8.119  1.00  0.00     0.017 A 
HETATM   14  C15 UNK     1      11.292   5.649   6.655  1.00  0.00     0.038 A 
HETATM   15  C17 UNK     1      13.640  10.033  12.788  1.00  0.00     0.100 C 
HETATM   16  C18 UNK     1       9.245   6.843   7.104  1.00  0.00     0.001 A 
HETATM   17  C19 UNK     1       9.950   5.886   6.374  1.00  0.00     0.003 A 
ENDROOT
BRANCH   5  18
HETATM   18  C4  UNK     1      15.072   9.455  10.107  1.00  0.00    -0.044 A 
HETATM   19  C10 UNK     1      14.724  10.305   9.064  1.00  0.00     0.011 A 
HETATM   20  C13 UNK     1      15.698  11.113   8.478  1.00  0.00     0.037 A 
HETATM   21  C16 UNK     1      17.014  11.063   8.939  1.00  0.00     0.069 A 
HETATM   22  C14 UNK     1      17.355  10.207   9.985  1.00  0.00     0.037 A 
HETATM   23  C11 UNK     1      16.380   9.400  10.572  1.00  0.00     0.011 A 
BRANCH  21  24
HETATM   24  O4  UNK     1      17.965  11.850   8.366  1.00  0.00    -0.348 OA
BRANCH  24  25
HETATM   25  C20 UNK     1      17.623  12.493   7.138  1.00  0.00     0.202 C 
BRANCH  25  26
HETATM   26  C21 UNK     1      18.695  12.216   6.136  1.00  0.00    -0.011 C 
HETATM   27  C22 UNK     1      19.080  13.086   5.196  1.00  0.00     0.009 C 
ENDBRANCH  25  26
ENDBRANCH  24  25
ENDBRANCH  21  24
ENDBRANCH   5  18
BRANCH  10  28
HETATM   28  N1  UNK     1      10.899  10.350  12.007  1.00  0.00    -0.379 N 
HETATM   29  H10 UNK     1      10.004   9.970  12.285  1.00  0.00     0.158 HD
HETATM   30  H9  UNK     1      11.150  11.299  12.256  1.00  0.00     0.158 HD
ENDBRANCH  10  28
TORSDOF 5
ENDMDL
MODEL 9
REMARK VINA RESULT:      -7.4     30.700     33.545
REMARK  5 active torsions:
REMARK  status: ('A' for Active; 'I' for Inactive)
REMARK    1  A    between atoms: C16_22  and  O4_4 
REMARK    2  A    between atoms: C20_26  and  O4_4 
REMARK    3  A    between atoms: C7_13  and  N1_5 
REMARK    4  A    between atoms: C1_7  and  C4_10 
REMARK    5  A    between atoms: C20_26  and  C21_27 
ROOT
HETATM    1  O1  UNK     1      31.841  -8.024  31.621  1.00  0.00    -0.291 OA
HETATM    2  O2  UNK     1      27.691  -7.572  31.340  1.00  0.00    -0.274 OA
HETATM    3  O3  UNK     1      27.726  -6.125  33.101  1.00  0.00    -0.259 OA
HETATM    4  N2  UNK     1      33.558  -4.985  34.939  1.00  0.00    -0.191 NA
HETATM    5  C1  UNK     1      30.554  -6.366  33.581  1.00  0.00     0.108 C 
HETATM    6  C2  UNK     1      29.810  -7.076  32.464  1.00  0.00     0.066 A 
HETATM    7  C3  UNK     1      30.468  -7.845  31.586  1.00  0.00     0.104 A 
HETATM    8  C5  UNK     1      32.068  -6.454  33.410  1.00  0.00     0.086 C 
HETATM    9  C6  UNK     1      29.761  -8.557  30.525  1.00  0.00     0.033 A 
HETATM   10  C7  UNK     1      32.628  -7.256  32.477  1.00  0.00     0.159 C 
HETATM   11  C8  UNK     1      28.342  -6.872  32.349  1.00  0.00     0.298 A 
HETATM   12  C9  UNK     1      28.380  -8.403  30.436  1.00  0.00     0.092 A 
HETATM   13  C12 UNK     1      30.392  -9.390  29.594  1.00  0.00     0.017 A 
HETATM   14  C15 UNK     1      27.623  -9.048  29.459  1.00  0.00     0.038 A 
HETATM   15  C17 UNK     1      32.891  -5.642  34.254  1.00  0.00     0.100 C 
HETATM   16  C18 UNK     1      29.647 -10.045  28.607  1.00  0.00     0.001 A 
HETATM   17  C19 UNK     1      28.264  -9.873  28.541  1.00  0.00     0.003 A 
ENDROOT
BRANCH   5  18
HETATM   18  C4  UNK     1      30.153  -6.923  34.916  1.00  0.00    -0.044 A 
HETATM   19  C10 UNK     1      29.658  -6.070  35.896  1.00  0.00     0.011 A 
HETATM   20  C13 UNK     1      29.285  -6.587  37.136  1.00  0.00     0.037 A 
HETATM   21  C16 UNK     1      29.410  -7.954  37.387  1.00  0.00     0.069 A 
HETATM   22  C14 UNK     1      29.906  -8.803  36.398  1.00  0.00     0.037 A 
HETATM   23  C11 UNK     1      30.279  -8.285  35.158  1.00  0.00     0.011 A 
BRANCH  21  24
HETATM   24  O4  UNK     1      29.046  -8.458  38.598  1.00  0.00    -0.348 OA
BRANCH  24  25
HETATM   25  C20 UNK     1      27.936  -7.844  39.251  1.00  0.00     0.202 C 
BRANCH  25  26
HETATM   26  C21 UNK     1      26.921  -8.893  39.563  1.00  0.00    -0.011 C 
HETATM   27  C22 UNK     1      27.223 -10.167  39.837  1.00  0.00     0.009 C 
ENDBRANCH  25  26
ENDBRANCH  24  25
ENDBRANCH  21  24
ENDBRANCH   5  18
BRANCH  10  28
HETATM   28  N1  UNK     1      33.972  -7.405  32.268  1.00  0.00    -0.379 N 
HETATM   29  H10 UNK     1      34.429  -6.960  31.483  1.00  0.00     0.158 HD
HETATM   30  H9  UNK     1      34.506  -7.969  32.916  1.00  0.00     0.158 HD
ENDBRANCH  10  28
TORSDOF 5
ENDMDL
MODEL 10
REMARK VINA RESULT:      -7.3      1.681      2.684
REMARK  5 active torsions:
REMARK  status: ('A' for Active; 'I' for Inactive)
REMARK    1  A    between atoms: C16_22  and  O4_4 
REMARK    2  A    between atoms: C20_26  and  O4_4 
REMARK    3  A    between atoms: C7_13  and  N1_5 
REMARK    4  A    between atoms: C1_7  and  C4_10 
REMARK    5  A    between atoms: C20_26  and  C21_27 
ROOT
HETATM    1  O1  UNK     1      15.966  11.222   9.841  1.00  0.00    -0.291 OA
HETATM    2  O2  UNK     1      12.386  11.165  12.005  1.00  0.00    -0.274 OA
HETATM    3  O3  UNK     1      12.546   8.900  12.215  1.00  0.00    -0.259 OA
HETATM    4  N2  UNK     1      17.886   6.805   9.809  1.00  0.00    -0.191 NA
HETATM    5  C1  UNK     1      14.949   8.662  10.647  1.00  0.00     0.108 C 
HETATM    6  C2  UNK     1      14.259   9.975  10.964  1.00  0.00     0.066 A 
HETATM    7  C3  UNK     1      14.781  11.139  10.550  1.00  0.00     0.104 A 
HETATM    8  C5  UNK     1      16.339   8.870  10.054  1.00  0.00     0.086 C 
HETATM    9  C6  UNK     1      14.112  12.408  10.823  1.00  0.00     0.033 A 
HETATM   10  C7  UNK     1      16.772  10.096   9.681  1.00  0.00     0.159 C 
HETATM   11  C8  UNK     1      13.011   9.945  11.771  1.00  0.00     0.298 A 
HETATM   12  C9  UNK     1      12.920  12.383  11.544  1.00  0.00     0.092 A 
HETATM   13  C12 UNK     1      14.597  13.649  10.397  1.00  0.00     0.017 A 
HETATM   14  C15 UNK     1      12.211  13.544  11.846  1.00  0.00     0.038 A 
HETATM   15  C17 UNK     1      17.194   7.730   9.919  1.00  0.00     0.100 C 
HETATM   16  C18 UNK     1      13.899  14.825  10.692  1.00  0.00     0.001 A 
HETATM   17  C19 UNK     1      12.707  14.771  11.415  1.00  0.00     0.003 A 
ENDROOT
BRANCH   5  18
HETATM   18  C4  UNK     1      14.108   7.839   9.713  1.00  0.00    -0.044 A 
HETATM   19  C10 UNK     1      13.816   6.518  10.034  1.00  0.00     0.011 A 
HETATM   20  C13 UNK     1      13.035   5.755   9.168  1.00  0.00     0.037 A 
HETATM   21  C16 UNK     1      12.552   6.318   7.986  1.00  0.00     0.069 A 
HETATM   22  C14 UNK     1      12.849   7.643   7.672  1.00  0.00     0.037 A 
HETATM   23  C11 UNK     1      13.630   8.407   8.539  1.00  0.00     0.011 A 
BRANCH  21  24
HETATM   24  O4  UNK     1      11.790   5.572   7.140  1.00  0.00    -0.348 OA
BRANCH  24  25
HETATM   25  C20 UNK     1      11.367   6.193   5.927  1.00  0.00     0.202 C 
BRANCH  25  26
HETATM   26  C21 UNK     1       9.876   6.142   5.855  1.00  0.00    -0.011 C 
HETATM   27  C22 UNK     1       9.078   6.122   6.928  1.00  0.00     0.009 C 
ENDBRANCH  25  26
ENDBRANCH  24  25
ENDBRANCH  21  24
ENDBRANCH   5  18
BRANCH  10  28
HETATM   28  N1  UNK     1      17.993  10.367   9.129  1.00  0.00    -0.379 N 
HETATM   29  H10 UNK     1      18.268   9.958   8.246  1.00  0.00     0.158 HD
HETATM   30  H9  UNK     1      18.623  10.990   9.620  1.00  0.00     0.158 HD
ENDBRANCH  10  28
TORSDOF 5
ENDMDL
