MODEL 1
REMARK VINA RESULT:      -7.6      0.000      0.000
REMARK  3 active torsions:
REMARK  status: ('A' for Active; 'I' for Inactive)
REMARK    1  A    between atoms: C1_4  and  C3_6 
REMARK    2  A    between atoms: C2_5  and  C4_7 
REMARK    3  A    between atoms: C3_6  and  C5_8 
ROOT
HETATM    1  O1  UNK     1      17.925   2.723  28.198  1.00  0.00    -0.288 OA
HETATM    2  C3  UNK     1      18.346   2.472  29.322  1.00  0.00     0.182 C 
ENDROOT
BRANCH   2   3
HETATM    3  C1  UNK     1      18.547   3.573  30.294  1.00  0.00     0.014 A 
HETATM    4  C6  UNK     1      18.087   3.419  31.586  1.00  0.00     0.017 A 
HETATM    5  C10 UNK     1      18.278   4.455  32.500  1.00  0.00     0.019 A 
HETATM    6  C14 UNK     1      18.923   5.625  32.103  1.00  0.00     0.006 A 
HETATM    7  C11 UNK     1      19.379   5.760  30.792  1.00  0.00     0.019 A 
HETATM    8  I1  UNK     1      19.205   7.169  33.464  1.00  0.00    -0.045 I 
HETATM    9  C7  UNK     1      19.189   4.724  29.878  1.00  0.00     0.017 A 
ENDBRANCH   2   3
BRANCH   2  10
HETATM   10  C5  UNK     1      18.640   1.084  29.780  1.00  0.00     0.056 C 
HETATM   11  C4  UNK     1      19.905   0.740  30.009  1.00  0.00     0.015 C 
BRANCH  11  12
HETATM   12  C2  UNK     1      20.293  -0.594  30.436  1.00  0.00    -0.036 A 
HETATM   13  C8  UNK     1      20.549  -1.584  29.486  1.00  0.00     0.013 A 
HETATM   14  C12 UNK     1      20.920  -2.864  29.897  1.00  0.00     0.024 A 
HETATM   15  C15 UNK     1      21.036  -3.156  31.256  1.00  0.00     0.034 A 
HETATM   16  C13 UNK     1      20.780  -2.166  32.205  1.00  0.00     0.024 A 
HETATM   17 Cl1  UNK     1      21.494  -4.735  31.762  1.00  0.00    -0.084 Cl
HETATM   18  C9  UNK     1      20.409  -0.885  31.796  1.00  0.00     0.013 A 
ENDBRANCH  11  12
ENDBRANCH   2  10
TORSDOF 3
ENDMDL
MODEL 2
REMARK VINA RESULT:      -7.5      4.334      7.383
REMARK  3 active torsions:
REMARK  status: ('A' for Active; 'I' for Inactive)
REMARK    1  A    between atoms: C1_4  and  C3_6 
REMARK    2  A    between atoms: C2_5  and  C4_7 
REMARK    3  A    between atoms: C3_6  and  C5_8 
ROOT
HETATM    1  O1  UNK     1      18.174   2.484  28.304  1.00  0.00    -0.288 OA
HETATM    2  C3  UNK     1      18.446   2.395  29.496  1.00  0.00     0.182 C 
ENDROOT
BRANCH   2   3
HETATM    3  C1  UNK     1      19.023   1.135  30.024  1.00  0.00     0.014 A 
HETATM    4  C6  UNK     1      18.849   0.827  31.359  1.00  0.00     0.017 A 
HETATM    5  C10 UNK     1      19.391  -0.358  31.855  1.00  0.00     0.019 A 
HETATM    6  C14 UNK     1      20.097  -1.211  31.008  1.00  0.00     0.006 A 
HETATM    7  C11 UNK     1      20.261  -0.879  29.664  1.00  0.00     0.019 A 
HETATM    8  I1  UNK     1      20.905  -2.976  31.748  1.00  0.00    -0.045 I 
HETATM    9  C7  UNK     1      19.719   0.306  29.166  1.00  0.00     0.017 A 
ENDBRANCH   2   3
BRANCH   2  10
HETATM   10  C5  UNK     1      18.252   3.520  30.454  1.00  0.00     0.056 C 
HETATM   11  C4  UNK     1      19.201   4.449  30.551  1.00  0.00     0.015 C 
BRANCH  11  12
HETATM   12  C2  UNK     1      19.112   5.570  31.472  1.00  0.00    -0.036 A 
HETATM   13  C8  UNK     1      17.915   6.276  31.600  1.00  0.00     0.013 A 
HETATM   14  C12 UNK     1      17.831   7.352  32.483  1.00  0.00     0.024 A 
HETATM   15  C15 UNK     1      18.942   7.723  33.240  1.00  0.00     0.034 A 
HETATM   16  C13 UNK     1      20.139   7.018  33.112  1.00  0.00     0.024 A 
HETATM   17 Cl1  UNK     1      18.838   9.049  34.330  1.00  0.00    -0.084 Cl
HETATM   18  C9  UNK     1      20.224   5.941  32.228  1.00  0.00     0.013 A 
ENDBRANCH  11  12
ENDBRANCH   2  10
TORSDOF 3
ENDMDL
MODEL 3
REMARK VINA RESULT:      -6.9      6.349     10.042
REMARK  3 active torsions:
REMARK  status: ('A' for Active; 'I' for Inactive)
REMARK    1  A    between atoms: C1_4  and  C3_6 
REMARK    2  A    between atoms: C2_5  and  C4_7 
REMARK    3  A    between atoms: C3_6  and  C5_8 
ROOT
HETATM    1  O1  UNK     1      20.505   7.334  33.390  1.00  0.00    -0.288 OA
HETATM    2  C3  UNK     1      19.352   6.988  33.155  1.00  0.00     0.182 C 
ENDROOT
BRANCH   2   3
HETATM    3  C1  UNK     1      19.100   5.840  32.251  1.00  0.00     0.014 A 
HETATM    4  C6  UNK     1      18.410   4.746  32.735  1.00  0.00     0.017 A 
HETATM    5  C10 UNK     1      18.172   3.667  31.884  1.00  0.00     0.019 A 
HETATM    6  C14 UNK     1      18.630   3.703  30.567  1.00  0.00     0.006 A 
HETATM    7  C11 UNK     1      19.325   4.818  30.101  1.00  0.00     0.019 A 
HETATM    8  I1  UNK     1      18.276   2.095  29.301  1.00  0.00    -0.045 I 
HETATM    9  C7  UNK     1      19.563   5.898  30.951  1.00  0.00     0.017 A 
ENDBRANCH   2   3
BRANCH   2  10
HETATM   10  C5  UNK     1      18.170   7.655  33.770  1.00  0.00     0.056 C 
HETATM   11  C4  UNK     1      17.836   8.876  33.356  1.00  0.00     0.015 C 
BRANCH  11  12
HETATM   12  C2  UNK     1      16.714   9.615  33.911  1.00  0.00    -0.036 A 
HETATM   13  C8  UNK     1      16.867  10.958  34.259  1.00  0.00     0.013 A 
HETATM   14  C12 UNK     1      15.791  11.667  34.792  1.00  0.00     0.024 A 
HETATM   15  C15 UNK     1      14.561  11.034  34.978  1.00  0.00     0.034 A 
HETATM   16  C13 UNK     1      14.409   9.692  34.631  1.00  0.00     0.024 A 
HETATM   17 Cl1  UNK     1      13.234  11.909  35.635  1.00  0.00    -0.084 Cl
HETATM   18  C9  UNK     1      15.485   8.982  34.097  1.00  0.00     0.013 A 
ENDBRANCH  11  12
ENDBRANCH   2  10
TORSDOF 3
ENDMDL
MODEL 4
REMARK VINA RESULT:      -6.9      6.141      8.245
REMARK  3 active torsions:
REMARK  status: ('A' for Active; 'I' for Inactive)
REMARK    1  A    between atoms: C1_4  and  C3_6 
REMARK    2  A    between atoms: C2_5  and  C4_7 
REMARK    3  A    between atoms: C3_6  and  C5_8 
ROOT
HETATM    1  O1  UNK     1      18.306  -1.377  36.398  1.00  0.00    -0.288 OA
HETATM    2  C3  UNK     1      19.191  -2.052  35.884  1.00  0.00     0.182 C 
ENDROOT
BRANCH   2   3
HETATM    3  C1  UNK     1      19.485  -1.898  34.438  1.00  0.00     0.014 A 
HETATM    4  C6  UNK     1      20.547  -2.593  33.894  1.00  0.00     0.017 A 
HETATM    5  C10 UNK     1      20.822  -2.449  32.534  1.00  0.00     0.019 A 
HETATM    6  C14 UNK     1      20.032  -1.613  31.746  1.00  0.00     0.006 A 
HETATM    7  C11 UNK     1      18.964  -0.921  32.318  1.00  0.00     0.019 A 
HETATM    8  I1  UNK     1      20.443  -1.398  29.722  1.00  0.00    -0.045 I 
HETATM    9  C7  UNK     1      18.687  -1.065  33.678  1.00  0.00     0.017 A 
ENDBRANCH   2   3
BRANCH   2  10
HETATM   10  C5  UNK     1      20.024  -3.014  36.659  1.00  0.00     0.056 C 
HETATM   11  C4  UNK     1      19.544  -4.234  36.891  1.00  0.00     0.015 C 
BRANCH  11  12
HETATM   12  C2  UNK     1      20.272  -5.233  37.656  1.00  0.00    -0.036 A 
HETATM   13  C8  UNK     1      21.633  -5.061  37.913  1.00  0.00     0.013 A 
HETATM   14  C12 UNK     1      22.330  -6.020  38.647  1.00  0.00     0.024 A 
HETATM   15  C15 UNK     1      21.669  -7.151  39.125  1.00  0.00     0.034 A 
HETATM   16  C13 UNK     1      20.309  -7.323  38.869  1.00  0.00     0.024 A 
HETATM   17 Cl1  UNK     1      22.530  -8.333  40.031  1.00  0.00    -0.084 Cl
HETATM   18  C9  UNK     1      19.610  -6.364  38.134  1.00  0.00     0.013 A 
ENDBRANCH  11  12
ENDBRANCH   2  10
TORSDOF 3
ENDMDL
MODEL 5
REMARK VINA RESULT:      -6.9      5.507      8.492
REMARK  3 active torsions:
REMARK  status: ('A' for Active; 'I' for Inactive)
REMARK    1  A    between atoms: C1_4  and  C3_6 
REMARK    2  A    between atoms: C2_5  and  C4_7 
REMARK    3  A    between atoms: C3_6  and  C5_8 
ROOT
HETATM    1  O1  UNK     1      17.869   2.429  31.806  1.00  0.00    -0.288 OA
HETATM    2  C3  UNK     1      18.096   2.682  32.984  1.00  0.00     0.182 C 
ENDROOT
BRANCH   2   3
HETATM    3  C1  UNK     1      18.235   1.574  33.960  1.00  0.00     0.014 A 
HETATM    4  C6  UNK     1      18.300   0.276  33.493  1.00  0.00     0.017 A 
HETATM    5  C10 UNK     1      18.431  -0.766  34.411  1.00  0.00     0.019 A 
HETATM    6  C14 UNK     1      18.495  -0.490  35.776  1.00  0.00     0.006 A 
HETATM    7  C11 UNK     1      18.428   0.829  36.224  1.00  0.00     0.019 A 
HETATM    8  I1  UNK     1      18.690  -2.042  37.142  1.00  0.00    -0.045 I 
HETATM    9  C7  UNK     1      18.296   1.872  35.307  1.00  0.00     0.017 A 
ENDBRANCH   2   3
BRANCH   2  10
HETATM   10  C5  UNK     1      18.273   4.073  33.489  1.00  0.00     0.056 C 
HETATM   11  C4  UNK     1      18.109   5.088  32.643  1.00  0.00     0.015 C 
BRANCH  11  12
HETATM   12  C2  UNK     1      18.283   6.476  33.037  1.00  0.00    -0.036 A 
HETATM   13  C8  UNK     1      17.306   7.420  32.720  1.00  0.00     0.013 A 
HETATM   14  C12 UNK     1      17.474   8.752  33.097  1.00  0.00     0.024 A 
HETATM   15  C15 UNK     1      18.618   9.141  33.793  1.00  0.00     0.034 A 
HETATM   16  C13 UNK     1      19.595   8.198  34.111  1.00  0.00     0.024 A 
HETATM   17 Cl1  UNK     1      18.825  10.784  34.260  1.00  0.00    -0.084 Cl
HETATM   18  C9  UNK     1      19.428   6.865  33.733  1.00  0.00     0.013 A 
ENDBRANCH  11  12
ENDBRANCH   2  10
TORSDOF 3
ENDMDL
MODEL 6
REMARK VINA RESULT:      -6.8      4.729      6.941
REMARK  3 active torsions:
REMARK  status: ('A' for Active; 'I' for Inactive)
REMARK    1  A    between atoms: C1_4  and  C3_6 
REMARK    2  A    between atoms: C2_5  and  C4_7 
REMARK    3  A    between atoms: C3_6  and  C5_8 
ROOT
HETATM    1  O1  UNK     1      20.112   8.677  34.831  1.00  0.00    -0.288 OA
HETATM    2  C3  UNK     1      19.100   8.210  34.321  1.00  0.00     0.182 C 
ENDROOT
BRANCH   2   3
HETATM    3  C1  UNK     1      17.836   8.984  34.357  1.00  0.00     0.014 A 
HETATM    4  C6  UNK     1      16.674   8.352  34.753  1.00  0.00     0.017 A 
HETATM    5  C10 UNK     1      15.485   9.081  34.787  1.00  0.00     0.019 A 
HETATM    6  C14 UNK     1      15.482  10.427  34.424  1.00  0.00     0.006 A 
HETATM    7  C11 UNK     1      16.667  11.045  34.027  1.00  0.00     0.019 A 
HETATM    8  I1  UNK     1      13.711  11.512  34.474  1.00  0.00    -0.045 I 
HETATM    9  C7  UNK     1      17.857  10.317  33.993  1.00  0.00     0.017 A 
ENDBRANCH   2   3
BRANCH   2  10
HETATM   10  C5  UNK     1      19.082   6.891  33.626  1.00  0.00     0.056 C 
HETATM   11  C4  UNK     1      18.787   6.856  32.328  1.00  0.00     0.015 C 
BRANCH  11  12
HETATM   12  C2  UNK     1      18.722   5.616  31.570  1.00  0.00    -0.036 A 
HETATM   13  C8  UNK     1      19.158   5.585  30.245  1.00  0.00     0.013 A 
HETATM   14  C12 UNK     1      19.095   4.397  29.519  1.00  0.00     0.024 A 
HETATM   15  C15 UNK     1      18.598   3.238  30.116  1.00  0.00     0.034 A 
HETATM   16  C13 UNK     1      18.163   3.269  31.441  1.00  0.00     0.024 A 
HETATM   17 Cl1  UNK     1      18.521   1.772  29.220  1.00  0.00    -0.084 Cl
HETATM   18  C9  UNK     1      18.225   4.458  32.169  1.00  0.00     0.013 A 
ENDBRANCH  11  12
ENDBRANCH   2  10
TORSDOF 3
ENDMDL
MODEL 7
REMARK VINA RESULT:      -6.7      4.343      5.433
REMARK  3 active torsions:
REMARK  status: ('A' for Active; 'I' for Inactive)
REMARK    1  A    between atoms: C1_4  and  C3_6 
REMARK    2  A    between atoms: C2_5  and  C4_7 
REMARK    3  A    between atoms: C3_6  and  C5_8 
ROOT
HETATM    1  O1  UNK     1      19.076   5.124  31.803  1.00  0.00    -0.288 OA
HETATM    2  C3  UNK     1      18.378   5.205  32.807  1.00  0.00     0.182 C 
ENDROOT
BRANCH   2   3
HETATM    3  C1  UNK     1      17.444   6.347  32.961  1.00  0.00     0.014 A 
HETATM    4  C6  UNK     1      17.017   7.019  31.833  1.00  0.00     0.017 A 
HETATM    5  C10 UNK     1      16.138   8.092  31.977  1.00  0.00     0.019 A 
HETATM    6  C14 UNK     1      15.705   8.473  33.247  1.00  0.00     0.006 A 
HETATM    7  C11 UNK     1      16.151   7.781  34.372  1.00  0.00     0.019 A 
HETATM    8  I1  UNK     1      14.398  10.073  33.462  1.00  0.00    -0.045 I 
HETATM    9  C7  UNK     1      17.030   6.707  34.228  1.00  0.00     0.017 A 
ENDBRANCH   2   3
BRANCH   2  10
HETATM   10  C5  UNK     1      18.397   4.179  33.888  1.00  0.00     0.056 C 
HETATM   11  C4  UNK     1      18.201   2.903  33.562  1.00  0.00     0.015 C 
BRANCH  11  12
HETATM   12  C2  UNK     1      18.179   1.835  34.548  1.00  0.00    -0.036 A 
HETATM   13  C8  UNK     1      18.111   2.141  35.908  1.00  0.00     0.013 A 
HETATM   14  C12 UNK     1      18.091   1.115  36.853  1.00  0.00     0.024 A 
HETATM   15  C15 UNK     1      18.137  -0.216  36.440  1.00  0.00     0.034 A 
HETATM   16  C13 UNK     1      18.205  -0.522  35.080  1.00  0.00     0.024 A 
HETATM   17 Cl1  UNK     1      18.111  -1.481  37.605  1.00  0.00    -0.084 Cl
HETATM   18  C9  UNK     1      18.226   0.503  34.134  1.00  0.00     0.013 A 
ENDBRANCH  11  12
ENDBRANCH   2  10
TORSDOF 3
ENDMDL
MODEL 8
REMARK VINA RESULT:      -6.6     22.358     23.815
REMARK  3 active torsions:
REMARK  status: ('A' for Active; 'I' for Inactive)
REMARK    1  A    between atoms: C1_4  and  C3_6 
REMARK    2  A    between atoms: C2_5  and  C4_7 
REMARK    3  A    between atoms: C3_6  and  C5_8 
ROOT
HETATM    1  O1  UNK     1       9.452   5.637   6.776  1.00  0.00    -0.288 OA
HETATM    2  C3  UNK     1       9.807   6.136   7.838  1.00  0.00     0.182 C 
ENDROOT
BRANCH   2   3
HETATM    3  C1  UNK     1       8.819   6.326   8.928  1.00  0.00     0.014 A 
HETATM    4  C6  UNK     1       8.316   5.215   9.576  1.00  0.00     0.017 A 
HETATM    5  C10 UNK     1       7.387   5.394  10.601  1.00  0.00     0.019 A 
HETATM    6  C14 UNK     1       6.979   6.679  10.956  1.00  0.00     0.006 A 
HETATM    7  C11 UNK     1       7.500   7.786  10.287  1.00  0.00     0.019 A 
HETATM    8  I1  UNK     1       5.595   6.944  12.482  1.00  0.00    -0.045 I 
HETATM    9  C7  UNK     1       8.430   7.608   9.262  1.00  0.00     0.017 A 
ENDBRANCH   2   3
BRANCH   2  10
HETATM   10  C5  UNK     1      11.216   6.540   8.107  1.00  0.00     0.056 C 
HETATM   11  C4  UNK     1      11.905   5.884   9.038  1.00  0.00     0.015 C 
BRANCH  11  12
HETATM   12  C2  UNK     1      13.276   6.220   9.386  1.00  0.00    -0.036 A 
HETATM   13  C8  UNK     1      13.614   7.537   9.698  1.00  0.00     0.013 A 
HETATM   14  C12 UNK     1      14.929   7.859  10.031  1.00  0.00     0.024 A 
HETATM   15  C15 UNK     1      15.907   6.865  10.054  1.00  0.00     0.034 A 
HETATM   16  C13 UNK     1      15.569   5.548   9.742  1.00  0.00     0.024 A 
HETATM   17 Cl1  UNK     1      17.529   7.262  10.465  1.00  0.00    -0.084 Cl
HETATM   18  C9  UNK     1      14.253   5.225   9.408  1.00  0.00     0.013 A 
ENDBRANCH  11  12
ENDBRANCH   2  10
TORSDOF 3
ENDMDL
MODEL 9
REMARK VINA RESULT:      -6.6      6.485      9.423
REMARK  3 active torsions:
REMARK  status: ('A' for Active; 'I' for Inactive)
REMARK    1  A    between atoms: C1_4  and  C3_6 
REMARK    2  A    between atoms: C2_5  and  C4_7 
REMARK    3  A    between atoms: C3_6  and  C5_8 
ROOT
HETATM    1  O1  UNK     1      19.578  -2.351  37.557  1.00  0.00    -0.288 OA
HETATM    2  C3  UNK     1      19.993  -3.178  36.753  1.00  0.00     0.182 C 
ENDROOT
BRANCH   2   3
HETATM    3  C1  UNK     1      20.163  -4.590  37.174  1.00  0.00     0.014 A 
HETATM    4  C6  UNK     1      19.201  -5.514  36.819  1.00  0.00     0.017 A 
HETATM    5  C10 UNK     1      19.361  -6.842  37.215  1.00  0.00     0.019 A 
HETATM    6  C14 UNK     1      20.479  -7.219  37.958  1.00  0.00     0.006 A 
HETATM    7  C11 UNK     1      21.438  -6.268  38.304  1.00  0.00     0.019 A 
HETATM    8  I1  UNK     1      20.717  -9.197  38.547  1.00  0.00    -0.045 I 
HETATM    9  C7  UNK     1      21.279  -4.940  37.909  1.00  0.00     0.017 A 
ENDBRANCH   2   3
BRANCH   2  10
HETATM   10  C5  UNK     1      20.312  -2.837  35.338  1.00  0.00     0.056 C 
HETATM   11  C4  UNK     1      19.481  -2.042  34.668  1.00  0.00     0.015 C 
BRANCH  11  12
HETATM   12  C2  UNK     1      19.696  -1.672  33.278  1.00  0.00    -0.036 A 
HETATM   13  C8  UNK     1      19.024  -0.576  32.736  1.00  0.00     0.013 A 
HETATM   14  C12 UNK     1      19.229  -0.222  31.403  1.00  0.00     0.024 A 
HETATM   15  C15 UNK     1      20.108  -0.962  30.611  1.00  0.00     0.034 A 
HETATM   16  C13 UNK     1      20.780  -2.058  31.154  1.00  0.00     0.024 A 
HETATM   17 Cl1  UNK     1      20.362  -0.525  28.967  1.00  0.00    -0.084 Cl
HETATM   18  C9  UNK     1      20.574  -2.413  32.487  1.00  0.00     0.013 A 
ENDBRANCH  11  12
ENDBRANCH   2  10
TORSDOF 3
ENDMDL
MODEL 10
REMARK VINA RESULT:      -6.6     22.339     23.813
REMARK  3 active torsions:
REMARK  status: ('A' for Active; 'I' for Inactive)
REMARK    1  A    between atoms: C1_4  and  C3_6 
REMARK    2  A    between atoms: C2_5  and  C4_7 
REMARK    3  A    between atoms: C3_6  and  C5_8 
ROOT
HETATM    1  O1  UNK     1       9.488   5.695   6.798  1.00  0.00    -0.288 OA
HETATM    2  C3  UNK     1       9.828   6.187   7.868  1.00  0.00     0.182 C 
ENDROOT
BRANCH   2   3
HETATM    3  C1  UNK     1       8.830   6.344   8.953  1.00  0.00     0.014 A 
HETATM    4  C6  UNK     1       8.400   5.224   9.635  1.00  0.00     0.017 A 
HETATM    5  C10 UNK     1       7.462   5.372  10.657  1.00  0.00     0.019 A 
HETATM    6  C14 UNK     1       6.972   6.638  10.975  1.00  0.00     0.006 A 
HETATM    7  C11 UNK     1       7.420   7.756  10.272  1.00  0.00     0.019 A 
HETATM    8  I1  UNK     1       5.574   6.859  12.495  1.00  0.00    -0.045 I 
HETATM    9  C7  UNK     1       8.359   7.608   9.251  1.00  0.00     0.017 A 
ENDBRANCH   2   3
BRANCH   2  10
HETATM   10  C5  UNK     1      11.228   6.613   8.150  1.00  0.00     0.056 C 
HETATM   11  C4  UNK     1      11.972   5.869   8.965  1.00  0.00     0.015 C 
BRANCH  11  12
HETATM   12  C2  UNK     1      13.339   6.216   9.318  1.00  0.00    -0.036 A 
HETATM   13  C8  UNK     1      14.292   5.211   9.491  1.00  0.00     0.013 A 
HETATM   14  C12 UNK     1      15.603   5.544   9.831  1.00  0.00     0.024 A 
HETATM   15  C15 UNK     1      15.963   6.882   9.996  1.00  0.00     0.034 A 
HETATM   16  C13 UNK     1      15.010   7.886   9.823  1.00  0.00     0.024 A 
HETATM   17 Cl1  UNK     1      17.580   7.293  10.414  1.00  0.00    -0.084 Cl
HETATM   18  C9  UNK     1      13.698   7.554   9.484  1.00  0.00     0.013 A 
ENDBRANCH  11  12
ENDBRANCH   2  10
TORSDOF 3
ENDMDL
