MODEL 1
REMARK VINA RESULT:     -10.4      0.000      0.000
REMARK  7 active torsions:
REMARK  status: ('A' for Active; 'I' for Inactive)
REMARK    1  A    between atoms: C13_24  and  O2_5 
REMARK    2  A    between atoms: C5_16  and  O2_5 
REMARK    3  A    between atoms: C14_25  and  O3_6 
REMARK    4  A    between atoms: C5_16  and  O3_6 
REMARK       I    between atoms: C9_20  and  N1_10 
REMARK    5  A    between atoms: N1_10  and  N2_11 
REMARK       I    between atoms: C10_21  and  N2_11 
REMARK    6  A    between atoms: C3_14  and  C9_20 
REMARK    7  A    between atoms: C10_21  and  C5_16 
ROOT
HETATM    1  O6  UNK     1      17.462   4.416  31.767  1.00  0.00    -0.266 OA
HETATM    2  N2  UNK     1      18.313   4.550  33.922  1.00  0.00    -0.263 N 
HETATM    3  C10 UNK     1      17.982   3.894  32.751  1.00  0.00     0.292 C 
HETATM    4  H7  UNK     1      18.762   4.100  34.713  1.00  0.00     0.190 HD
ENDROOT
BRANCH   3   5
HETATM    5  C5  UNK     1      18.317   2.409  32.811  1.00  0.00     0.367 C 
BRANCH   5   6
HETATM    6  O2  UNK     1      17.239   1.693  33.404  1.00  0.00    -0.311 OA
BRANCH   6   7
HETATM    7  C13 UNK     1      17.490   0.955  34.529  1.00  0.00     0.072 A 
HETATM    8  C15 UNK     1      16.822  -0.251  34.725  1.00  0.00     0.038 A 
HETATM    9  C19 UNK     1      17.077  -1.002  35.872  1.00  0.00     0.026 A 
HETATM   10  C23 UNK     1      17.995  -0.545  36.817  1.00  0.00     0.034 A 
HETATM   11  C21 UNK     1      18.660   0.665  36.614  1.00  0.00     0.026 A 
HETATM   12 Cl1  UNK     1      18.308  -1.472  38.233  1.00  0.00    -0.084 Cl
HETATM   13  C17 UNK     1      18.407   1.416  35.466  1.00  0.00     0.038 A 
ENDBRANCH   6   7
ENDBRANCH   5   6
BRANCH   5  14
HETATM   14  O3  UNK     1      18.451   2.096  31.415  1.00  0.00    -0.311 OA
BRANCH  14  15
HETATM   15  C14 UNK     1      19.061   0.916  31.080  1.00  0.00     0.072 A 
HETATM   16  C16 UNK     1      19.097  -0.126  31.999  1.00  0.00     0.038 A 
HETATM   17  C20 UNK     1      19.721  -1.327  31.659  1.00  0.00     0.026 A 
HETATM   18  C24 UNK     1      20.302  -1.478  30.401  1.00  0.00     0.034 A 
HETATM   19  C22 UNK     1      20.261  -0.430  29.482  1.00  0.00     0.026 A 
HETATM   20 Cl2  UNK     1      21.070  -2.960  29.981  1.00  0.00    -0.084 Cl
HETATM   21  C18 UNK     1      19.639   0.772  29.823  1.00  0.00     0.038 A 
ENDBRANCH  14  15
ENDBRANCH   5  14
ENDBRANCH   3   5
BRANCH   2  22
HETATM   22  N1  UNK     1      18.055   5.894  34.029  1.00  0.00    -0.263 N 
HETATM   23  C9  UNK     1      19.029   6.795  33.659  1.00  0.00     0.276 C 
HETATM   24  O5  UNK     1      20.147   6.522  33.227  1.00  0.00    -0.266 OA
HETATM   25  H6  UNK     1      17.126   6.152  34.349  1.00  0.00     0.190 HD
BRANCH  23  26
HETATM   26  C3  UNK     1      18.606   8.190  33.833  1.00  0.00     0.110 A 
HETATM   27  C4  UNK     1      17.308   8.444  33.626  1.00  0.00     0.037 A 
HETATM   28  C1  UNK     1      16.793   9.796  33.776  1.00  0.00     0.000 A 
HETATM   29  C2  UNK     1      17.670  10.815  34.137  1.00  0.00     0.089 A 
HETATM   30  C6  UNK     1      15.447  10.108  33.568  1.00  0.00     0.033 A 
HETATM   31  O1  UNK     1      19.035  10.540  34.354  1.00  0.00    -0.274 OA
HETATM   32  C7  UNK     1      17.242  12.131  34.296  1.00  0.00     0.039 A 
HETATM   33  C8  UNK     1      19.557   9.256  34.218  1.00  0.00     0.304 A 
HETATM   34  O4  UNK     1      20.746   9.027  34.409  1.00  0.00    -0.259 OA
HETATM   35  C12 UNK     1      15.897  12.432  34.088  1.00  0.00     0.022 A 
HETATM   36  C11 UNK     1      15.002  11.424  33.725  1.00  0.00     0.011 A 
HETATM   37 Br1  UNK     1      13.179  11.840  33.444  1.00  0.00    -0.051 Br
ENDBRANCH  23  26
ENDBRANCH   2  22
TORSDOF 7
ENDMDL
MODEL 2
REMARK VINA RESULT:     -10.3      1.671      2.318
REMARK  7 active torsions:
REMARK  status: ('A' for Active; 'I' for Inactive)
REMARK    1  A    between atoms: C13_24  and  O2_5 
REMARK    2  A    between atoms: C5_16  and  O2_5 
REMARK    3  A    between atoms: C14_25  and  O3_6 
REMARK    4  A    between atoms: C5_16  and  O3_6 
REMARK       I    between atoms: C9_20  and  N1_10 
REMARK    5  A    between atoms: N1_10  and  N2_11 
REMARK       I    between atoms: C10_21  and  N2_11 
REMARK    6  A    between atoms: C3_14  and  C9_20 
REMARK    7  A    between atoms: C10_21  and  C5_16 
ROOT
HETATM    1  O6  UNK     1      19.120   5.206  34.121  1.00  0.00    -0.266 OA
HETATM    2  N2  UNK     1      17.215   5.316  32.800  1.00  0.00    -0.263 N 
HETATM    3  C10 UNK     1      18.351   4.708  33.301  1.00  0.00     0.292 C 
HETATM    4  H7  UNK     1      16.585   4.874  32.139  1.00  0.00     0.190 HD
ENDROOT
BRANCH   3   5
HETATM    5  C5  UNK     1      18.575   3.326  32.700  1.00  0.00     0.367 C 
BRANCH   5   6
HETATM    6  O2  UNK     1      17.565   2.432  33.153  1.00  0.00    -0.311 OA
BRANCH   6   7
HETATM    7  C13 UNK     1      17.912   1.461  34.055  1.00  0.00     0.072 A 
HETATM    8  C15 UNK     1      18.034   1.785  35.402  1.00  0.00     0.038 A 
HETATM    9  C19 UNK     1      18.389   0.796  36.320  1.00  0.00     0.026 A 
HETATM   10  C23 UNK     1      18.619  -0.509  35.886  1.00  0.00     0.034 A 
HETATM   11  C21 UNK     1      18.495  -0.826  34.534  1.00  0.00     0.026 A 
HETATM   12 Cl1  UNK     1      19.057  -1.728  37.019  1.00  0.00    -0.084 Cl
HETATM   13  C17 UNK     1      18.139   0.162  33.615  1.00  0.00     0.038 A 
ENDBRANCH   6   7
ENDBRANCH   5   6
BRANCH   5  14
HETATM   14  O3  UNK     1      18.439   3.605  31.297  1.00  0.00    -0.311 OA
BRANCH  14  15
HETATM   15  C14 UNK     1      18.587   2.563  30.420  1.00  0.00     0.072 A 
HETATM   16  C16 UNK     1      19.491   1.546  30.705  1.00  0.00     0.038 A 
HETATM   17  C20 UNK     1      19.644   0.486  29.811  1.00  0.00     0.026 A 
HETATM   18  C24 UNK     1      18.891   0.450  28.638  1.00  0.00     0.034 A 
HETATM   19  C22 UNK     1      17.985   1.473  28.358  1.00  0.00     0.026 A 
HETATM   20 Cl2  UNK     1      19.078  -0.858  27.536  1.00  0.00    -0.084 Cl
HETATM   21  C18 UNK     1      17.833   2.534  29.251  1.00  0.00     0.038 A 
ENDBRANCH  14  15
ENDBRANCH   5  14
ENDBRANCH   3   5
BRANCH   2  22
HETATM   22  N1  UNK     1      16.888   6.577  33.232  1.00  0.00    -0.263 N 
HETATM   23  C9  UNK     1      16.684   7.572  32.300  1.00  0.00     0.276 C 
HETATM   24  O5  UNK     1      16.766   7.454  31.079  1.00  0.00    -0.266 OA
HETATM   25  H6  UNK     1      16.777   6.697  34.234  1.00  0.00     0.190 HD
BRANCH  23  26
HETATM   26  C3  UNK     1      16.345   8.861  32.915  1.00  0.00     0.110 A 
HETATM   27  C4  UNK     1      15.098   9.302  32.714  1.00  0.00     0.037 A 
HETATM   28  C1  UNK     1      14.667  10.569  33.284  1.00  0.00     0.000 A 
HETATM   29  C2  UNK     1      15.572  11.310  34.038  1.00  0.00     0.089 A 
HETATM   30  C6  UNK     1      13.376  11.069  33.099  1.00  0.00     0.033 A 
HETATM   31  O1  UNK     1      16.884  10.840  34.246  1.00  0.00    -0.274 OA
HETATM   32  C7  UNK     1      15.224  12.532  34.611  1.00  0.00     0.039 A 
HETATM   33  C8  UNK     1      17.324   9.632  33.713  1.00  0.00     0.304 A 
HETATM   34  O4  UNK     1      18.468   9.231  33.900  1.00  0.00    -0.259 OA
HETATM   35  C12 UNK     1      13.934  13.022  34.422  1.00  0.00     0.022 A 
HETATM   36  C11 UNK     1      13.011  12.293  33.668  1.00  0.00     0.011 A 
HETATM   37 Br1  UNK     1      11.262  12.964  33.416  1.00  0.00    -0.051 Br
ENDBRANCH  23  26
ENDBRANCH   2  22
TORSDOF 7
ENDMDL
MODEL 3
REMARK VINA RESULT:     -10.2      1.748      2.440
REMARK  7 active torsions:
REMARK  status: ('A' for Active; 'I' for Inactive)
REMARK    1  A    between atoms: C13_24  and  O2_5 
REMARK    2  A    between atoms: C5_16  and  O2_5 
REMARK    3  A    between atoms: C14_25  and  O3_6 
REMARK    4  A    between atoms: C5_16  and  O3_6 
REMARK       I    between atoms: C9_20  and  N1_10 
REMARK    5  A    between atoms: N1_10  and  N2_11 
REMARK       I    between atoms: C10_21  and  N2_11 
REMARK    6  A    between atoms: C3_14  and  C9_20 
REMARK    7  A    between atoms: C10_21  and  C5_16 
ROOT
HETATM    1  O6  UNK     1      17.878   2.562  36.134  1.00  0.00    -0.266 OA
HETATM    2  N2  UNK     1      18.429   3.055  33.934  1.00  0.00    -0.263 N 
HETATM    3  C10 UNK     1      18.229   2.210  35.009  1.00  0.00     0.292 C 
HETATM    4  H7  UNK     1      18.699   2.735  33.009  1.00  0.00     0.190 HD
ENDROOT
BRANCH   3   5
HETATM    5  C5  UNK     1      18.517   0.755  34.658  1.00  0.00     0.367 C 
BRANCH   5   6
HETATM    6  O2  UNK     1      17.923  -0.103  35.625  1.00  0.00    -0.311 OA
BRANCH   6   7
HETATM    7  C13 UNK     1      18.668  -1.139  36.121  1.00  0.00     0.072 A 
HETATM    8  C15 UNK     1      18.379  -1.655  37.381  1.00  0.00     0.038 A 
HETATM    9  C19 UNK     1      19.139  -2.709  37.886  1.00  0.00     0.026 A 
HETATM   10  C23 UNK     1      20.184  -3.241  37.132  1.00  0.00     0.034 A 
HETATM   11  C21 UNK     1      20.469  -2.718  35.870  1.00  0.00     0.026 A 
HETATM   12 Cl1  UNK     1      21.123  -4.541  37.756  1.00  0.00    -0.084 Cl
HETATM   13  C17 UNK     1      19.708  -1.665  35.363  1.00  0.00     0.038 A 
ENDBRANCH   6   7
ENDBRANCH   5   6
BRANCH   5  14
HETATM   14  O3  UNK     1      17.866   0.641  33.382  1.00  0.00    -0.311 OA
BRANCH  14  15
HETATM   15  C14 UNK     1      18.627   0.266  32.307  1.00  0.00     0.072 A 
HETATM   16  C16 UNK     1      19.128  -1.029  32.235  1.00  0.00     0.038 A 
HETATM   17  C20 UNK     1      19.905  -1.410  31.141  1.00  0.00     0.026 A 
HETATM   18  C24 UNK     1      20.176  -0.494  30.125  1.00  0.00     0.034 A 
HETATM   19  C22 UNK     1      19.669   0.804  30.202  1.00  0.00     0.026 A 
HETATM   20 Cl2  UNK     1      21.133  -0.964  28.776  1.00  0.00    -0.084 Cl
HETATM   21  C18 UNK     1      18.893   1.185  31.297  1.00  0.00     0.038 A 
ENDBRANCH  14  15
ENDBRANCH   5  14
ENDBRANCH   3   5
BRANCH   2  22
HETATM   22  N1  UNK     1      18.228   4.402  34.098  1.00  0.00    -0.263 N 
HETATM   23  C9  UNK     1      17.734   5.139  33.043  1.00  0.00     0.276 C 
HETATM   24  O5  UNK     1      17.443   4.710  31.928  1.00  0.00    -0.266 OA
HETATM   25  H6  UNK     1      18.424   4.780  35.020  1.00  0.00     0.190 HD
BRANCH  23  26
HETATM   26  C3  UNK     1      17.577   6.561  33.371  1.00  0.00     0.110 A 
HETATM   27  C4  UNK     1      16.380   7.100  33.107  1.00  0.00     0.037 A 
HETATM   28  C1  UNK     1      16.127   8.503  33.398  1.00  0.00     0.000 A 
HETATM   29  C2  UNK     1      17.147   9.269  33.954  1.00  0.00     0.089 A 
HETATM   30  C6  UNK     1      14.896   9.107  33.137  1.00  0.00     0.033 A 
HETATM   31  O1  UNK     1      18.404   8.696  34.230  1.00  0.00    -0.274 OA
HETATM   32  C7  UNK     1      16.971  10.618  34.256  1.00  0.00     0.039 A 
HETATM   33  C8  UNK     1      18.676   7.357  33.962  1.00  0.00     0.304 A 
HETATM   34  O4  UNK     1      19.772   6.867  34.206  1.00  0.00    -0.259 OA
HETATM   35  C12 UNK     1      15.738  11.212  33.993  1.00  0.00     0.022 A 
HETATM   36  C11 UNK     1      14.702  10.459  33.436  1.00  0.00     0.011 A 
HETATM   37 Br1  UNK     1      13.033  11.273  33.083  1.00  0.00    -0.051 Br
ENDBRANCH  23  26
ENDBRANCH   2  22
TORSDOF 7
ENDMDL
MODEL 4
REMARK VINA RESULT:      -9.7      2.140      2.694
REMARK  7 active torsions:
REMARK  status: ('A' for Active; 'I' for Inactive)
REMARK    1  A    between atoms: C13_24  and  O2_5 
REMARK    2  A    between atoms: C5_16  and  O2_5 
REMARK    3  A    between atoms: C14_25  and  O3_6 
REMARK    4  A    between atoms: C5_16  and  O3_6 
REMARK       I    between atoms: C9_20  and  N1_10 
REMARK    5  A    between atoms: N1_10  and  N2_11 
REMARK       I    between atoms: C10_21  and  N2_11 
REMARK    6  A    between atoms: C3_14  and  C9_20 
REMARK    7  A    between atoms: C10_21  and  C5_16 
ROOT
HETATM    1  O6  UNK     1      19.281   5.153  34.263  1.00  0.00    -0.266 OA
HETATM    2  N2  UNK     1      17.206   5.238  33.225  1.00  0.00    -0.263 N 
HETATM    3  C10 UNK     1      18.411   4.647  33.556  1.00  0.00     0.292 C 
HETATM    4  H7  UNK     1      16.495   4.789  32.657  1.00  0.00     0.190 HD
ENDROOT
BRANCH   3   5
HETATM    5  C5  UNK     1      18.570   3.272  32.919  1.00  0.00     0.367 C 
BRANCH   5   6
HETATM    6  O2  UNK     1      17.533   2.407  33.368  1.00  0.00    -0.311 OA
BRANCH   6   7
HETATM    7  C13 UNK     1      17.847   1.428  34.272  1.00  0.00     0.072 A 
HETATM    8  C15 UNK     1      18.145   0.145  33.822  1.00  0.00     0.038 A 
HETATM    9  C19 UNK     1      18.464  -0.852  34.743  1.00  0.00     0.026 A 
HETATM   10  C23 UNK     1      18.483  -0.563  36.107  1.00  0.00     0.034 A 
HETATM   11  C21 UNK     1      18.183   0.726  36.551  1.00  0.00     0.026 A 
HETATM   12 Cl1  UNK     1      18.876  -1.794  37.244  1.00  0.00    -0.084 Cl
HETATM   13  C17 UNK     1      17.865   1.724  35.630  1.00  0.00     0.038 A 
ENDBRANCH   6   7
ENDBRANCH   5   6
BRANCH   5  14
HETATM   14  O3  UNK     1      18.422   3.590  31.525  1.00  0.00    -0.311 OA
BRANCH  14  15
HETATM   15  C14 UNK     1      18.578   2.576  30.618  1.00  0.00     0.072 A 
HETATM   16  C16 UNK     1      19.458   1.535  30.892  1.00  0.00     0.038 A 
HETATM   17  C20 UNK     1      19.619   0.503  29.966  1.00  0.00     0.026 A 
HETATM   18  C24 UNK     1      18.898   0.520  28.773  1.00  0.00     0.034 A 
HETATM   19  C22 UNK     1      18.016   1.566  28.504  1.00  0.00     0.026 A 
HETATM   20 Cl2  UNK     1      19.095  -0.752  27.632  1.00  0.00    -0.084 Cl
HETATM   21  C18 UNK     1      17.856   2.599  29.429  1.00  0.00     0.038 A 
ENDBRANCH  14  15
ENDBRANCH   5  14
ENDBRANCH   3   5
BRANCH   2  22
HETATM   22  N1  UNK     1      16.923   6.491  33.709  1.00  0.00    -0.263 N 
HETATM   23  C9  UNK     1      17.068   7.579  32.876  1.00  0.00     0.276 C 
HETATM   24  O5  UNK     1      17.437   7.554  31.703  1.00  0.00    -0.266 OA
HETATM   25  H6  UNK     1      16.580   6.541  34.664  1.00  0.00     0.190 HD
BRANCH  23  26
HETATM   26  C3  UNK     1      16.732   8.846  33.536  1.00  0.00     0.110 A 
HETATM   27  C4  UNK     1      17.599   9.850  33.364  1.00  0.00     0.037 A 
HETATM   28  C1  UNK     1      17.352  11.146  33.978  1.00  0.00     0.000 A 
HETATM   29  C2  UNK     1      16.203  11.319  34.744  1.00  0.00     0.089 A 
HETATM   30  C6  UNK     1      18.230  12.221  33.827  1.00  0.00     0.033 A 
HETATM   31  O1  UNK     1      15.294  10.257  34.921  1.00  0.00    -0.274 OA
HETATM   32  C7  UNK     1      15.907  12.533  35.361  1.00  0.00     0.039 A 
HETATM   33  C8  UNK     1      15.504   9.007  34.346  1.00  0.00     0.304 A 
HETATM   34  O4  UNK     1      14.707   8.089  34.505  1.00  0.00    -0.259 OA
HETATM   35  C12 UNK     1      16.788  13.601  35.203  1.00  0.00     0.022 A 
HETATM   36  C11 UNK     1      17.947  13.447  34.438  1.00  0.00     0.011 A 
HETATM   37 Br1  UNK     1      19.137  14.901  34.230  1.00  0.00    -0.051 Br
ENDBRANCH  23  26
ENDBRANCH   2  22
TORSDOF 7
ENDMDL
MODEL 5
REMARK VINA RESULT:      -9.7     14.078     16.623
REMARK  7 active torsions:
REMARK  status: ('A' for Active; 'I' for Inactive)
REMARK    1  A    between atoms: C13_24  and  O2_5 
REMARK    2  A    between atoms: C5_16  and  O2_5 
REMARK    3  A    between atoms: C14_25  and  O3_6 
REMARK    4  A    between atoms: C5_16  and  O3_6 
REMARK       I    between atoms: C9_20  and  N1_10 
REMARK    5  A    between atoms: N1_10  and  N2_11 
REMARK       I    between atoms: C10_21  and  N2_11 
REMARK    6  A    between atoms: C3_14  and  C9_20 
REMARK    7  A    between atoms: C10_21  and  C5_16 
ROOT
HETATM    1  O6  UNK     1      26.134  -5.786  38.568  1.00  0.00    -0.266 OA
HETATM    2  N2  UNK     1      27.294  -7.718  38.015  1.00  0.00    -0.263 N 
HETATM    3  C10 UNK     1      26.184  -7.006  38.427  1.00  0.00     0.292 C 
HETATM    4  H7  UNK     1      27.303  -8.725  37.886  1.00  0.00     0.190 HD
ENDROOT
BRANCH   3   5
HETATM    5  C5  UNK     1      24.996  -7.914  38.720  1.00  0.00     0.367 C 
BRANCH   5   6
HETATM    6  O2  UNK     1      24.051  -7.229  39.534  1.00  0.00    -0.311 OA
BRANCH   6   7
HETATM    7  C13 UNK     1      22.739  -7.222  39.144  1.00  0.00     0.072 A 
HETATM    8  C15 UNK     1      22.233  -6.127  38.450  1.00  0.00     0.038 A 
HETATM    9  C19 UNK     1      20.895  -6.119  38.053  1.00  0.00     0.026 A 
HETATM   10  C23 UNK     1      20.073  -7.205  38.352  1.00  0.00     0.034 A 
HETATM   11  C21 UNK     1      20.588  -8.299  39.048  1.00  0.00     0.026 A 
HETATM   12 Cl1  UNK     1      18.423  -7.195  37.863  1.00  0.00    -0.084 Cl
HETATM   13  C17 UNK     1      21.925  -8.307  39.444  1.00  0.00     0.038 A 
ENDBRANCH   6   7
ENDBRANCH   5   6
BRANCH   5  14
HETATM   14  O3  UNK     1      24.483  -8.140  37.397  1.00  0.00    -0.311 OA
BRANCH  14  15
HETATM   15  C14 UNK     1      24.471  -9.427  36.927  1.00  0.00     0.072 A 
HETATM   16  C16 UNK     1      25.647 -10.169  36.918  1.00  0.00     0.038 A 
HETATM   17  C20 UNK     1      25.635 -11.478  36.437  1.00  0.00     0.026 A 
HETATM   18  C24 UNK     1      24.447 -12.037  35.968  1.00  0.00     0.034 A 
HETATM   19  C22 UNK     1      23.270 -11.288  35.980  1.00  0.00     0.026 A 
HETATM   20 Cl2  UNK     1      24.431 -13.652  35.375  1.00  0.00    -0.084 Cl
HETATM   21  C18 UNK     1      23.282  -9.979  36.460  1.00  0.00     0.038 A 
ENDBRANCH  14  15
ENDBRANCH   5  14
ENDBRANCH   3   5
BRANCH   2  22
HETATM   22  N1  UNK     1      28.453  -7.040  37.730  1.00  0.00    -0.263 N 
HETATM   23  C9  UNK     1      28.756  -6.754  36.416  1.00  0.00     0.276 C 
HETATM   24  O5  UNK     1      28.080  -7.049  35.432  1.00  0.00    -0.266 OA
HETATM   25  H6  UNK     1      29.015  -6.750  38.524  1.00  0.00     0.190 HD
BRANCH  23  26
HETATM   26  C3  UNK     1      30.025  -6.030  36.273  1.00  0.00     0.110 A 
HETATM   27  C4  UNK     1      30.896  -6.534  35.390  1.00  0.00     0.037 A 
HETATM   28  C1  UNK     1      32.181  -5.885  35.177  1.00  0.00     0.000 A 
HETATM   29  C2  UNK     1      32.485  -4.738  35.905  1.00  0.00     0.089 A 
HETATM   30  C6  UNK     1      33.121  -6.376  34.269  1.00  0.00     0.033 A 
HETATM   31  O1  UNK     1      31.563  -4.213  36.831  1.00  0.00    -0.274 OA
HETATM   32  C7  UNK     1      33.697  -4.070  35.749  1.00  0.00     0.039 A 
HETATM   33  C8  UNK     1      30.326  -4.812  37.057  1.00  0.00     0.304 A 
HETATM   34  O4  UNK     1      29.530  -4.348  37.865  1.00  0.00    -0.259 OA
HETATM   35  C12 UNK     1      34.629  -4.566  34.839  1.00  0.00     0.022 A 
HETATM   36  C11 UNK     1      34.342  -5.716  34.100  1.00  0.00     0.011 A 
HETATM   37 Br1  UNK     1      35.611  -6.383  32.868  1.00  0.00    -0.051 Br
ENDBRANCH  23  26
ENDBRANCH   2  22
TORSDOF 7
ENDMDL
MODEL 6
REMARK VINA RESULT:      -9.3     24.369     27.088
REMARK  7 active torsions:
REMARK  status: ('A' for Active; 'I' for Inactive)
REMARK    1  A    between atoms: C13_24  and  O2_5 
REMARK    2  A    between atoms: C5_16  and  O2_5 
REMARK    3  A    between atoms: C14_25  and  O3_6 
REMARK    4  A    between atoms: C5_16  and  O3_6 
REMARK       I    between atoms: C9_20  and  N1_10 
REMARK    5  A    between atoms: N1_10  and  N2_11 
REMARK       I    between atoms: C10_21  and  N2_11 
REMARK    6  A    between atoms: C3_14  and  C9_20 
REMARK    7  A    between atoms: C10_21  and  C5_16 
ROOT
HETATM    1  O6  UNK     1      19.424  10.917   7.419  1.00  0.00    -0.266 OA
HETATM    2  N2  UNK     1      18.664  10.959   9.612  1.00  0.00    -0.263 N 
HETATM    3  C10 UNK     1      19.399  11.426   8.538  1.00  0.00     0.292 C 
HETATM    4  H7  UNK     1      18.644  11.411  10.520  1.00  0.00     0.190 HD
ENDROOT
BRANCH   3   5
HETATM    5  C5  UNK     1      20.217  12.660   8.896  1.00  0.00     0.367 C 
BRANCH   5   6
HETATM    6  O2  UNK     1      19.470  13.837   8.610  1.00  0.00    -0.311 OA
BRANCH   6   7
HETATM    7  C13 UNK     1      19.798  14.562   7.496  1.00  0.00     0.072 A 
HETATM    8  C15 UNK     1      20.989  14.295   6.826  1.00  0.00     0.038 A 
HETATM    9  C19 UNK     1      21.323  15.034   5.691  1.00  0.00     0.026 A 
HETATM   10  C23 UNK     1      20.468  16.035   5.234  1.00  0.00     0.034 A 
HETATM   11  C21 UNK     1      19.276  16.298   5.911  1.00  0.00     0.026 A 
HETATM   12 Cl1  UNK     1      20.881  16.948   3.834  1.00  0.00    -0.084 Cl
HETATM   13  C17 UNK     1      18.941  15.558   7.044  1.00  0.00     0.038 A 
ENDBRANCH   6   7
ENDBRANCH   5   6
BRANCH   5  14
HETATM   14  O3  UNK     1      20.392  12.480  10.311  1.00  0.00    -0.311 OA
BRANCH  14  15
HETATM   15  C14 UNK     1      21.635  12.712  10.837  1.00  0.00     0.072 A 
HETATM   16  C16 UNK     1      21.836  12.595  12.208  1.00  0.00     0.038 A 
HETATM   17  C20 UNK     1      23.101  12.834  12.745  1.00  0.00     0.026 A 
HETATM   18  C24 UNK     1      24.157  13.189  11.907  1.00  0.00     0.034 A 
HETATM   19  C22 UNK     1      23.950  13.304  10.532  1.00  0.00     0.026 A 
HETATM   20 Cl2  UNK     1      25.718  13.483  12.568  1.00  0.00    -0.084 Cl
HETATM   21  C18 UNK     1      22.684  13.066   9.995  1.00  0.00     0.038 A 
ENDBRANCH  14  15
ENDBRANCH   5  14
ENDBRANCH   3   5
BRANCH   2  22
HETATM   22  N1  UNK     1      17.887   9.839   9.451  1.00  0.00    -0.263 N 
HETATM   23  C9  UNK     1      16.578   9.865   9.881  1.00  0.00     0.276 C 
HETATM   24  O5  UNK     1      16.004  10.814  10.412  1.00  0.00    -0.266 OA
HETATM   25  H6  UNK     1      18.322   9.051   8.981  1.00  0.00     0.190 HD
BRANCH  23  26
HETATM   26  C3  UNK     1      15.880   8.596   9.644  1.00  0.00     0.110 A 
HETATM   27  C4  UNK     1      14.793   8.656   8.865  1.00  0.00     0.037 A 
HETATM   28  C1  UNK     1      14.034   7.449   8.571  1.00  0.00     0.000 A 
HETATM   29  C2  UNK     1      14.458   6.239   9.113  1.00  0.00     0.089 A 
HETATM   30  C6  UNK     1      12.893   7.464   7.766  1.00  0.00     0.033 A 
HETATM   31  O1  UNK     1      15.604   6.183   9.931  1.00  0.00    -0.274 OA
HETATM   32  C7  UNK     1      13.776   5.048   8.872  1.00  0.00     0.039 A 
HETATM   33  C8  UNK     1      16.349   7.321  10.230  1.00  0.00     0.304 A 
HETATM   34  O4  UNK     1      17.345   7.262  10.943  1.00  0.00    -0.259 OA
HETATM   35  C12 UNK     1      12.640   5.072   8.066  1.00  0.00     0.022 A 
HETATM   36  C11 UNK     1      12.199   6.277   7.514  1.00  0.00     0.011 A 
HETATM   37 Br1  UNK     1      10.656   6.302   6.421  1.00  0.00    -0.051 Br
ENDBRANCH  23  26
ENDBRANCH   2  22
TORSDOF 7
ENDMDL
MODEL 7
REMARK VINA RESULT:      -9.3     24.238     26.794
REMARK  7 active torsions:
REMARK  status: ('A' for Active; 'I' for Inactive)
REMARK    1  A    between atoms: C13_24  and  O2_5 
REMARK    2  A    between atoms: C5_16  and  O2_5 
REMARK    3  A    between atoms: C14_25  and  O3_6 
REMARK    4  A    between atoms: C5_16  and  O3_6 
REMARK       I    between atoms: C9_20  and  N1_10 
REMARK    5  A    between atoms: N1_10  and  N2_11 
REMARK       I    between atoms: C10_21  and  N2_11 
REMARK    6  A    between atoms: C3_14  and  C9_20 
REMARK    7  A    between atoms: C10_21  and  C5_16 
ROOT
HETATM    1  O6  UNK     1      19.419  10.727   7.218  1.00  0.00    -0.266 OA
HETATM    2  N2  UNK     1      18.354  11.037   9.257  1.00  0.00    -0.263 N 
HETATM    3  C10 UNK     1      19.238  11.373   8.248  1.00  0.00     0.292 C 
HETATM    4  H7  UNK     1      18.208  11.600  10.088  1.00  0.00     0.190 HD
ENDROOT
BRANCH   3   5
HETATM    5  C5  UNK     1      20.005  12.652   8.560  1.00  0.00     0.367 C 
BRANCH   5   6
HETATM    6  O2  UNK     1      21.376  12.350   8.792  1.00  0.00    -0.311 OA
BRANCH   6   7
HETATM    7  C13 UNK     1      21.890  12.575  10.041  1.00  0.00     0.072 A 
HETATM    8  C15 UNK     1      21.217  12.092  11.160  1.00  0.00     0.038 A 
HETATM    9  C19 UNK     1      21.740  12.323  12.432  1.00  0.00     0.026 A 
HETATM   10  C23 UNK     1      22.930  13.034  12.579  1.00  0.00     0.034 A 
HETATM   11  C21 UNK     1      23.598  13.516  11.453  1.00  0.00     0.026 A 
HETATM   12 Cl1  UNK     1      23.575  13.319  14.150  1.00  0.00    -0.084 Cl
HETATM   13  C17 UNK     1      23.077  13.284  10.181  1.00  0.00     0.038 A 
ENDBRANCH   6   7
ENDBRANCH   5   6
BRANCH   5  14
HETATM   14  O3  UNK     1      19.829  13.389   7.338  1.00  0.00    -0.311 OA
BRANCH  14  15
HETATM   15  C14 UNK     1      18.663  14.089   7.176  1.00  0.00     0.072 A 
HETATM   16  C16 UNK     1      18.048  14.124   5.930  1.00  0.00     0.038 A 
HETATM   17  C20 UNK     1      16.861  14.840   5.764  1.00  0.00     0.026 A 
HETATM   18  C24 UNK     1      16.299  15.516   6.846  1.00  0.00     0.034 A 
HETATM   19  C22 UNK     1      16.921  15.476   8.095  1.00  0.00     0.026 A 
HETATM   20 Cl2  UNK     1      14.836  16.398   6.643  1.00  0.00    -0.084 Cl
HETATM   21  C18 UNK     1      18.107  14.761   8.260  1.00  0.00     0.038 A 
ENDBRANCH  14  15
ENDBRANCH   5  14
ENDBRANCH   3   5
BRANCH   2  22
HETATM   22  N1  UNK     1      17.601   9.897   9.131  1.00  0.00    -0.263 N 
HETATM   23  C9  UNK     1      16.360   9.845   9.727  1.00  0.00     0.276 C 
HETATM   24  O5  UNK     1      15.830  10.739  10.385  1.00  0.00    -0.266 OA
HETATM   25  H6  UNK     1      17.996   9.154   8.562  1.00  0.00     0.190 HD
BRANCH  23  26
HETATM   26  C3  UNK     1      15.679   8.564   9.506  1.00  0.00     0.110 A 
HETATM   27  C4  UNK     1      14.576   8.603   8.748  1.00  0.00     0.037 A 
HETATM   28  C1  UNK     1      13.833   7.383   8.472  1.00  0.00     0.000 A 
HETATM   29  C2  UNK     1      14.288   6.181   9.008  1.00  0.00     0.089 A 
HETATM   30  C6  UNK     1      12.677   7.377   7.689  1.00  0.00     0.033 A 
HETATM   31  O1  UNK     1      15.450   6.147   9.804  1.00  0.00    -0.274 OA
HETATM   32  C7  UNK     1      13.622   4.978   8.782  1.00  0.00     0.039 A 
HETATM   33  C8  UNK     1      16.181   7.298  10.085  1.00  0.00     0.304 A 
HETATM   34  O4  UNK     1      17.191   7.258  10.779  1.00  0.00    -0.259 OA
HETATM   35  C12 UNK     1      12.470   4.981   7.998  1.00  0.00     0.022 A 
HETATM   36  C11 UNK     1      11.998   6.177   7.452  1.00  0.00     0.011 A 
HETATM   37 Br1  UNK     1      10.434   6.173   6.390  1.00  0.00    -0.051 Br
ENDBRANCH  23  26
ENDBRANCH   2  22
TORSDOF 7
ENDMDL
MODEL 8
REMARK VINA RESULT:      -9.3     24.174     26.709
REMARK  7 active torsions:
REMARK  status: ('A' for Active; 'I' for Inactive)
REMARK    1  A    between atoms: C13_24  and  O2_5 
REMARK    2  A    between atoms: C5_16  and  O2_5 
REMARK    3  A    between atoms: C14_25  and  O3_6 
REMARK    4  A    between atoms: C5_16  and  O3_6 
REMARK       I    between atoms: C9_20  and  N1_10 
REMARK    5  A    between atoms: N1_10  and  N2_11 
REMARK       I    between atoms: C10_21  and  N2_11 
REMARK    6  A    between atoms: C3_14  and  C9_20 
REMARK    7  A    between atoms: C10_21  and  C5_16 
ROOT
HETATM    1  O6  UNK     1      18.193  11.354   7.497  1.00  0.00    -0.266 OA
HETATM    2  N2  UNK     1      18.376  10.577   9.676  1.00  0.00    -0.263 N 
HETATM    3  C10 UNK     1      18.641  11.450   8.638  1.00  0.00     0.292 C 
HETATM    4  H7  UNK     1      18.742  10.691  10.616  1.00  0.00     0.190 HD
ENDROOT
BRANCH   3   5
HETATM    5  C5  UNK     1      19.588  12.568   9.055  1.00  0.00     0.367 C 
BRANCH   5   6
HETATM    6  O2  UNK     1      20.926  12.081   9.089  1.00  0.00    -0.311 OA
BRANCH   6   7
HETATM    7  C13 UNK     1      21.668  12.296  10.220  1.00  0.00     0.072 A 
HETATM    8  C15 UNK     1      21.066  12.190  11.470  1.00  0.00     0.038 A 
HETATM    9  C19 UNK     1      21.822  12.410  12.621  1.00  0.00     0.026 A 
HETATM   10  C23 UNK     1      23.174  12.735  12.516  1.00  0.00     0.034 A 
HETATM   11  C21 UNK     1      23.770  12.841  11.259  1.00  0.00     0.026 A 
HETATM   12 Cl1  UNK     1      24.107  13.007  13.937  1.00  0.00    -0.084 Cl
HETATM   13  C17 UNK     1      23.015  12.620  10.108  1.00  0.00     0.038 A 
ENDBRANCH   6   7
ENDBRANCH   5   6
BRANCH   5  14
HETATM   14  O3  UNK     1      19.399  13.510   7.987  1.00  0.00    -0.311 OA
BRANCH  14  15
HETATM   15  C14 UNK     1      20.457  14.307   7.641  1.00  0.00     0.072 A 
HETATM   16  C16 UNK     1      20.790  15.395   8.441  1.00  0.00     0.038 A 
HETATM   17  C20 UNK     1      21.867  16.209   8.088  1.00  0.00     0.026 A 
HETATM   18  C24 UNK     1      22.604  15.929   6.938  1.00  0.00     0.034 A 
HETATM   19  C22 UNK     1      22.266  14.836   6.140  1.00  0.00     0.026 A 
HETATM   20 Cl2  UNK     1      23.933  16.932   6.503  1.00  0.00    -0.084 Cl
HETATM   21  C18 UNK     1      21.189  14.022   6.493  1.00  0.00     0.038 A 
ENDBRANCH  14  15
ENDBRANCH   5  14
ENDBRANCH   3   5
BRANCH   2  22
HETATM   22  N1  UNK     1      17.551   9.503   9.450  1.00  0.00    -0.263 N 
HETATM   23  C9  UNK     1      16.223   9.593   9.809  1.00  0.00     0.276 C 
HETATM   24  O5  UNK     1      15.673  10.562  10.329  1.00  0.00    -0.266 OA
HETATM   25  H6  UNK     1      17.968   8.701   8.989  1.00  0.00     0.190 HD
BRANCH  23  26
HETATM   26  C3  UNK     1      15.473   8.368   9.509  1.00  0.00     0.110 A 
HETATM   27  C4  UNK     1      14.396   8.512   8.727  1.00  0.00     0.037 A 
HETATM   28  C1  UNK     1      13.587   7.355   8.373  1.00  0.00     0.000 A 
HETATM   29  C2  UNK     1      13.954   6.103   8.859  1.00  0.00     0.089 A 
HETATM   30  C6  UNK     1      12.455   7.458   7.562  1.00  0.00     0.033 A 
HETATM   31  O1  UNK     1      15.090   5.959   9.680  1.00  0.00    -0.274 OA
HETATM   32  C7  UNK     1      13.223   4.956   8.558  1.00  0.00     0.039 A 
HETATM   33  C8  UNK     1      15.881   7.047  10.037  1.00  0.00     0.304 A 
HETATM   34  O4  UNK     1      16.868   6.912  10.752  1.00  0.00    -0.259 OA
HETATM   35  C12 UNK     1      12.095   5.067   7.747  1.00  0.00     0.022 A 
HETATM   36  C11 UNK     1      11.712   6.315   7.250  1.00  0.00     0.011 A 
HETATM   37 Br1  UNK     1      10.180   6.459   6.151  1.00  0.00    -0.051 Br
ENDBRANCH  23  26
ENDBRANCH   2  22
TORSDOF 7
ENDMDL
MODEL 9
REMARK VINA RESULT:      -9.3     24.146     26.698
REMARK  7 active torsions:
REMARK  status: ('A' for Active; 'I' for Inactive)
REMARK    1  A    between atoms: C13_24  and  O2_5 
REMARK    2  A    between atoms: C5_16  and  O2_5 
REMARK    3  A    between atoms: C14_25  and  O3_6 
REMARK    4  A    between atoms: C5_16  and  O3_6 
REMARK       I    between atoms: C9_20  and  N1_10 
REMARK    5  A    between atoms: N1_10  and  N2_11 
REMARK       I    between atoms: C10_21  and  N2_11 
REMARK    6  A    between atoms: C3_14  and  C9_20 
REMARK    7  A    between atoms: C10_21  and  C5_16 
ROOT
HETATM    1  O6  UNK     1      17.898  11.460   7.626  1.00  0.00    -0.266 OA
HETATM    2  N2  UNK     1      18.304  10.484   9.692  1.00  0.00    -0.263 N 
HETATM    3  C10 UNK     1      18.455  11.457   8.722  1.00  0.00     0.292 C 
HETATM    4  H7  UNK     1      18.760  10.517  10.599  1.00  0.00     0.190 HD
ENDROOT
BRANCH   3   5
HETATM    5  C5  UNK     1      19.428  12.548   9.150  1.00  0.00     0.367 C 
BRANCH   5   6
HETATM    6  O2  UNK     1      20.755  12.035   9.167  1.00  0.00    -0.311 OA
BRANCH   6   7
HETATM    7  C13 UNK     1      21.527  12.264  10.275  1.00  0.00     0.072 A 
HETATM    8  C15 UNK     1      22.885  12.529  10.126  1.00  0.00     0.038 A 
HETATM    9  C19 UNK     1      23.671  12.761  11.254  1.00  0.00     0.026 A 
HETATM   10  C23 UNK     1      23.096  12.725  12.524  1.00  0.00     0.034 A 
HETATM   11  C21 UNK     1      21.735  12.458  12.666  1.00  0.00     0.026 A 
HETATM   12 Cl1  UNK     1      24.067  13.011  13.917  1.00  0.00    -0.084 Cl
HETATM   13  C17 UNK     1      20.948  12.228  11.538  1.00  0.00     0.038 A 
ENDBRANCH   6   7
ENDBRANCH   5   6
BRANCH   5  14
HETATM   14  O3  UNK     1      19.251  13.510   8.097  1.00  0.00    -0.311 OA
BRANCH  14  15
HETATM   15  C14 UNK     1      20.332  14.270   7.736  1.00  0.00     0.072 A 
HETATM   16  C16 UNK     1      21.076  13.920   6.614  1.00  0.00     0.038 A 
HETATM   17  C20 UNK     1      22.179  14.692   6.248  1.00  0.00     0.026 A 
HETATM   18  C24 UNK     1      22.530  15.809   7.005  1.00  0.00     0.034 A 
HETATM   19  C22 UNK     1      21.779  16.156   8.128  1.00  0.00     0.026 A 
HETATM   20 Cl2  UNK     1      23.889  16.762   6.553  1.00  0.00    -0.084 Cl
HETATM   21  C18 UNK     1      20.676  15.383   8.496  1.00  0.00     0.038 A 
ENDBRANCH  14  15
ENDBRANCH   5  14
ENDBRANCH   3   5
BRANCH   2  22
HETATM   22  N1  UNK     1      17.472   9.421   9.447  1.00  0.00    -0.263 N 
HETATM   23  C9  UNK     1      16.143   9.515   9.801  1.00  0.00     0.276 C 
HETATM   24  O5  UNK     1      15.598  10.480  10.333  1.00  0.00    -0.266 OA
HETATM   25  H6  UNK     1      17.885   8.622   8.975  1.00  0.00     0.190 HD
BRANCH  23  26
HETATM   26  C3  UNK     1      15.385   8.301   9.478  1.00  0.00     0.110 A 
HETATM   27  C4  UNK     1      14.314   8.464   8.692  1.00  0.00     0.037 A 
HETATM   28  C1  UNK     1      13.499   7.319   8.316  1.00  0.00     0.000 A 
HETATM   29  C2  UNK     1      13.852   6.058   8.787  1.00  0.00     0.089 A 
HETATM   30  C6  UNK     1      12.373   7.442   7.499  1.00  0.00     0.033 A 
HETATM   31  O1  UNK     1      14.980   5.893   9.614  1.00  0.00    -0.274 OA
HETATM   32  C7  UNK     1      13.114   4.921   8.465  1.00  0.00     0.039 A 
HETATM   33  C8  UNK     1      15.779   6.970   9.991  1.00  0.00     0.304 A 
HETATM   34  O4  UNK     1      16.759   6.816  10.711  1.00  0.00    -0.259 OA
HETATM   35  C12 UNK     1      11.992   5.053   7.649  1.00  0.00     0.022 A 
HETATM   36  C11 UNK     1      11.622   6.310   7.166  1.00  0.00     0.011 A 
HETATM   37 Br1  UNK     1      10.099   6.482   6.059  1.00  0.00    -0.051 Br
ENDBRANCH  23  26
ENDBRANCH   2  22
TORSDOF 7
ENDMDL
MODEL 10
REMARK VINA RESULT:      -9.2     13.883     17.350
REMARK  7 active torsions:
REMARK  status: ('A' for Active; 'I' for Inactive)
REMARK    1  A    between atoms: C13_24  and  O2_5 
REMARK    2  A    between atoms: C5_16  and  O2_5 
REMARK    3  A    between atoms: C14_25  and  O3_6 
REMARK    4  A    between atoms: C5_16  and  O3_6 
REMARK       I    between atoms: C9_20  and  N1_10 
REMARK    5  A    between atoms: N1_10  and  N2_11 
REMARK       I    between atoms: C10_21  and  N2_11 
REMARK    6  A    between atoms: C3_14  and  C9_20 
REMARK    7  A    between atoms: C10_21  and  C5_16 
ROOT
HETATM    1  O6  UNK     1      26.429  -6.326  38.311  1.00  0.00    -0.266 OA
HETATM    2  N2  UNK     1      27.158  -8.514  38.570  1.00  0.00    -0.263 N 
HETATM    3  C10 UNK     1      26.200  -7.521  38.484  1.00  0.00     0.292 C 
HETATM    4  H7  UNK     1      26.941  -9.498  38.692  1.00  0.00     0.190 HD
ENDROOT
BRANCH   3   5
HETATM    5  C5  UNK     1      24.789  -8.070  38.654  1.00  0.00     0.367 C 
BRANCH   5   6
HETATM    6  O2  UNK     1      23.960  -7.091  39.271  1.00  0.00    -0.311 OA
BRANCH   6   7
HETATM    7  C13 UNK     1      22.633  -7.057  38.936  1.00  0.00     0.072 A 
HETATM    8  C15 UNK     1      22.129  -5.972  38.224  1.00  0.00     0.038 A 
HETATM    9  C19 UNK     1      20.777  -5.938  37.884  1.00  0.00     0.026 A 
HETATM   10  C23 UNK     1      19.937  -6.986  38.257  1.00  0.00     0.034 A 
HETATM   11  C21 UNK     1      20.448  -8.070  38.971  1.00  0.00     0.026 A 
HETATM   12 Cl1  UNK     1      18.268  -6.942  37.837  1.00  0.00    -0.084 Cl
HETATM   13  C17 UNK     1      21.800  -8.105  39.310  1.00  0.00     0.038 A 
ENDBRANCH   6   7
ENDBRANCH   5   6
BRANCH   5  14
HETATM   14  O3  UNK     1      24.409  -8.293  37.286  1.00  0.00    -0.311 OA
BRANCH  14  15
HETATM   15  C14 UNK     1      24.401  -9.583  36.827  1.00  0.00     0.072 A 
HETATM   16  C16 UNK     1      23.210 -10.153  36.391  1.00  0.00     0.038 A 
HETATM   17  C20 UNK     1      23.201 -11.468  35.926  1.00  0.00     0.026 A 
HETATM   18  C24 UNK     1      24.384 -12.205  35.900  1.00  0.00     0.034 A 
HETATM   19  C22 UNK     1      25.577 -11.629  36.338  1.00  0.00     0.026 A 
HETATM   20 Cl2  UNK     1      24.374 -13.827  35.325  1.00  0.00    -0.084 Cl
HETATM   21  C18 UNK     1      25.585 -10.314  36.804  1.00  0.00     0.038 A 
ENDBRANCH  14  15
ENDBRANCH   5  14
ENDBRANCH   3   5
BRANCH   2  22
HETATM   22  N1  UNK     1      28.483  -8.174  38.455  1.00  0.00    -0.263 N 
HETATM   23  C9  UNK     1      29.101  -8.293  37.229  1.00  0.00     0.276 C 
HETATM   24  O5  UNK     1      28.581  -8.685  36.186  1.00  0.00    -0.266 OA
HETATM   25  H6  UNK     1      28.931  -7.811  39.291  1.00  0.00     0.190 HD
BRANCH  23  26
HETATM   26  C3  UNK     1      30.513  -7.895  37.266  1.00  0.00     0.110 A 
HETATM   27  C4  UNK     1      30.853  -6.848  36.505  1.00  0.00     0.037 A 
HETATM   28  C1  UNK     1      32.230  -6.378  36.476  1.00  0.00     0.000 A 
HETATM   29  C2  UNK     1      33.181  -7.035  37.252  1.00  0.00     0.089 A 
HETATM   30  C6  UNK     1      32.630  -5.292  35.696  1.00  0.00     0.033 A 
HETATM   31  O1  UNK     1      32.817  -8.136  38.051  1.00  0.00    -0.274 OA
HETATM   32  C7  UNK     1      34.516  -6.637  37.269  1.00  0.00     0.039 A 
HETATM   33  C8  UNK     1      31.508  -8.608  38.098  1.00  0.00     0.304 A 
HETATM   34  O4  UNK     1      31.200  -9.567  38.798  1.00  0.00    -0.259 OA
HETATM   35  C12 UNK     1      34.906  -5.551  36.488  1.00  0.00     0.022 A 
HETATM   36  C11 UNK     1      33.966  -4.879  35.703  1.00  0.00     0.011 A 
HETATM   37 Br1  UNK     1      34.503  -3.406  34.646  1.00  0.00    -0.051 Br
ENDBRANCH  23  26
ENDBRANCH   2  22
TORSDOF 7
ENDMDL
