MODEL 1
REMARK VINA RESULT:      -9.2      0.000      0.000
REMARK  4 active torsions:
REMARK  status: ('A' for Active; 'I' for Inactive)
REMARK    1  A    between atoms: C15_22  and  O3_3 
REMARK    2  A    between atoms: C18_25  and  O5_5 
REMARK    3  A    between atoms: C5_12  and  N1_6 
REMARK       I    between atoms: C6_13  and  N2_7 
REMARK    4  A    between atoms: C6_13  and  C7_14 
ROOT
HETATM    1  O1  UNK     1      17.577   2.397  31.126  1.00  0.00    -0.267 OA
HETATM    2  N1  UNK     1      18.514   6.879  33.268  1.00  0.00    -0.378 N 
HETATM    3  N2  UNK     1      18.281   4.077  32.576  1.00  0.00    -0.345 N 
HETATM    4  C1  UNK     1      17.591   6.425  32.224  1.00  0.00     0.143 C 
HETATM    5  C2  UNK     1      19.418   5.893  33.865  1.00  0.00     0.143 C 
HETATM    6  C3  UNK     1      18.092   5.132  31.583  1.00  0.00     0.146 C 
HETATM    7  C4  UNK     1      18.773   4.507  33.889  1.00  0.00     0.146 C 
HETATM    8  C6  UNK     1      17.991   2.758  32.228  1.00  0.00     0.260 C 
ENDROOT
BRANCH   8   9
HETATM    9  C7  UNK     1      18.187   1.728  33.269  1.00  0.00     0.108 A 
HETATM   10  C10 UNK     1      17.665   1.996  34.472  1.00  0.00     0.037 A 
HETATM   11  C13 UNK     1      17.806   1.042  35.562  1.00  0.00     0.002 A 
HETATM   12  C16 UNK     1      18.490  -0.147  35.331  1.00  0.00     0.123 A 
HETATM   13  C17 UNK     1      17.278   1.279  36.832  1.00  0.00     0.014 A 
HETATM   14  O2  UNK     1      19.037  -0.423  34.061  1.00  0.00    -0.271 OA
HETATM   15  C18 UNK     1      18.661  -1.102  36.330  1.00  0.00     0.102 A 
HETATM   16  C14 UNK     1      18.917   0.469  33.000  1.00  0.00     0.304 A 
HETATM   17  O4  UNK     1      19.397   0.220  31.899  1.00  0.00    -0.259 OA
HETATM   18  C20 UNK     1      18.131  -0.857  37.595  1.00  0.00     0.040 A 
HETATM   19  C19 UNK     1      17.441   0.331  37.846  1.00  0.00     0.004 A 
BRANCH  15  20
HETATM   20  O5  UNK     1      19.332  -2.260  36.091  1.00  0.00    -0.353 OA
HETATM   21  C22 UNK     1      19.863  -2.951  37.221  1.00  0.00     0.210 C 
ENDBRANCH  15  20
ENDBRANCH   8   9
BRANCH   2  22
HETATM   22  C5  UNK     1      18.567   8.221  33.632  1.00  0.00     0.030 A 
HETATM   23  C8  UNK     1      17.430   9.058  33.530  1.00  0.00     0.032 A 
HETATM   24  C11 UNK     1      17.484  10.403  33.895  1.00  0.00     0.039 A 
HETATM   25  C15 UNK     1      18.675  10.950  34.371  1.00  0.00     0.068 A 
HETATM   26  C12 UNK     1      19.813  10.152  34.484  1.00  0.00     0.039 A 
HETATM   27  C9  UNK     1      19.760   8.807  34.118  1.00  0.00     0.032 A 
BRANCH  25  28
HETATM   28  O3  UNK     1      18.726  12.263  34.727  1.00  0.00    -0.356 OA
HETATM   29  C21 UNK     1      18.181  13.207  33.807  1.00  0.00     0.210 C 
ENDBRANCH  25  28
ENDBRANCH   2  22
TORSDOF 4
ENDMDL
MODEL 2
REMARK VINA RESULT:      -9.2      3.691      6.459
REMARK  4 active torsions:
REMARK  status: ('A' for Active; 'I' for Inactive)
REMARK    1  A    between atoms: C15_22  and  O3_3 
REMARK    2  A    between atoms: C18_25  and  O5_5 
REMARK    3  A    between atoms: C5_12  and  N1_6 
REMARK       I    between atoms: C6_13  and  N2_7 
REMARK    4  A    between atoms: C6_13  and  C7_14 
ROOT
HETATM    1  O1  UNK     1      18.666  -1.431  38.538  1.00  0.00    -0.267 OA
HETATM    2  N1  UNK     1      18.344   1.526  34.452  1.00  0.00    -0.378 N 
HETATM    3  N2  UNK     1      18.497  -0.655  36.350  1.00  0.00    -0.345 N 
HETATM    4  C1  UNK     1      18.781   1.746  35.833  1.00  0.00     0.143 C 
HETATM    5  C2  UNK     1      17.856   0.194  34.087  1.00  0.00     0.143 C 
HETATM    6  C3  UNK     1      18.167   0.706  36.768  1.00  0.00     0.146 C 
HETATM    7  C4  UNK     1      18.563  -0.888  34.904  1.00  0.00     0.146 C 
HETATM    8  C6  UNK     1      18.722  -1.627  37.324  1.00  0.00     0.260 C 
ENDROOT
BRANCH   8   9
HETATM    9  C7  UNK     1      19.063  -2.986  36.853  1.00  0.00     0.108 A 
HETATM   10  C10 UNK     1      18.074  -3.886  36.883  1.00  0.00     0.037 A 
HETATM   11  C13 UNK     1      18.311  -5.252  36.438  1.00  0.00     0.002 A 
HETATM   12  C16 UNK     1      19.580  -5.601  35.985  1.00  0.00     0.123 A 
HETATM   13  C17 UNK     1      17.310  -6.224  36.451  1.00  0.00     0.014 A 
HETATM   14  O2  UNK     1      20.616  -4.646  35.956  1.00  0.00    -0.271 OA
HETATM   15  C18 UNK     1      19.873  -6.890  35.546  1.00  0.00     0.102 A 
HETATM   16  C14 UNK     1      20.419  -3.334  36.373  1.00  0.00     0.304 A 
HETATM   17  O4  UNK     1      21.328  -2.510  36.344  1.00  0.00    -0.259 OA
HETATM   18  C20 UNK     1      18.868  -7.854  35.563  1.00  0.00     0.040 A 
HETATM   19  C19 UNK     1      17.589  -7.522  36.014  1.00  0.00     0.004 A 
BRANCH  15  20
HETATM   20  O5  UNK     1      21.117  -7.217  35.106  1.00  0.00    -0.353 OA
HETATM   21  C22 UNK     1      21.450  -8.604  35.067  1.00  0.00     0.210 C 
ENDBRANCH  15  20
ENDBRANCH   8   9
BRANCH   2  22
HETATM   22  C5  UNK     1      18.338   2.574  33.535  1.00  0.00     0.030 A 
HETATM   23  C8  UNK     1      18.348   2.333  32.141  1.00  0.00     0.032 A 
HETATM   24  C11 UNK     1      18.340   3.384  31.223  1.00  0.00     0.039 A 
HETATM   25  C15 UNK     1      18.323   4.704  31.673  1.00  0.00     0.068 A 
HETATM   26  C12 UNK     1      18.312   4.974  33.042  1.00  0.00     0.039 A 
HETATM   27  C9  UNK     1      18.320   3.924  33.960  1.00  0.00     0.032 A 
BRANCH  25  28
HETATM   28  O3  UNK     1      18.315   5.728  30.778  1.00  0.00    -0.356 OA
HETATM   29  C21 UNK     1      19.491   5.913  29.991  1.00  0.00     0.210 C 
ENDBRANCH  25  28
ENDBRANCH   2  22
TORSDOF 4
ENDMDL
MODEL 3
REMARK VINA RESULT:      -9.1      5.653     11.332
REMARK  4 active torsions:
REMARK  status: ('A' for Active; 'I' for Inactive)
REMARK    1  A    between atoms: C15_22  and  O3_3 
REMARK    2  A    between atoms: C18_25  and  O5_5 
REMARK    3  A    between atoms: C5_12  and  N1_6 
REMARK       I    between atoms: C6_13  and  N2_7 
REMARK    4  A    between atoms: C6_13  and  C7_14 
ROOT
HETATM    1  O1  UNK     1      17.383   0.426  35.495  1.00  0.00    -0.267 OA
HETATM    2  N1  UNK     1      19.893  -3.739  36.873  1.00  0.00    -0.378 N 
HETATM    3  N2  UNK     1      18.870  -1.363  35.572  1.00  0.00    -0.345 N 
HETATM    4  C1  UNK     1      18.595  -3.167  37.241  1.00  0.00     0.143 C 
HETATM    5  C2  UNK     1      20.726  -3.002  35.921  1.00  0.00     0.143 C 
HETATM    6  C3  UNK     1      18.569  -1.664  36.970  1.00  0.00     0.146 C 
HETATM    7  C4  UNK     1      19.862  -2.228  34.925  1.00  0.00     0.146 C 
HETATM    8  C6  UNK     1      18.216  -0.300  34.951  1.00  0.00     0.260 C 
ENDROOT
BRANCH   8   9
HETATM    9  C7  UNK     1      18.546  -0.042  33.534  1.00  0.00     0.108 A 
HETATM   10  C10 UNK     1      19.135  -1.044  32.873  1.00  0.00     0.037 A 
HETATM   11  C13 UNK     1      19.498  -0.886  31.472  1.00  0.00     0.002 A 
HETATM   12  C16 UNK     1      19.221   0.322  30.838  1.00  0.00     0.123 A 
HETATM   13  C17 UNK     1      20.114  -1.904  30.742  1.00  0.00     0.014 A 
HETATM   14  O2  UNK     1      18.599   1.373  31.541  1.00  0.00    -0.271 OA
HETATM   15  C18 UNK     1      19.542   0.538  29.500  1.00  0.00     0.102 A 
HETATM   16  C14 UNK     1      18.240   1.250  32.880  1.00  0.00     0.304 A 
HETATM   17  O4  UNK     1      17.700   2.171  33.483  1.00  0.00    -0.259 OA
HETATM   18  C20 UNK     1      20.157  -0.483  28.779  1.00  0.00     0.040 A 
HETATM   19  C19 UNK     1      20.442  -1.702  29.399  1.00  0.00     0.004 A 
BRANCH  15  20
HETATM   20  O5  UNK     1      19.267   1.723  28.893  1.00  0.00    -0.353 OA
HETATM   21  C22 UNK     1      17.915   1.953  28.497  1.00  0.00     0.210 C 
ENDBRANCH  15  20
ENDBRANCH   8   9
BRANCH   2  22
HETATM   22  C5  UNK     1      20.340  -4.917  37.464  1.00  0.00     0.030 A 
HETATM   23  C8  UNK     1      21.643  -5.021  38.006  1.00  0.00     0.032 A 
HETATM   24  C11 UNK     1      22.091  -6.202  38.599  1.00  0.00     0.039 A 
HETATM   25  C15 UNK     1      21.249  -7.312  38.667  1.00  0.00     0.068 A 
HETATM   26  C12 UNK     1      19.958  -7.241  38.143  1.00  0.00     0.039 A 
HETATM   27  C9  UNK     1      19.510  -6.061  37.549  1.00  0.00     0.032 A 
BRANCH  25  28
HETATM   28  O3  UNK     1      21.686  -8.463  39.247  1.00  0.00    -0.356 OA
HETATM   29  C21 UNK     1      20.747  -9.533  39.354  1.00  0.00     0.210 C 
ENDBRANCH  25  28
ENDBRANCH   2  22
TORSDOF 4
ENDMDL
MODEL 4
REMARK VINA RESULT:      -8.9     25.213     27.344
REMARK  4 active torsions:
REMARK  status: ('A' for Active; 'I' for Inactive)
REMARK    1  A    between atoms: C15_22  and  O3_3 
REMARK    2  A    between atoms: C18_25  and  O5_5 
REMARK    3  A    between atoms: C5_12  and  N1_6 
REMARK       I    between atoms: C6_13  and  N2_7 
REMARK    4  A    between atoms: C6_13  and  C7_14 
ROOT
HETATM    1  O1  UNK     1      15.756   7.183  10.480  1.00  0.00    -0.267 OA
HETATM    2  N1  UNK     1      17.112  11.538   8.301  1.00  0.00    -0.378 N 
HETATM    3  N2  UNK     1      15.727   9.241   9.391  1.00  0.00    -0.345 N 
HETATM    4  C1  UNK     1      17.828  10.305   8.640  1.00  0.00     0.143 C 
HETATM    5  C2  UNK     1      15.694  11.630   8.653  1.00  0.00     0.143 C 
HETATM    6  C3  UNK     1      17.108   9.549   9.755  1.00  0.00     0.146 C 
HETATM    7  C4  UNK     1      15.028  10.255   8.595  1.00  0.00     0.146 C 
HETATM    8  C6  UNK     1      15.168   8.035   9.811  1.00  0.00     0.260 C 
ENDROOT
BRANCH   8   9
HETATM    9  C7  UNK     1      13.772   7.763   9.410  1.00  0.00     0.108 A 
HETATM   10  C10 UNK     1      13.599   7.247   8.188  1.00  0.00     0.037 A 
HETATM   11  C13 UNK     1      12.260   6.945   7.702  1.00  0.00     0.002 A 
HETATM   12  C16 UNK     1      11.171   7.200   8.530  1.00  0.00     0.123 A 
HETATM   13  C17 UNK     1      12.031   6.406   6.435  1.00  0.00     0.014 A 
HETATM   14  O2  UNK     1      11.362   7.743   9.816  1.00  0.00    -0.271 OA
HETATM   15  C18 UNK     1       9.864   6.934   8.126  1.00  0.00     0.102 A 
HETATM   16  C14 UNK     1      12.629   8.042  10.308  1.00  0.00     0.304 A 
HETATM   17  O4  UNK     1      12.785   8.514  11.429  1.00  0.00    -0.259 OA
HETATM   18  C20 UNK     1       9.645   6.397   6.860  1.00  0.00     0.040 A 
HETATM   19  C19 UNK     1      10.726   6.133   6.016  1.00  0.00     0.004 A 
BRANCH  15  20
HETATM   20  O5  UNK     1       8.809   7.189   8.945  1.00  0.00    -0.353 OA
HETATM   21  C22 UNK     1       7.980   6.084   9.302  1.00  0.00     0.210 C 
ENDBRANCH  15  20
ENDBRANCH   8   9
BRANCH   2  22
HETATM   22  C5  UNK     1      17.784  12.610   7.719  1.00  0.00     0.030 A 
HETATM   23  C8  UNK     1      17.973  13.827   8.417  1.00  0.00     0.032 A 
HETATM   24  C11 UNK     1      18.647  14.900   7.833  1.00  0.00     0.039 A 
HETATM   25  C15 UNK     1      19.149  14.788   6.537  1.00  0.00     0.068 A 
HETATM   26  C12 UNK     1      18.979  13.601   5.823  1.00  0.00     0.039 A 
HETATM   27  C9  UNK     1      18.305  12.528   6.406  1.00  0.00     0.032 A 
BRANCH  25  28
HETATM   28  O3  UNK     1      19.806  15.835   5.969  1.00  0.00    -0.356 OA
HETATM   29  C21 UNK     1      20.806  15.526   4.999  1.00  0.00     0.210 C 
ENDBRANCH  25  28
ENDBRANCH   2  22
TORSDOF 4
ENDMDL
MODEL 5
REMARK VINA RESULT:      -8.9     12.866     15.721
REMARK  4 active torsions:
REMARK  status: ('A' for Active; 'I' for Inactive)
REMARK    1  A    between atoms: C15_22  and  O3_3 
REMARK    2  A    between atoms: C18_25  and  O5_5 
REMARK    3  A    between atoms: C5_12  and  N1_6 
REMARK       I    between atoms: C6_13  and  N2_7 
REMARK    4  A    between atoms: C6_13  and  C7_14 
ROOT
HETATM    1  O1  UNK     1      23.484 -11.828  35.513  1.00  0.00    -0.267 OA
HETATM    2  N1  UNK     1      27.239  -8.965  37.316  1.00  0.00    -0.378 N 
HETATM    3  N2  UNK     1      24.706 -10.144  36.557  1.00  0.00    -0.345 N 
HETATM    4  C1  UNK     1      27.160 -10.011  36.293  1.00  0.00     0.143 C 
HETATM    5  C2  UNK     1      26.016  -8.621  38.046  1.00  0.00     0.143 C 
HETATM    6  C3  UNK     1      25.949 -10.911  36.530  1.00  0.00     0.146 C 
HETATM    7  C4  UNK     1      24.783  -8.810  37.162  1.00  0.00     0.146 C 
HETATM    8  C6  UNK     1      23.549 -10.708  36.022  1.00  0.00     0.260 C 
ENDROOT
BRANCH   8   9
HETATM    9  C7  UNK     1      22.319  -9.890  36.062  1.00  0.00     0.108 A 
HETATM   10  C10 UNK     1      21.938  -9.456  37.269  1.00  0.00     0.037 A 
HETATM   11  C13 UNK     1      20.740  -8.643  37.412  1.00  0.00     0.002 A 
HETATM   12  C16 UNK     1      20.001  -8.327  36.275  1.00  0.00     0.123 A 
HETATM   13  C17 UNK     1      20.304  -8.167  38.650  1.00  0.00     0.014 A 
HETATM   14  O2  UNK     1      20.409  -8.788  35.007  1.00  0.00    -0.271 OA
HETATM   15  C18 UNK     1      18.845  -7.553  36.342  1.00  0.00     0.102 A 
HETATM   16  C14 UNK     1      21.550  -9.566  34.840  1.00  0.00     0.304 A 
HETATM   17  O4  UNK     1      21.897  -9.962  33.732  1.00  0.00    -0.259 OA
HETATM   18  C20 UNK     1      18.418  -7.083  37.583  1.00  0.00     0.040 A 
HETATM   19  C19 UNK     1      19.146  -7.390  38.734  1.00  0.00     0.004 A 
BRANCH  15  20
HETATM   20  O5  UNK     1      18.133  -7.253  35.224  1.00  0.00    -0.353 OA
HETATM   21  C22 UNK     1      16.710  -7.273  35.332  1.00  0.00     0.210 C 
ENDBRANCH  15  20
ENDBRANCH   8   9
BRANCH   2  22
HETATM   22  C5  UNK     1      28.457  -8.365  37.624  1.00  0.00     0.030 A 
HETATM   23  C8  UNK     1      29.686  -8.965  37.259  1.00  0.00     0.032 A 
HETATM   24  C11 UNK     1      30.906  -8.363  37.567  1.00  0.00     0.039 A 
HETATM   25  C15 UNK     1      30.933  -7.146  38.248  1.00  0.00     0.068 A 
HETATM   26  C12 UNK     1      29.738  -6.529  38.621  1.00  0.00     0.039 A 
HETATM   27  C9  UNK     1      28.517  -7.131  38.314  1.00  0.00     0.032 A 
BRANCH  25  28
HETATM   28  O3  UNK     1      32.123  -6.559  38.547  1.00  0.00    -0.356 OA
HETATM   29  C21 UNK     1      32.399  -5.300  37.935  1.00  0.00     0.210 C 
ENDBRANCH  25  28
ENDBRANCH   2  22
TORSDOF 4
ENDMDL
MODEL 6
REMARK VINA RESULT:      -8.8     24.434     26.269
REMARK  4 active torsions:
REMARK  status: ('A' for Active; 'I' for Inactive)
REMARK    1  A    between atoms: C15_22  and  O3_3 
REMARK    2  A    between atoms: C18_25  and  O5_5 
REMARK    3  A    between atoms: C5_12  and  N1_6 
REMARK       I    between atoms: C6_13  and  N2_7 
REMARK    4  A    between atoms: C6_13  and  C7_14 
ROOT
HETATM    1  O1  UNK     1       9.643   5.768   6.810  1.00  0.00    -0.267 OA
HETATM    2  N1  UNK     1      13.771   7.899   8.802  1.00  0.00    -0.378 N 
HETATM    3  N2  UNK     1      11.242   6.583   8.292  1.00  0.00    -0.345 N 
HETATM    4  C1  UNK     1      13.132   7.958   7.485  1.00  0.00     0.143 C 
HETATM    5  C2  UNK     1      13.164   7.043   9.825  1.00  0.00     0.143 C 
HETATM    6  C3  UNK     1      12.258   6.727   7.251  1.00  0.00     0.146 C 
HETATM    7  C4  UNK     1      11.647   6.974   9.647  1.00  0.00     0.146 C 
HETATM    8  C6  UNK     1       9.983   6.096   7.948  1.00  0.00     0.260 C 
ENDROOT
BRANCH   8   9
HETATM    9  C7  UNK     1       8.986   5.977   9.033  1.00  0.00     0.108 A 
HETATM   10  C10 UNK     1       8.085   6.962   9.117  1.00  0.00     0.037 A 
HETATM   11  C13 UNK     1       7.062   6.935  10.152  1.00  0.00     0.002 A 
HETATM   12  C16 UNK     1       7.040   5.870  11.047  1.00  0.00     0.123 A 
HETATM   13  C17 UNK     1       6.101   7.940  10.277  1.00  0.00     0.014 A 
HETATM   14  O2  UNK     1       7.992   4.836  10.952  1.00  0.00    -0.271 OA
HETATM   15  C18 UNK     1       6.088   5.784  12.061  1.00  0.00     0.102 A 
HETATM   16  C14 UNK     1       8.981   4.834   9.973  1.00  0.00     0.304 A 
HETATM   17  O4  UNK     1       9.805   3.930   9.899  1.00  0.00    -0.259 OA
HETATM   18  C20 UNK     1       5.134   6.791  12.179  1.00  0.00     0.040 A 
HETATM   19  C19 UNK     1       5.140   7.868  11.289  1.00  0.00     0.004 A 
BRANCH  15  20
HETATM   20  O5  UNK     1       6.079   4.738  12.930  1.00  0.00    -0.353 OA
HETATM   21  C22 UNK     1       5.631   5.000  14.260  1.00  0.00     0.210 C 
ENDBRANCH  15  20
ENDBRANCH   8   9
BRANCH   2  22
HETATM   22  C5  UNK     1      14.954   8.589   9.047  1.00  0.00     0.030 A 
HETATM   23  C8  UNK     1      15.168   9.891   8.533  1.00  0.00     0.032 A 
HETATM   24  C11 UNK     1      16.354  10.583   8.780  1.00  0.00     0.039 A 
HETATM   25  C15 UNK     1      17.359   9.994   9.546  1.00  0.00     0.068 A 
HETATM   26  C12 UNK     1      17.179   8.712  10.068  1.00  0.00     0.039 A 
HETATM   27  C9  UNK     1      15.993   8.020   9.821  1.00  0.00     0.032 A 
BRANCH  25  28
HETATM   28  O3  UNK     1      18.515  10.670   9.787  1.00  0.00    -0.356 OA
HETATM   29  C21 UNK     1      18.789  11.802   8.962  1.00  0.00     0.210 C 
ENDBRANCH  25  28
ENDBRANCH   2  22
TORSDOF 4
ENDMDL
MODEL 7
REMARK VINA RESULT:      -8.8     13.888     18.798
REMARK  4 active torsions:
REMARK  status: ('A' for Active; 'I' for Inactive)
REMARK    1  A    between atoms: C15_22  and  O3_3 
REMARK    2  A    between atoms: C18_25  and  O5_5 
REMARK    3  A    between atoms: C5_12  and  N1_6 
REMARK       I    between atoms: C6_13  and  N2_7 
REMARK    4  A    between atoms: C6_13  and  C7_14 
ROOT
HETATM    1  O1  UNK     1      32.699  -5.077  38.950  1.00  0.00    -0.267 OA
HETATM    2  N1  UNK     1      33.948  -7.026  34.457  1.00  0.00    -0.378 N 
HETATM    3  N2  UNK     1      32.619  -5.957  36.797  1.00  0.00    -0.345 N 
HETATM    4  C1  UNK     1      34.641  -6.912  35.743  1.00  0.00     0.143 C 
HETATM    5  C2  UNK     1      32.601  -6.461  34.348  1.00  0.00     0.143 C 
HETATM    6  C3  UNK     1      34.052  -5.776  36.577  1.00  0.00     0.146 C 
HETATM    7  C4  UNK     1      31.864  -6.545  35.685  1.00  0.00     0.146 C 
HETATM    8  C6  UNK     1      32.065  -5.570  38.017  1.00  0.00     0.260 C 
ENDROOT
BRANCH   8   9
HETATM    9  C7  UNK     1      30.614  -5.783  38.196  1.00  0.00     0.108 A 
HETATM   10  C10 UNK     1      30.227  -7.039  38.443  1.00  0.00     0.037 A 
HETATM   11  C13 UNK     1      28.818  -7.349  38.635  1.00  0.00     0.002 A 
HETATM   12  C16 UNK     1      27.886  -6.319  38.556  1.00  0.00     0.123 A 
HETATM   13  C17 UNK     1      28.368  -8.645  38.895  1.00  0.00     0.014 A 
HETATM   14  O2  UNK     1      28.301  -4.997  38.296  1.00  0.00    -0.271 OA
HETATM   15  C18 UNK     1      26.523  -6.547  38.730  1.00  0.00     0.102 A 
HETATM   16  C14 UNK     1      29.641  -4.671  38.110  1.00  0.00     0.304 A 
HETATM   17  O4  UNK     1      29.992  -3.518  37.884  1.00  0.00    -0.259 OA
HETATM   18  C20 UNK     1      26.083  -7.843  38.989  1.00  0.00     0.040 A 
HETATM   19  C19 UNK     1      27.004  -8.890  39.071  1.00  0.00     0.004 A 
BRANCH  15  20
HETATM   20  O5  UNK     1      25.623  -5.531  38.651  1.00  0.00    -0.353 OA
HETATM   21  C22 UNK     1      24.291  -5.805  39.083  1.00  0.00     0.210 C 
ENDBRANCH  15  20
ENDBRANCH   8   9
BRANCH   2  22
HETATM   22  C5  UNK     1      34.582  -7.601  33.359  1.00  0.00     0.030 A 
HETATM   23  C8  UNK     1      35.723  -8.424  33.515  1.00  0.00     0.032 A 
HETATM   24  C11 UNK     1      36.358  -9.000  32.414  1.00  0.00     0.039 A 
HETATM   25  C15 UNK     1      35.870  -8.770  31.128  1.00  0.00     0.068 A 
HETATM   26  C12 UNK     1      34.747  -7.964  30.941  1.00  0.00     0.039 A 
HETATM   27  C9  UNK     1      34.112  -7.387  32.041  1.00  0.00     0.032 A 
BRANCH  25  28
HETATM   28  O3  UNK     1      36.490  -9.333  30.055  1.00  0.00    -0.356 OA
HETATM   29  C21 UNK     1      37.457 -10.348  30.322  1.00  0.00     0.210 C 
ENDBRANCH  25  28
ENDBRANCH   2  22
TORSDOF 4
ENDMDL
MODEL 8
REMARK VINA RESULT:      -8.8      3.953     10.898
REMARK  4 active torsions:
REMARK  status: ('A' for Active; 'I' for Inactive)
REMARK    1  A    between atoms: C15_22  and  O3_3 
REMARK    2  A    between atoms: C18_25  and  O5_5 
REMARK    3  A    between atoms: C5_12  and  N1_6 
REMARK       I    between atoms: C6_13  and  N2_7 
REMARK    4  A    between atoms: C6_13  and  C7_14 
ROOT
HETATM    1  O1  UNK     1      17.264   0.965  37.647  1.00  0.00    -0.267 OA
HETATM    2  N1  UNK     1      19.758  -3.349  36.798  1.00  0.00    -0.378 N 
HETATM    3  N2  UNK     1      18.609  -0.693  36.717  1.00  0.00    -0.345 N 
HETATM    4  C1  UNK     1      18.625  -2.981  37.652  1.00  0.00     0.143 C 
HETATM    5  C2  UNK     1      20.385  -2.297  35.995  1.00  0.00     0.143 C 
HETATM    6  C3  UNK     1      18.632  -1.483  37.946  1.00  0.00     0.146 C 
HETATM    7  C4  UNK     1      19.360  -1.241  35.583  1.00  0.00     0.146 C 
HETATM    8  C6  UNK     1      17.895   0.505  36.694  1.00  0.00     0.260 C 
ENDROOT
BRANCH   8   9
HETATM    9  C7  UNK     1      17.892   1.263  35.426  1.00  0.00     0.108 A 
HETATM   10  C10 UNK     1      18.473   2.468  35.457  1.00  0.00     0.037 A 
HETATM   11  C13 UNK     1      18.521   3.290  34.258  1.00  0.00     0.002 A 
HETATM   12  C16 UNK     1      17.954   2.803  33.084  1.00  0.00     0.123 A 
HETATM   13  C17 UNK     1      19.117   4.553  34.243  1.00  0.00     0.014 A 
HETATM   14  O2  UNK     1      17.344   1.533  33.059  1.00  0.00    -0.271 OA
HETATM   15  C18 UNK     1      17.966   3.539  31.902  1.00  0.00     0.102 A 
HETATM   16  C14 UNK     1      17.283   0.723  34.190  1.00  0.00     0.304 A 
HETATM   17  O4  UNK     1      16.750  -0.381  34.158  1.00  0.00    -0.259 OA
HETATM   18  C20 UNK     1      18.562   4.798  31.897  1.00  0.00     0.040 A 
HETATM   19  C19 UNK     1      19.137   5.304  33.065  1.00  0.00     0.004 A 
BRANCH  15  20
HETATM   20  O5  UNK     1      17.407   3.050  30.763  1.00  0.00    -0.353 OA
HETATM   21  C22 UNK     1      18.290   2.480  29.797  1.00  0.00     0.210 C 
ENDBRANCH  15  20
ENDBRANCH   8   9
BRANCH   2  22
HETATM   22  C5  UNK     1      20.257  -4.648  36.805  1.00  0.00     0.030 A 
HETATM   23  C8  UNK     1      19.900  -5.579  35.801  1.00  0.00     0.032 A 
HETATM   24  C11 UNK     1      20.402  -6.882  35.807  1.00  0.00     0.039 A 
HETATM   25  C15 UNK     1      21.273  -7.289  36.817  1.00  0.00     0.068 A 
HETATM   26  C12 UNK     1      21.644  -6.394  37.821  1.00  0.00     0.039 A 
HETATM   27  C9  UNK     1      21.143  -5.093  37.816  1.00  0.00     0.032 A 
BRANCH  25  28
HETATM   28  O3  UNK     1      21.762  -8.559  36.822  1.00  0.00    -0.356 OA
HETATM   29  C21 UNK     1      21.708  -9.281  35.592  1.00  0.00     0.210 C 
ENDBRANCH  25  28
ENDBRANCH   2  22
TORSDOF 4
ENDMDL
MODEL 9
REMARK VINA RESULT:      -8.7     13.219     15.558
REMARK  4 active torsions:
REMARK  status: ('A' for Active; 'I' for Inactive)
REMARK    1  A    between atoms: C15_22  and  O3_3 
REMARK    2  A    between atoms: C18_25  and  O5_5 
REMARK    3  A    between atoms: C5_12  and  N1_6 
REMARK       I    between atoms: C6_13  and  N2_7 
REMARK    4  A    between atoms: C6_13  and  C7_14 
ROOT
HETATM    1  O1  UNK     1      26.715  -9.785  39.750  1.00  0.00    -0.267 OA
HETATM    2  N1  UNK     1      29.707  -6.361  37.542  1.00  0.00    -0.378 N 
HETATM    3  N2  UNK     1      27.511  -7.936  38.580  1.00  0.00    -0.345 N 
HETATM    4  C1  UNK     1      29.907  -7.738  38.003  1.00  0.00     0.143 C 
HETATM    5  C2  UNK     1      28.391  -5.751  37.743  1.00  0.00     0.143 C 
HETATM    6  C3  UNK     1      28.877  -8.106  39.069  1.00  0.00     0.146 C 
HETATM    7  C4  UNK     1      27.286  -6.804  37.674  1.00  0.00     0.146 C 
HETATM    8  C6  UNK     1      26.526  -8.834  38.990  1.00  0.00     0.260 C 
ENDROOT
BRANCH   8   9
HETATM    9  C7  UNK     1      25.163  -8.628  38.460  1.00  0.00     0.108 A 
HETATM   10  C10 UNK     1      24.339  -7.895  39.218  1.00  0.00     0.037 A 
HETATM   11  C13 UNK     1      22.975  -7.636  38.781  1.00  0.00     0.002 A 
HETATM   12  C16 UNK     1      22.547  -8.161  37.566  1.00  0.00     0.123 A 
HETATM   13  C17 UNK     1      22.081  -6.877  39.539  1.00  0.00     0.014 A 
HETATM   14  O2  UNK     1      23.420  -8.931  36.772  1.00  0.00    -0.271 OA
HETATM   15  C18 UNK     1      21.255  -7.950  37.089  1.00  0.00     0.102 A 
HETATM   16  C14 UNK     1      24.730  -9.195  37.163  1.00  0.00     0.304 A 
HETATM   17  O4  UNK     1      25.482  -9.866  36.465  1.00  0.00    -0.259 OA
HETATM   18  C20 UNK     1      20.369  -7.192  37.853  1.00  0.00     0.040 A 
HETATM   19  C19 UNK     1      20.782  -6.657  39.075  1.00  0.00     0.004 A 
BRANCH  15  20
HETATM   20  O5  UNK     1      20.850  -8.470  35.900  1.00  0.00    -0.353 OA
HETATM   21  C22 UNK     1      20.524  -7.545  34.863  1.00  0.00     0.210 C 
ENDBRANCH  15  20
ENDBRANCH   8   9
BRANCH   2  22
HETATM   22  C5  UNK     1      30.762  -5.640  36.988  1.00  0.00     0.030 A 
HETATM   23  C8  UNK     1      31.716  -6.260  36.147  1.00  0.00     0.032 A 
HETATM   24  C11 UNK     1      32.772  -5.537  35.592  1.00  0.00     0.039 A 
HETATM   25  C15 UNK     1      32.904  -4.175  35.861  1.00  0.00     0.068 A 
HETATM   26  C12 UNK     1      31.978  -3.534  36.686  1.00  0.00     0.039 A 
HETATM   27  C9  UNK     1      30.923  -4.257  37.242  1.00  0.00     0.032 A 
BRANCH  25  28
HETATM   28  O3  UNK     1      33.933  -3.470  35.318  1.00  0.00    -0.356 OA
HETATM   29  C21 UNK     1      34.754  -4.148  34.367  1.00  0.00     0.210 C 
ENDBRANCH  25  28
ENDBRANCH   2  22
TORSDOF 4
ENDMDL
MODEL 10
REMARK VINA RESULT:      -8.7      2.838      3.825
REMARK  4 active torsions:
REMARK  status: ('A' for Active; 'I' for Inactive)
REMARK    1  A    between atoms: C15_22  and  O3_3 
REMARK    2  A    between atoms: C18_25  and  O5_5 
REMARK    3  A    between atoms: C5_12  and  N1_6 
REMARK       I    between atoms: C6_13  and  N2_7 
REMARK    4  A    between atoms: C6_13  and  C7_14 
ROOT
HETATM    1  O1  UNK     1      19.984   5.938  32.317  1.00  0.00    -0.267 OA
HETATM    2  N1  UNK     1      16.057   8.690  33.914  1.00  0.00    -0.378 N 
HETATM    3  N2  UNK     1      18.039   6.648  33.380  1.00  0.00    -0.345 N 
HETATM    4  C1  UNK     1      16.988   8.807  32.789  1.00  0.00     0.143 C 
HETATM    5  C2  UNK     1      16.239   7.577  34.847  1.00  0.00     0.143 C 
HETATM    6  C3  UNK     1      18.286   8.057  33.080  1.00  0.00     0.146 C 
HETATM    7  C4  UNK     1      16.814   6.354  34.131  1.00  0.00     0.146 C 
HETATM    8  C6  UNK     1      18.955   5.691  32.948  1.00  0.00     0.260 C 
ENDROOT
BRANCH   8   9
HETATM    9  C7  UNK     1      18.656   4.279  33.266  1.00  0.00     0.108 A 
HETATM   10  C10 UNK     1      18.763   3.928  34.552  1.00  0.00     0.037 A 
HETATM   11  C13 UNK     1      18.488   2.560  34.965  1.00  0.00     0.002 A 
HETATM   12  C16 UNK     1      18.114   1.629  34.001  1.00  0.00     0.123 A 
HETATM   13  C17 UNK     1      18.586   2.149  36.296  1.00  0.00     0.014 A 
HETATM   14  O2  UNK     1      18.004   2.006  32.647  1.00  0.00    -0.271 OA
HETATM   15  C18 UNK     1      17.837   0.304  34.329  1.00  0.00     0.102 A 
HETATM   16  C14 UNK     1      18.259   3.307  32.223  1.00  0.00     0.304 A 
HETATM   17  O4  UNK     1      18.160   3.625  31.043  1.00  0.00    -0.259 OA
HETATM   18  C20 UNK     1      17.938  -0.098  35.659  1.00  0.00     0.040 A 
HETATM   19  C19 UNK     1      18.312   0.823  36.640  1.00  0.00     0.004 A 
BRANCH  15  20
HETATM   20  O5  UNK     1      17.474  -0.596  33.376  1.00  0.00    -0.353 OA
HETATM   21  C22 UNK     1      18.522  -1.313  32.724  1.00  0.00     0.210 C 
ENDBRANCH  15  20
ENDBRANCH   8   9
BRANCH   2  22
HETATM   22  C5  UNK     1      15.070   9.650  34.118  1.00  0.00     0.030 A 
HETATM   23  C8  UNK     1      14.199  10.046  33.075  1.00  0.00     0.032 A 
HETATM   24  C11 UNK     1      13.209  11.007  33.281  1.00  0.00     0.039 A 
HETATM   25  C15 UNK     1      13.062  11.601  34.534  1.00  0.00     0.068 A 
HETATM   26  C12 UNK     1      13.905  11.233  35.584  1.00  0.00     0.039 A 
HETATM   27  C9  UNK     1      14.895  10.271  35.378  1.00  0.00     0.032 A 
BRANCH  25  28
HETATM   28  O3  UNK     1      12.096  12.538  34.734  1.00  0.00    -0.356 OA
HETATM   29  C21 UNK     1      11.340  12.944  33.594  1.00  0.00     0.210 C 
ENDBRANCH  25  28
ENDBRANCH   2  22
TORSDOF 4
ENDMDL
