MODEL 1
REMARK VINA RESULT:     -10.6      0.000      0.000
REMARK  9 active torsions:
REMARK  status: ('A' for Active; 'I' for Inactive)
REMARK    1  A    between atoms: C11_19  and  O2_2 
REMARK    2  A    between atoms: C15_23  and  O2_2 
REMARK    3  A    between atoms: N1_6  and  N2_7 
REMARK    4  A    between atoms: C23_31  and  N2_7 
REMARK    5  A    between atoms: C29_37  and  N3_8 
REMARK    6  A    between atoms: C2_10  and  C4_12 
REMARK    7  A    between atoms: C4_12  and  C7_15 
REMARK    8  A    between atoms: C15_23  and  C16_24 
REMARK    9  A    between atoms: C16_24  and  C20_28 
ROOT
HETATM    1  O2  UNK     1      19.545   4.672  30.798  1.00  0.00    -0.345 OA
ENDROOT
BRANCH   1   2
HETATM    2  C11 UNK     1      18.964   5.622  31.579  1.00  0.00     0.071 A 
HETATM    3  C10 UNK     1      17.590   5.615  31.783  1.00  0.00     0.075 A 
HETATM    4  C5  UNK     1      17.012   6.600  32.588  1.00  0.00     0.092 A 
HETATM    5  C3  UNK     1      17.762   7.597  33.205  1.00  0.00     0.005 A 
HETATM    6  O1  UNK     1      15.620   6.539  32.747  1.00  0.00    -0.274 OA
HETATM    7  C1  UNK     1      17.067   8.600  34.040  1.00  0.00    -0.036 A 
HETATM    8  C8  UNK     1      19.148   7.588  32.979  1.00  0.00     0.017 A 
HETATM    9  C2  UNK     1      15.724   8.550  34.156  1.00  0.00     0.029 A 
HETATM   10  C9  UNK     1      17.930   9.625  34.733  1.00  0.00     0.050 C 
HETATM   11  C6  UNK     1      14.928   7.470  33.503  1.00  0.00     0.295 A 
HETATM   12  O3  UNK     1      13.710   7.391  33.628  1.00  0.00    -0.259 OA
HETATM   13  C12 UNK     1      19.742   6.609  32.175  1.00  0.00     0.038 A 
BRANCH   9  14
HETATM   14  C4  UNK     1      14.887   9.542  34.922  1.00  0.00     0.084 C 
BRANCH  14  15
HETATM   15  C7  UNK     1      14.591  10.773  34.118  1.00  0.00    -0.054 A 
HETATM   16  C13 UNK     1      13.553  10.758  33.192  1.00  0.00     0.007 A 
HETATM   17  C17 UNK     1      13.277  11.902  32.444  1.00  0.00     0.001 A 
HETATM   18  C19 UNK     1      14.040  13.055  32.626  1.00  0.00     0.000 A 
HETATM   19  C18 UNK     1      15.081  13.064  33.556  1.00  0.00     0.001 A 
HETATM   20  C14 UNK     1      15.357  11.920  34.304  1.00  0.00     0.007 A 
ENDBRANCH  14  15
ENDBRANCH   9  14
ENDBRANCH   1   2
BRANCH   1  21
HETATM   21  C15 UNK     1      18.674   3.786  30.094  1.00  0.00     0.237 C 
BRANCH  21  22
HETATM   22  C16 UNK     1      18.665   2.428  30.781  1.00  0.00     0.089 C 
HETATM   23  N1  UNK     1      18.238   2.219  31.992  1.00  0.00    -0.176 NA
BRANCH  23  24
HETATM   24  N2  UNK     1      18.280   0.960  32.464  1.00  0.00    -0.278 N 
HETATM   25  H18 UNK     1      18.310   0.143  31.868  1.00  0.00     0.189 HD
BRANCH  24  26
HETATM   26  C23 UNK     1      18.220   0.714  33.845  1.00  0.00     0.050 A 
HETATM   27  C27 UNK     1      17.763   1.706  34.718  1.00  0.00     0.033 A 
HETATM   28  C30 UNK     1      17.704   1.461  36.089  1.00  0.00     0.038 A 
HETATM   29  C29 UNK     1      18.102   0.222  36.595  1.00  0.00     0.103 A 
HETATM   30  C31 UNK     1      18.559  -0.770  35.728  1.00  0.00     0.038 A 
HETATM   31  C28 UNK     1      18.618  -0.525  34.356  1.00  0.00     0.033 A 
BRANCH  29  32
HETATM   32  N3  UNK     1      18.041  -0.027  37.991  1.00  0.00    -0.116 N 
HETATM   33  O4  UNK     1      18.087  -1.212  38.400  1.00  0.00    -0.532 OA
HETATM   34  O5  UNK     1      17.943   0.945  38.779  1.00  0.00    -0.532 OA
ENDBRANCH  29  32
ENDBRANCH  24  26
ENDBRANCH  23  24
BRANCH  22  35
HETATM   35  C20 UNK     1      19.168   1.256  30.008  1.00  0.00    -0.008 A 
HETATM   36  C21 UNK     1      18.548   0.931  28.822  1.00  0.00     0.013 A 
HETATM   37  C24 UNK     1      19.018  -0.165  28.099  1.00  0.00     0.001 A 
HETATM   38  C26 UNK     1      20.097  -0.907  28.582  1.00  0.00     0.000 A 
HETATM   39  C25 UNK     1      20.704  -0.554  29.787  1.00  0.00     0.001 A 
HETATM   40  C22 UNK     1      20.233   0.543  30.509  1.00  0.00     0.013 A 
ENDBRANCH  22  35
ENDBRANCH  21  22
ENDBRANCH   1  21
TORSDOF 9
ENDMDL
MODEL 2
REMARK VINA RESULT:     -10.3      1.603      2.108
REMARK  9 active torsions:
REMARK  status: ('A' for Active; 'I' for Inactive)
REMARK    1  A    between atoms: C11_19  and  O2_2 
REMARK    2  A    between atoms: C15_23  and  O2_2 
REMARK    3  A    between atoms: N1_6  and  N2_7 
REMARK    4  A    between atoms: C23_31  and  N2_7 
REMARK    5  A    between atoms: C29_37  and  N3_8 
REMARK    6  A    between atoms: C2_10  and  C4_12 
REMARK    7  A    between atoms: C4_12  and  C7_15 
REMARK    8  A    between atoms: C15_23  and  C16_24 
REMARK    9  A    between atoms: C16_24  and  C20_28 
ROOT
HETATM    1  O2  UNK     1      17.851   4.883  30.643  1.00  0.00    -0.345 OA
ENDROOT
BRANCH   1   2
HETATM    2  C11 UNK     1      18.016   5.977  31.434  1.00  0.00     0.071 A 
HETATM    3  C10 UNK     1      16.962   6.860  31.636  1.00  0.00     0.075 A 
HETATM    4  C5  UNK     1      17.152   7.978  32.451  1.00  0.00     0.092 A 
HETATM    5  C3  UNK     1      18.363   8.247  33.082  1.00  0.00     0.005 A 
HETATM    6  O1  UNK     1      16.050   8.832  32.606  1.00  0.00    -0.274 OA
HETATM    7  C1  UNK     1      18.475   9.455  33.928  1.00  0.00    -0.036 A 
HETATM    8  C8  UNK     1      19.415   7.345  32.860  1.00  0.00     0.017 A 
HETATM    9  C2  UNK     1      17.417  10.286  34.040  1.00  0.00     0.029 A 
HETATM   10  C9  UNK     1      19.789   9.671  34.635  1.00  0.00     0.050 C 
HETATM   11  C6  UNK     1      16.118   9.983  33.372  1.00  0.00     0.295 A 
HETATM   12  O3  UNK     1      15.138  10.711  33.493  1.00  0.00    -0.259 OA
HETATM   13  C12 UNK     1      19.242   6.220  32.045  1.00  0.00     0.038 A 
BRANCH   9  14
HETATM   14  C4  UNK     1      17.415  11.578  34.816  1.00  0.00     0.084 C 
BRANCH  14  15
HETATM   15  C7  UNK     1      17.603  12.772  33.929  1.00  0.00    -0.054 A 
HETATM   16  C13 UNK     1      18.794  12.929  33.228  1.00  0.00     0.007 A 
HETATM   17  C17 UNK     1      18.969  14.040  32.403  1.00  0.00     0.001 A 
HETATM   18  C19 UNK     1      17.952  14.987  32.283  1.00  0.00     0.000 A 
HETATM   19  C18 UNK     1      16.760  14.823  32.989  1.00  0.00     0.001 A 
HETATM   20  C14 UNK     1      16.585  13.713  33.815  1.00  0.00     0.007 A 
ENDBRANCH  14  15
ENDBRANCH   9  14
ENDBRANCH   1   2
BRANCH   1  21
HETATM   21  C15 UNK     1      19.004   4.078  30.396  1.00  0.00     0.237 C 
BRANCH  21  22
HETATM   22  C16 UNK     1      18.797   2.694  30.995  1.00  0.00     0.089 C 
HETATM   23  N1  UNK     1      18.307   2.471  32.180  1.00  0.00    -0.176 NA
BRANCH  23  24
HETATM   24  N2  UNK     1      18.170   1.191  32.572  1.00  0.00    -0.278 N 
HETATM   25  H18 UNK     1      18.035   0.423  31.926  1.00  0.00     0.189 HD
BRANCH  24  26
HETATM   26  C23 UNK     1      18.146   0.862  33.936  1.00  0.00     0.050 A 
HETATM   27  C27 UNK     1      18.236   1.866  34.904  1.00  0.00     0.033 A 
HETATM   28  C30 UNK     1      18.213   1.538  36.260  1.00  0.00     0.038 A 
HETATM   29  C29 UNK     1      18.099   0.204  36.653  1.00  0.00     0.103 A 
HETATM   30  C31 UNK     1      18.009  -0.801  35.691  1.00  0.00     0.038 A 
HETATM   31  C28 UNK     1      18.032  -0.473  34.335  1.00  0.00     0.033 A 
BRANCH  29  32
HETATM   32  N3  UNK     1      18.075  -0.129  38.033  1.00  0.00    -0.116 N 
HETATM   33  O4  UNK     1      18.177  -1.333  38.370  1.00  0.00    -0.532 OA
HETATM   34  O5  UNK     1      17.951   0.791  38.879  1.00  0.00    -0.532 OA
ENDBRANCH  29  32
ENDBRANCH  24  26
ENDBRANCH  23  24
BRANCH  22  35
HETATM   35  C20 UNK     1      19.168   1.514  30.162  1.00  0.00    -0.008 A 
HETATM   36  C21 UNK     1      18.467   1.280  28.999  1.00  0.00     0.013 A 
HETATM   37  C24 UNK     1      18.815   0.177  28.220  1.00  0.00     0.001 A 
HETATM   38  C26 UNK     1      19.853  -0.662  28.623  1.00  0.00     0.000 A 
HETATM   39  C25 UNK     1      20.544  -0.399  29.807  1.00  0.00     0.001 A 
HETATM   40  C22 UNK     1      20.196   0.704  30.586  1.00  0.00     0.013 A 
ENDBRANCH  22  35
ENDBRANCH  21  22
ENDBRANCH   1  21
TORSDOF 9
ENDMDL
MODEL 3
REMARK VINA RESULT:     -10.3      5.774     13.894
REMARK  9 active torsions:
REMARK  status: ('A' for Active; 'I' for Inactive)
REMARK    1  A    between atoms: C11_19  and  O2_2 
REMARK    2  A    between atoms: C15_23  and  O2_2 
REMARK    3  A    between atoms: N1_6  and  N2_7 
REMARK    4  A    between atoms: C23_31  and  N2_7 
REMARK    5  A    between atoms: C29_37  and  N3_8 
REMARK    6  A    between atoms: C2_10  and  C4_12 
REMARK    7  A    between atoms: C4_12  and  C7_15 
REMARK    8  A    between atoms: C15_23  and  C16_24 
REMARK    9  A    between atoms: C16_24  and  C20_28 
ROOT
HETATM    1  O2  UNK     1      19.905  -1.639  35.605  1.00  0.00    -0.345 OA
ENDROOT
BRANCH   1   2
HETATM    2  C11 UNK     1      20.088  -2.902  36.075  1.00  0.00     0.071 A 
HETATM    3  C10 UNK     1      20.196  -3.969  35.191  1.00  0.00     0.075 A 
HETATM    4  C5  UNK     1      20.382  -5.259  35.693  1.00  0.00     0.092 A 
HETATM    5  C3  UNK     1      20.471  -5.526  37.056  1.00  0.00     0.005 A 
HETATM    6  O1  UNK     1      20.476  -6.290  34.746  1.00  0.00    -0.274 OA
HETATM    7  C1  UNK     1      20.668  -6.922  37.499  1.00  0.00    -0.036 A 
HETATM    8  C8  UNK     1      20.353  -4.434  37.931  1.00  0.00     0.017 A 
HETATM    9  C2  UNK     1      20.722  -7.909  36.579  1.00  0.00     0.029 A 
HETATM   10  C9  UNK     1      20.816  -7.152  38.982  1.00  0.00     0.050 C 
HETATM   11  C6  UNK     1      20.641  -7.613  35.119  1.00  0.00     0.295 A 
HETATM   12  O3  UNK     1      20.723  -8.495  34.270  1.00  0.00    -0.259 OA
HETATM   13  C12 UNK     1      20.165  -3.136  37.445  1.00  0.00     0.038 A 
BRANCH   9  14
HETATM   14  C4  UNK     1      20.857  -9.376  36.895  1.00  0.00     0.084 C 
BRANCH  14  15
HETATM   15  C7  UNK     1      22.247  -9.882  36.651  1.00  0.00    -0.054 A 
HETATM   16  C13 UNK     1      23.339  -9.119  37.050  1.00  0.00     0.007 A 
HETATM   17  C17 UNK     1      24.632  -9.589  36.822  1.00  0.00     0.001 A 
HETATM   18  C19 UNK     1      24.826 -10.822  36.198  1.00  0.00     0.000 A 
HETATM   19  C18 UNK     1      23.727 -11.583  35.801  1.00  0.00     0.001 A 
HETATM   20  C14 UNK     1      22.434 -11.112  36.028  1.00  0.00     0.007 A 
ENDBRANCH  14  15
ENDBRANCH   9  14
ENDBRANCH   1   2
BRANCH   1  21
HETATM   21  C15 UNK     1      19.403  -1.505  34.276  1.00  0.00     0.237 C 
BRANCH  21  22
HETATM   22  C16 UNK     1      18.627  -0.202  34.152  1.00  0.00     0.089 C 
HETATM   23  N1  UNK     1      18.483   0.466  33.045  1.00  0.00    -0.176 NA
BRANCH  23  24
HETATM   24  N2  UNK     1      17.759   1.599  33.085  1.00  0.00    -0.278 N 
HETATM   25  H18 UNK     1      16.908   1.697  33.625  1.00  0.00     0.189 HD
BRANCH  24  26
HETATM   26  C23 UNK     1      18.128   2.709  32.308  1.00  0.00     0.050 A 
HETATM   27  C27 UNK     1      18.423   2.552  30.952  1.00  0.00     0.033 A 
HETATM   28  C30 UNK     1      18.790   3.655  30.181  1.00  0.00     0.038 A 
HETATM   29  C29 UNK     1      18.862   4.921  30.764  1.00  0.00     0.103 A 
HETATM   30  C31 UNK     1      18.568   5.082  32.117  1.00  0.00     0.038 A 
HETATM   31  C28 UNK     1      18.201   3.979  32.889  1.00  0.00     0.033 A 
BRANCH  29  32
HETATM   32  N3  UNK     1      19.235   6.043  29.979  1.00  0.00    -0.116 N 
HETATM   33  O4  UNK     1      18.351   6.864  29.633  1.00  0.00    -0.532 OA
HETATM   34  O5  UNK     1      20.438   6.184  29.651  1.00  0.00    -0.532 OA
ENDBRANCH  29  32
ENDBRANCH  24  26
ENDBRANCH  23  24
BRANCH  22  35
HETATM   35  C20 UNK     1      17.979   0.340  35.381  1.00  0.00    -0.008 A 
HETATM   36  C21 UNK     1      18.674   1.247  36.149  1.00  0.00     0.013 A 
HETATM   37  C24 UNK     1      18.067   1.754  37.299  1.00  0.00     0.001 A 
HETATM   38  C26 UNK     1      16.782   1.340  37.649  1.00  0.00     0.000 A 
HETATM   39  C25 UNK     1      16.104   0.419  36.851  1.00  0.00     0.001 A 
HETATM   40  C22 UNK     1      16.711  -0.088  35.701  1.00  0.00     0.013 A 
ENDBRANCH  22  35
ENDBRANCH  21  22
ENDBRANCH   1  21
TORSDOF 9
ENDMDL
MODEL 4
REMARK VINA RESULT:     -10.3      2.071      2.957
REMARK  9 active torsions:
REMARK  status: ('A' for Active; 'I' for Inactive)
REMARK    1  A    between atoms: C11_19  and  O2_2 
REMARK    2  A    between atoms: C15_23  and  O2_2 
REMARK    3  A    between atoms: N1_6  and  N2_7 
REMARK    4  A    between atoms: C23_31  and  N2_7 
REMARK    5  A    between atoms: C29_37  and  N3_8 
REMARK    6  A    between atoms: C2_10  and  C4_12 
REMARK    7  A    between atoms: C4_12  and  C7_15 
REMARK    8  A    between atoms: C15_23  and  C16_24 
REMARK    9  A    between atoms: C16_24  and  C20_28 
ROOT
HETATM    1  O2  UNK     1      19.018   5.447  32.847  1.00  0.00    -0.345 OA
ENDROOT
BRANCH   1   2
HETATM    2  C11 UNK     1      18.205   6.524  33.019  1.00  0.00     0.071 A 
HETATM    3  C10 UNK     1      18.741   7.754  33.384  1.00  0.00     0.075 A 
HETATM    4  C5  UNK     1      17.889   8.848  33.557  1.00  0.00     0.092 A 
HETATM    5  C3  UNK     1      16.513   8.761  33.372  1.00  0.00     0.005 A 
HETATM    6  O1  UNK     1      18.494  10.056  33.932  1.00  0.00    -0.274 OA
HETATM    7  C1  UNK     1      15.687   9.970  33.577  1.00  0.00    -0.036 A 
HETATM    8  C8  UNK     1      15.993   7.508  33.010  1.00  0.00     0.017 A 
HETATM    9  C2  UNK     1      16.278  11.118  33.971  1.00  0.00     0.029 A 
HETATM   10  C9  UNK     1      14.209   9.839  33.309  1.00  0.00     0.050 C 
HETATM   11  C6  UNK     1      17.756  11.206  34.153  1.00  0.00     0.295 A 
HETATM   12  O3  UNK     1      18.311  12.251  34.477  1.00  0.00    -0.259 OA
HETATM   13  C12 UNK     1      16.832   6.402  32.834  1.00  0.00     0.038 A 
BRANCH   9  14
HETATM   14  C4  UNK     1      15.550  12.402  34.275  1.00  0.00     0.084 C 
BRANCH  14  15
HETATM   15  C7  UNK     1      15.180  12.515  35.723  1.00  0.00    -0.054 A 
HETATM   16  C13 UNK     1      14.146  11.738  36.233  1.00  0.00     0.007 A 
HETATM   17  C17 UNK     1      13.801  11.843  37.580  1.00  0.00     0.001 A 
HETATM   18  C19 UNK     1      14.493  12.724  38.411  1.00  0.00     0.000 A 
HETATM   19  C18 UNK     1      15.530  13.501  37.893  1.00  0.00     0.001 A 
HETATM   20  C14 UNK     1      15.875  13.397  36.546  1.00  0.00     0.007 A 
ENDBRANCH  14  15
ENDBRANCH   9  14
ENDBRANCH   1   2
BRANCH   1  21
HETATM   21  C15 UNK     1      18.939   4.766  31.595  1.00  0.00     0.237 C 
BRANCH  21  22
HETATM   22  C16 UNK     1      18.476   3.334  31.822  1.00  0.00     0.089 C 
HETATM   23  N1  UNK     1      17.955   2.897  32.931  1.00  0.00    -0.176 NA
BRANCH  23  24
HETATM   24  N2  UNK     1      17.580   1.606  32.983  1.00  0.00    -0.278 N 
HETATM   25  H18 UNK     1      17.010   1.164  32.273  1.00  0.00     0.189 HD
BRANCH  24  26
HETATM   26  C23 UNK     1      17.921   0.808  34.087  1.00  0.00     0.050 A 
HETATM   27  C27 UNK     1      17.808   1.316  35.384  1.00  0.00     0.033 A 
HETATM   28  C30 UNK     1      18.146   0.522  36.480  1.00  0.00     0.038 A 
HETATM   29  C29 UNK     1      18.600  -0.783  36.283  1.00  0.00     0.103 A 
HETATM   30  C31 UNK     1      18.714  -1.293  34.990  1.00  0.00     0.038 A 
HETATM   31  C28 UNK     1      18.375  -0.500  33.894  1.00  0.00     0.033 A 
BRANCH  29  32
HETATM   32  N3  UNK     1      18.944  -1.590  37.399  1.00  0.00    -0.116 N 
HETATM   33  O4  UNK     1      19.643  -2.616  37.215  1.00  0.00    -0.532 OA
HETATM   34  O5  UNK     1      18.539  -1.257  38.539  1.00  0.00    -0.532 OA
ENDBRANCH  29  32
ENDBRANCH  24  26
ENDBRANCH  23  24
BRANCH  22  35
HETATM   35  C20 UNK     1      18.616   2.371  30.692  1.00  0.00    -0.008 A 
HETATM   36  C21 UNK     1      19.535   1.352  30.804  1.00  0.00     0.013 A 
HETATM   37  C24 UNK     1      19.666   0.450  29.748  1.00  0.00     0.001 A 
HETATM   38  C26 UNK     1      18.875   0.593  28.608  1.00  0.00     0.000 A 
HETATM   39  C25 UNK     1      17.953   1.637  28.523  1.00  0.00     0.001 A 
HETATM   40  C22 UNK     1      17.822   2.538  29.580  1.00  0.00     0.013 A 
ENDBRANCH  22  35
ENDBRANCH  21  22
ENDBRANCH   1  21
TORSDOF 9
ENDMDL
MODEL 5
REMARK VINA RESULT:     -10.3      9.595     16.136
REMARK  9 active torsions:
REMARK  status: ('A' for Active; 'I' for Inactive)
REMARK    1  A    between atoms: C11_19  and  O2_2 
REMARK    2  A    between atoms: C15_23  and  O2_2 
REMARK    3  A    between atoms: N1_6  and  N2_7 
REMARK    4  A    between atoms: C23_31  and  N2_7 
REMARK    5  A    between atoms: C29_37  and  N3_8 
REMARK    6  A    between atoms: C2_10  and  C4_12 
REMARK    7  A    between atoms: C4_12  and  C7_15 
REMARK    8  A    between atoms: C15_23  and  C16_24 
REMARK    9  A    between atoms: C16_24  and  C20_28 
ROOT
HETATM    1  O2  UNK     1      23.548  -7.226  38.795  1.00  0.00    -0.345 OA
ENDROOT
BRANCH   1   2
HETATM    2  C11 UNK     1      24.903  -7.289  38.691  1.00  0.00     0.071 A 
HETATM    3  C10 UNK     1      25.674  -6.151  38.900  1.00  0.00     0.075 A 
HETATM    4  C5  UNK     1      27.064  -6.236  38.786  1.00  0.00     0.092 A 
HETATM    5  C3  UNK     1      27.719  -7.424  38.475  1.00  0.00     0.005 A 
HETATM    6  O1  UNK     1      27.781  -5.050  39.003  1.00  0.00    -0.274 OA
HETATM    7  C1  UNK     1      29.194  -7.421  38.375  1.00  0.00    -0.036 A 
HETATM    8  C8  UNK     1      26.920  -8.558  38.262  1.00  0.00     0.017 A 
HETATM    9  C2  UNK     1      29.868  -6.266  38.552  1.00  0.00     0.029 A 
HETATM   10  C9  UNK     1      29.859  -8.745  38.093  1.00  0.00     0.050 C 
HETATM   11  C6  UNK     1      29.160  -4.999  38.900  1.00  0.00     0.295 A 
HETATM   12  O3  UNK     1      29.763  -3.949  39.097  1.00  0.00    -0.259 OA
HETATM   13  C12 UNK     1      25.526  -8.491  38.371  1.00  0.00     0.038 A 
BRANCH   9  14
HETATM   14  C4  UNK     1      31.361  -6.110  38.418  1.00  0.00     0.084 C 
BRANCH  14  15
HETATM   15  C7  UNK     1      31.754  -5.541  37.088  1.00  0.00    -0.054 A 
HETATM   16  C13 UNK     1      32.519  -4.381  37.032  1.00  0.00     0.007 A 
HETATM   17  C17 UNK     1      32.884  -3.851  35.795  1.00  0.00     0.001 A 
HETATM   18  C19 UNK     1      32.483  -4.485  34.619  1.00  0.00     0.000 A 
HETATM   19  C18 UNK     1      31.716  -5.649  34.681  1.00  0.00     0.001 A 
HETATM   20  C14 UNK     1      31.350  -6.179  35.918  1.00  0.00     0.007 A 
ENDBRANCH  14  15
ENDBRANCH   9  14
ENDBRANCH   1   2
BRANCH   1  21
HETATM   21  C15 UNK     1      22.972  -5.941  39.023  1.00  0.00     0.237 C 
BRANCH  21  22
HETATM   22  C16 UNK     1      21.768  -5.753  38.110  1.00  0.00     0.089 C 
HETATM   23  N1  UNK     1      21.440  -4.627  37.547  1.00  0.00    -0.176 NA
BRANCH  23  24
HETATM   24  N2  UNK     1      20.354  -4.615  36.754  1.00  0.00    -0.278 N 
HETATM   25  H18 UNK     1      19.883  -5.455  36.442  1.00  0.00     0.189 HD
BRANCH  24  26
HETATM   26  C23 UNK     1      19.847  -3.403  36.259  1.00  0.00     0.050 A 
HETATM   27  C27 UNK     1      19.026  -2.604  37.059  1.00  0.00     0.033 A 
HETATM   28  C30 UNK     1      18.522  -1.400  36.566  1.00  0.00     0.038 A 
HETATM   29  C29 UNK     1      18.838  -0.990  35.270  1.00  0.00     0.103 A 
HETATM   30  C31 UNK     1      19.656  -1.784  34.468  1.00  0.00     0.038 A 
HETATM   31  C28 UNK     1      20.161  -2.988  34.961  1.00  0.00     0.033 A 
BRANCH  29  32
HETATM   32  N3  UNK     1      18.325   0.236  34.769  1.00  0.00    -0.116 N 
HETATM   33  O4  UNK     1      18.979   1.290  34.956  1.00  0.00    -0.532 OA
HETATM   34  O5  UNK     1      17.232   0.231  34.154  1.00  0.00    -0.532 OA
ENDBRANCH  29  32
ENDBRANCH  24  26
ENDBRANCH  23  24
BRANCH  22  35
HETATM   35  C20 UNK     1      20.914  -6.944  37.834  1.00  0.00    -0.008 A 
HETATM   36  C21 UNK     1      19.994  -7.331  38.783  1.00  0.00     0.013 A 
HETATM   37  C24 UNK     1      19.194  -8.444  38.525  1.00  0.00     0.001 A 
HETATM   38  C26 UNK     1      19.336  -9.141  37.324  1.00  0.00     0.000 A 
HETATM   39  C25 UNK     1      20.278  -8.725  36.383  1.00  0.00     0.001 A 
HETATM   40  C22 UNK     1      21.077  -7.611  36.642  1.00  0.00     0.013 A 
ENDBRANCH  22  35
ENDBRANCH  21  22
ENDBRANCH   1  21
TORSDOF 9
ENDMDL
MODEL 6
REMARK VINA RESULT:     -10.2     10.626     16.921
REMARK  9 active torsions:
REMARK  status: ('A' for Active; 'I' for Inactive)
REMARK    1  A    between atoms: C11_19  and  O2_2 
REMARK    2  A    between atoms: C15_23  and  O2_2 
REMARK    3  A    between atoms: N1_6  and  N2_7 
REMARK    4  A    between atoms: C23_31  and  N2_7 
REMARK    5  A    between atoms: C29_37  and  N3_8 
REMARK    6  A    between atoms: C2_10  and  C4_12 
REMARK    7  A    between atoms: C4_12  and  C7_15 
REMARK    8  A    between atoms: C15_23  and  C16_24 
REMARK    9  A    between atoms: C16_24  and  C20_28 
ROOT
HETATM    1  O2  UNK     1      24.780  -8.371  37.916  1.00  0.00    -0.345 OA
ENDROOT
BRANCH   1   2
HETATM    2  C11 UNK     1      26.107  -8.079  37.982  1.00  0.00     0.071 A 
HETATM    3  C10 UNK     1      26.529  -6.841  38.450  1.00  0.00     0.075 A 
HETATM    4  C5  UNK     1      27.896  -6.560  38.509  1.00  0.00     0.092 A 
HETATM    5  C3  UNK     1      28.866  -7.479  38.119  1.00  0.00     0.005 A 
HETATM    6  O1  UNK     1      28.252  -5.290  38.984  1.00  0.00    -0.274 OA
HETATM    7  C1  UNK     1      30.291  -7.097  38.215  1.00  0.00    -0.036 A 
HETATM    8  C8  UNK     1      28.417  -8.721  37.643  1.00  0.00     0.017 A 
HETATM    9  C2  UNK     1      30.618  -5.859  38.642  1.00  0.00     0.029 A 
HETATM   10  C9  UNK     1      31.305  -8.147  37.835  1.00  0.00     0.050 C 
HETATM   11  C6  UNK     1      29.573  -4.885  39.071  1.00  0.00     0.295 A 
HETATM   12  O3  UNK     1      29.858  -3.768  39.494  1.00  0.00    -0.259 OA
HETATM   13  C12 UNK     1      27.051  -9.018  37.577  1.00  0.00     0.038 A 
BRANCH   9  14
HETATM   14  C4  UNK     1      32.023  -5.320  38.728  1.00  0.00     0.084 C 
BRANCH  14  15
HETATM   15  C7  UNK     1      32.620  -5.074  37.374  1.00  0.00    -0.054 A 
HETATM   16  C13 UNK     1      33.837  -5.657  37.041  1.00  0.00     0.007 A 
HETATM   17  C17 UNK     1      34.393  -5.428  35.782  1.00  0.00     0.001 A 
HETATM   18  C19 UNK     1      33.726  -4.618  34.863  1.00  0.00     0.000 A 
HETATM   19  C18 UNK     1      32.505  -4.036  35.204  1.00  0.00     0.001 A 
HETATM   20  C14 UNK     1      31.950  -4.264  36.462  1.00  0.00     0.007 A 
ENDBRANCH  14  15
ENDBRANCH   9  14
ENDBRANCH   1   2
BRANCH   1  21
HETATM   21  C15 UNK     1      24.008  -8.155  39.096  1.00  0.00     0.237 C 
BRANCH  21  22
HETATM   22  C16 UNK     1      22.606  -7.704  38.712  1.00  0.00     0.089 C 
HETATM   23  N1  UNK     1      22.200  -6.467  38.730  1.00  0.00    -0.176 NA
BRANCH  23  24
HETATM   24  N2  UNK     1      20.934  -6.216  38.352  1.00  0.00    -0.278 N 
HETATM   25  H18 UNK     1      20.142  -6.767  38.659  1.00  0.00     0.189 HD
BRANCH  24  26
HETATM   26  C23 UNK     1      20.654  -5.187  37.439  1.00  0.00     0.050 A 
HETATM   27  C27 UNK     1      20.177  -5.490  36.161  1.00  0.00     0.033 A 
HETATM   28  C30 UNK     1      19.899  -4.467  35.255  1.00  0.00     0.038 A 
HETATM   29  C29 UNK     1      20.096  -3.136  35.623  1.00  0.00     0.103 A 
HETATM   30  C31 UNK     1      20.572  -2.829  36.897  1.00  0.00     0.038 A 
HETATM   31  C28 UNK     1      20.850  -3.852  37.804  1.00  0.00     0.033 A 
BRANCH  29  32
HETATM   32  N3  UNK     1      19.813  -2.095  34.700  1.00  0.00    -0.116 N 
HETATM   33  O4  UNK     1      20.189  -2.218  33.509  1.00  0.00    -0.532 OA
HETATM   34  O5  UNK     1      19.193  -1.079  35.100  1.00  0.00    -0.532 OA
ENDBRANCH  29  32
ENDBRANCH  24  26
ENDBRANCH  23  24
BRANCH  22  35
HETATM   35  C20 UNK     1      21.636  -8.748  38.273  1.00  0.00    -0.008 A 
HETATM   36  C21 UNK     1      20.687  -9.186  39.170  1.00  0.00     0.013 A 
HETATM   37  C24 UNK     1      19.779 -10.163  38.760  1.00  0.00     0.001 A 
HETATM   38  C26 UNK     1      19.844 -10.673  37.463  1.00  0.00     0.000 A 
HETATM   39  C25 UNK     1      20.817 -10.209  36.577  1.00  0.00     0.001 A 
HETATM   40  C22 UNK     1      21.724  -9.233  36.988  1.00  0.00     0.013 A 
ENDBRANCH  22  35
ENDBRANCH  21  22
ENDBRANCH   1  21
TORSDOF 9
ENDMDL
MODEL 7
REMARK VINA RESULT:     -10.0      5.392     13.400
REMARK  9 active torsions:
REMARK  status: ('A' for Active; 'I' for Inactive)
REMARK    1  A    between atoms: C11_19  and  O2_2 
REMARK    2  A    between atoms: C15_23  and  O2_2 
REMARK    3  A    between atoms: N1_6  and  N2_7 
REMARK    4  A    between atoms: C23_31  and  N2_7 
REMARK    5  A    between atoms: C29_37  and  N3_8 
REMARK    6  A    between atoms: C2_10  and  C4_12 
REMARK    7  A    between atoms: C4_12  and  C7_15 
REMARK    8  A    between atoms: C15_23  and  C16_24 
REMARK    9  A    between atoms: C16_24  and  C20_28 
ROOT
HETATM    1  O2  UNK     1      19.770  -1.189  35.489  1.00  0.00    -0.345 OA
ENDROOT
BRANCH   1   2
HETATM    2  C11 UNK     1      19.816  -2.417  36.071  1.00  0.00     0.071 A 
HETATM    3  C10 UNK     1      20.997  -2.878  36.640  1.00  0.00     0.075 A 
HETATM    4  C5  UNK     1      21.024  -4.143  37.232  1.00  0.00     0.092 A 
HETATM    5  C3  UNK     1      19.906  -4.970  37.283  1.00  0.00     0.005 A 
HETATM    6  O1  UNK     1      22.250  -4.549  37.780  1.00  0.00    -0.274 OA
HETATM    7  C1  UNK     1      20.026  -6.294  37.929  1.00  0.00    -0.036 A 
HETATM    8  C8  UNK     1      18.725  -4.486  36.697  1.00  0.00     0.017 A 
HETATM    9  C2  UNK     1      21.219  -6.686  38.422  1.00  0.00     0.029 A 
HETATM   10  C9  UNK     1      18.772  -7.128  38.010  1.00  0.00     0.050 C 
HETATM   11  C6  UNK     1      22.410  -5.788  38.376  1.00  0.00     0.295 A 
HETATM   12  O3  UNK     1      23.493  -6.118  38.851  1.00  0.00    -0.259 OA
HETATM   13  C12 UNK     1      18.681  -3.222  36.099  1.00  0.00     0.038 A 
BRANCH   9  14
HETATM   14  C4  UNK     1      21.494  -8.029  39.048  1.00  0.00     0.084 C 
BRANCH  14  15
HETATM   15  C7  UNK     1      21.605  -9.119  38.025  1.00  0.00    -0.054 A 
HETATM   16  C13 UNK     1      20.661 -10.140  37.999  1.00  0.00     0.007 A 
HETATM   17  C17 UNK     1      20.764 -11.154  37.048  1.00  0.00     0.001 A 
HETATM   18  C19 UNK     1      21.811 -11.142  36.126  1.00  0.00     0.000 A 
HETATM   19  C18 UNK     1      22.755 -10.115  36.156  1.00  0.00     0.001 A 
HETATM   20  C14 UNK     1      22.652  -9.101  37.108  1.00  0.00     0.007 A 
ENDBRANCH  14  15
ENDBRANCH   9  14
ENDBRANCH   1   2
BRANCH   1  21
HETATM   21  C15 UNK     1      19.277  -1.121  34.151  1.00  0.00     0.237 C 
BRANCH  21  22
HETATM   22  C16 UNK     1      18.414   0.123  33.989  1.00  0.00     0.089 C 
HETATM   23  N1  UNK     1      18.437   0.902  32.947  1.00  0.00    -0.176 NA
BRANCH  23  24
HETATM   24  N2  UNK     1      17.608   1.962  32.937  1.00  0.00    -0.278 N 
HETATM   25  H18 UNK     1      16.603   1.881  32.853  1.00  0.00     0.189 HD
BRANCH  24  26
HETATM   26  C23 UNK     1      18.121   3.268  32.983  1.00  0.00     0.050 A 
HETATM   27  C27 UNK     1      18.395   3.874  34.211  1.00  0.00     0.033 A 
HETATM   28  C30 UNK     1      18.904   5.172  34.255  1.00  0.00     0.038 A 
HETATM   29  C29 UNK     1      19.141   5.869  33.070  1.00  0.00     0.103 A 
HETATM   30  C31 UNK     1      18.869   5.269  31.842  1.00  0.00     0.038 A 
HETATM   31  C28 UNK     1      18.360   3.970  31.797  1.00  0.00     0.033 A 
BRANCH  29  32
HETATM   32  N3  UNK     1      19.660   7.190  33.116  1.00  0.00    -0.116 N 
HETATM   33  O4  UNK     1      20.903   7.357  33.086  1.00  0.00    -0.532 OA
HETATM   34  O5  UNK     1      18.861   8.155  33.184  1.00  0.00    -0.532 OA
ENDBRANCH  29  32
ENDBRANCH  24  26
ENDBRANCH  23  24
BRANCH  22  35
HETATM   35  C20 UNK     1      17.471   0.464  35.092  1.00  0.00    -0.008 A 
HETATM   36  C21 UNK     1      17.941   1.196  36.159  1.00  0.00     0.013 A 
HETATM   37  C24 UNK     1      17.059   1.516  37.191  1.00  0.00     0.001 A 
HETATM   38  C26 UNK     1      15.730   1.094  37.128  1.00  0.00     0.000 A 
HETATM   39  C25 UNK     1      15.284   0.353  36.034  1.00  0.00     0.001 A 
HETATM   40  C22 UNK     1      16.167   0.034  35.002  1.00  0.00     0.013 A 
ENDBRANCH  22  35
ENDBRANCH  21  22
ENDBRANCH   1  21
TORSDOF 9
ENDMDL
MODEL 8
REMARK VINA RESULT:      -9.9     10.751     17.004
REMARK  9 active torsions:
REMARK  status: ('A' for Active; 'I' for Inactive)
REMARK    1  A    between atoms: C11_19  and  O2_2 
REMARK    2  A    between atoms: C15_23  and  O2_2 
REMARK    3  A    between atoms: N1_6  and  N2_7 
REMARK    4  A    between atoms: C23_31  and  N2_7 
REMARK    5  A    between atoms: C29_37  and  N3_8 
REMARK    6  A    between atoms: C2_10  and  C4_12 
REMARK    7  A    between atoms: C4_12  and  C7_15 
REMARK    8  A    between atoms: C15_23  and  C16_24 
REMARK    9  A    between atoms: C16_24  and  C20_28 
ROOT
HETATM    1  O2  UNK     1      24.940  -8.311  38.089  1.00  0.00    -0.345 OA
ENDROOT
BRANCH   1   2
HETATM    2  C11 UNK     1      26.110  -7.629  38.217  1.00  0.00     0.071 A 
HETATM    3  C10 UNK     1      27.320  -8.259  37.950  1.00  0.00     0.075 A 
HETATM    4  C5  UNK     1      28.511  -7.541  38.088  1.00  0.00     0.092 A 
HETATM    5  C3  UNK     1      28.539  -6.206  38.479  1.00  0.00     0.005 A 
HETATM    6  O1  UNK     1      29.696  -8.239  37.811  1.00  0.00    -0.274 OA
HETATM    7  C1  UNK     1      29.845  -5.524  38.599  1.00  0.00    -0.036 A 
HETATM    8  C8  UNK     1      27.305  -5.592  38.749  1.00  0.00     0.017 A 
HETATM    9  C2  UNK     1      30.979  -6.217  38.363  1.00  0.00     0.029 A 
HETATM   10  C9  UNK     1      29.819  -4.062  38.970  1.00  0.00     0.050 C 
HETATM   11  C6  UNK     1      30.940  -7.644  37.930  1.00  0.00     0.295 A 
HETATM   12  O3  UNK     1      31.961  -8.276  37.678  1.00  0.00    -0.259 OA
HETATM   13  C12 UNK     1      26.103  -6.297  38.617  1.00  0.00     0.038 A 
BRANCH   9  14
HETATM   14  C4  UNK     1      32.373  -5.663  38.508  1.00  0.00     0.084 C 
BRANCH  14  15
HETATM   15  C7  UNK     1      32.976  -5.292  37.187  1.00  0.00    -0.054 A 
HETATM   16  C13 UNK     1      32.246  -4.523  36.287  1.00  0.00     0.007 A 
HETATM   17  C17 UNK     1      32.806  -4.178  35.058  1.00  0.00     0.001 A 
HETATM   18  C19 UNK     1      34.094  -4.604  34.734  1.00  0.00     0.000 A 
HETATM   19  C18 UNK     1      34.822  -5.375  35.641  1.00  0.00     0.001 A 
HETATM   20  C14 UNK     1      34.262  -5.721  36.870  1.00  0.00     0.007 A 
ENDBRANCH  14  15
ENDBRANCH   9  14
ENDBRANCH   1   2
BRANCH   1  21
HETATM   21  C15 UNK     1      23.940  -8.077  39.080  1.00  0.00     0.237 C 
BRANCH  21  22
HETATM   22  C16 UNK     1      22.615  -7.761  38.401  1.00  0.00     0.089 C 
HETATM   23  N1  UNK     1      22.258  -6.576  38.000  1.00  0.00    -0.176 NA
BRANCH  23  24
HETATM   24  N2  UNK     1      21.059  -6.449  37.404  1.00  0.00    -0.278 N 
HETATM   25  H18 UNK     1      20.450  -7.233  37.206  1.00  0.00     0.189 HD
BRANCH  24  26
HETATM   26  C23 UNK     1      20.613  -5.194  36.960  1.00  0.00     0.050 A 
HETATM   27  C27 UNK     1      20.588  -4.105  37.836  1.00  0.00     0.033 A 
HETATM   28  C30 UNK     1      20.144  -2.859  37.394  1.00  0.00     0.038 A 
HETATM   29  C29 UNK     1      19.723  -2.696  36.074  1.00  0.00     0.103 A 
HETATM   30  C31 UNK     1      19.747  -3.779  35.196  1.00  0.00     0.038 A 
HETATM   31  C28 UNK     1      20.191  -5.026  35.637  1.00  0.00     0.033 A 
BRANCH  29  32
HETATM   32  N3  UNK     1      19.272  -1.427  35.624  1.00  0.00    -0.116 N 
HETATM   33  O4  UNK     1      18.695  -0.664  36.436  1.00  0.00    -0.532 OA
HETATM   34  O5  UNK     1      19.463  -1.103  34.427  1.00  0.00    -0.532 OA
ENDBRANCH  29  32
ENDBRANCH  24  26
ENDBRANCH  23  24
BRANCH  22  35
HETATM   35  C20 UNK     1      21.667  -8.889  38.169  1.00  0.00    -0.008 A 
HETATM   36  C21 UNK     1      20.665  -9.109  39.087  1.00  0.00     0.013 A 
HETATM   37  C24 UNK     1      19.778 -10.164  38.869  1.00  0.00     0.001 A 
HETATM   38  C26 UNK     1      19.917 -10.969  37.739  1.00  0.00     0.000 A 
HETATM   39  C25 UNK     1      20.943 -10.721  36.826  1.00  0.00     0.001 A 
HETATM   40  C22 UNK     1      21.829  -9.666  37.045  1.00  0.00     0.013 A 
ENDBRANCH  22  35
ENDBRANCH  21  22
ENDBRANCH   1  21
TORSDOF 9
ENDMDL
MODEL 9
REMARK VINA RESULT:      -9.9     10.122     16.867
REMARK  9 active torsions:
REMARK  status: ('A' for Active; 'I' for Inactive)
REMARK    1  A    between atoms: C11_19  and  O2_2 
REMARK    2  A    between atoms: C15_23  and  O2_2 
REMARK    3  A    between atoms: N1_6  and  N2_7 
REMARK    4  A    between atoms: C23_31  and  N2_7 
REMARK    5  A    between atoms: C29_37  and  N3_8 
REMARK    6  A    between atoms: C2_10  and  C4_12 
REMARK    7  A    between atoms: C4_12  and  C7_15 
REMARK    8  A    between atoms: C15_23  and  C16_24 
REMARK    9  A    between atoms: C16_24  and  C20_28 
ROOT
HETATM    1  O2  UNK     1      24.189  -5.563  38.887  1.00  0.00    -0.345 OA
ENDROOT
BRANCH   1   2
HETATM    2  C11 UNK     1      25.422  -6.128  38.777  1.00  0.00     0.071 A 
HETATM    3  C10 UNK     1      26.559  -5.329  38.776  1.00  0.00     0.075 A 
HETATM    4  C5  UNK     1      27.816  -5.928  38.661  1.00  0.00     0.092 A 
HETATM    5  C3  UNK     1      27.982  -7.306  38.552  1.00  0.00     0.005 A 
HETATM    6  O1  UNK     1      28.921  -5.064  38.659  1.00  0.00    -0.274 OA
HETATM    7  C1  UNK     1      29.350  -7.854  38.435  1.00  0.00    -0.036 A 
HETATM    8  C8  UNK     1      26.819  -8.092  38.550  1.00  0.00     0.017 A 
HETATM    9  C2  UNK     1      30.402  -7.009  38.399  1.00  0.00     0.029 A 
HETATM   10  C9  UNK     1      29.480  -9.355  38.377  1.00  0.00     0.050 C 
HETATM   11  C6  UNK     1      30.217  -5.534  38.531  1.00  0.00     0.295 A 
HETATM   12  O3  UNK     1      31.166  -4.757  38.535  1.00  0.00    -0.259 OA
HETATM   13  C12 UNK     1      25.552  -7.508  38.663  1.00  0.00     0.038 A 
BRANCH   9  14
HETATM   14  C4  UNK     1      31.838  -7.428  38.221  1.00  0.00     0.084 C 
BRANCH  14  15
HETATM   15  C7  UNK     1      32.181  -7.679  36.783  1.00  0.00    -0.054 A 
HETATM   16  C13 UNK     1      32.270  -6.610  35.899  1.00  0.00     0.007 A 
HETATM   17  C17 UNK     1      32.588  -6.843  34.561  1.00  0.00     0.001 A 
HETATM   18  C19 UNK     1      32.816  -8.145  34.115  1.00  0.00     0.000 A 
HETATM   19  C18 UNK     1      32.725  -9.214  35.007  1.00  0.00     0.001 A 
HETATM   20  C14 UNK     1      32.406  -8.980  36.345  1.00  0.00     0.007 A 
ENDBRANCH  14  15
ENDBRANCH   9  14
ENDBRANCH   1   2
BRANCH   1  21
HETATM   21  C15 UNK     1      23.099  -6.435  39.190  1.00  0.00     0.237 C 
BRANCH  21  22
HETATM   22  C16 UNK     1      21.942  -6.150  38.243  1.00  0.00     0.089 C 
HETATM   23  N1  UNK     1      21.713  -4.996  37.686  1.00  0.00    -0.176 NA
BRANCH  23  24
HETATM   24  N2  UNK     1      20.657  -4.896  36.861  1.00  0.00    -0.278 N 
HETATM   25  H18 UNK     1      20.251  -5.687  36.377  1.00  0.00     0.189 HD
BRANCH  24  26
HETATM   26  C23 UNK     1      20.090  -3.643  36.576  1.00  0.00     0.050 A 
HETATM   27  C27 UNK     1      20.246  -3.071  35.311  1.00  0.00     0.033 A 
HETATM   28  C30 UNK     1      19.683  -1.826  35.030  1.00  0.00     0.038 A 
HETATM   29  C29 UNK     1      18.962  -1.148  36.014  1.00  0.00     0.103 A 
HETATM   30  C31 UNK     1      18.804  -1.715  37.278  1.00  0.00     0.038 A 
HETATM   31  C28 UNK     1      19.367  -2.960  37.559  1.00  0.00     0.033 A 
BRANCH  29  32
HETATM   32  N3  UNK     1      18.389   0.119  35.727  1.00  0.00    -0.116 N 
HETATM   33  O4  UNK     1      17.257   0.395  36.192  1.00  0.00    -0.532 OA
HETATM   34  O5  UNK     1      19.030   0.930  35.015  1.00  0.00    -0.532 OA
ENDBRANCH  29  32
ENDBRANCH  24  26
ENDBRANCH  23  24
BRANCH  22  35
HETATM   35  C20 UNK     1      21.014  -7.273  37.923  1.00  0.00    -0.008 A 
HETATM   36  C21 UNK     1      21.255  -8.027  36.797  1.00  0.00     0.013 A 
HETATM   37  C24 UNK     1      20.387  -9.078  36.497  1.00  0.00     0.001 A 
HETATM   38  C26 UNK     1      19.303  -9.346  37.333  1.00  0.00     0.000 A 
HETATM   39  C25 UNK     1      19.085  -8.563  38.467  1.00  0.00     0.001 A 
HETATM   40  C22 UNK     1      19.953  -7.513  38.766  1.00  0.00     0.013 A 
ENDBRANCH  22  35
ENDBRANCH  21  22
ENDBRANCH   1  21
TORSDOF 9
ENDMDL
MODEL 10
REMARK VINA RESULT:      -9.9     14.033     18.620
REMARK  9 active torsions:
REMARK  status: ('A' for Active; 'I' for Inactive)
REMARK    1  A    between atoms: C11_19  and  O2_2 
REMARK    2  A    between atoms: C15_23  and  O2_2 
REMARK    3  A    between atoms: N1_6  and  N2_7 
REMARK    4  A    between atoms: C23_31  and  N2_7 
REMARK    5  A    between atoms: C29_37  and  N3_8 
REMARK    6  A    between atoms: C2_10  and  C4_12 
REMARK    7  A    between atoms: C4_12  and  C7_15 
REMARK    8  A    between atoms: C15_23  and  C16_24 
REMARK    9  A    between atoms: C16_24  and  C20_28 
ROOT
HETATM    1  O2  UNK     1      27.880  -5.951  39.348  1.00  0.00    -0.345 OA
ENDROOT
BRANCH   1   2
HETATM    2  C11 UNK     1      29.053  -5.633  38.736  1.00  0.00     0.071 A 
HETATM    3  C10 UNK     1      30.103  -6.542  38.721  1.00  0.00     0.075 A 
HETATM    4  C5  UNK     1      31.300  -6.195  38.088  1.00  0.00     0.092 A 
HETATM    5  C3  UNK     1      31.486  -4.967  37.460  1.00  0.00     0.005 A 
HETATM    6  O1  UNK     1      32.322  -7.156  38.116  1.00  0.00    -0.274 OA
HETATM    7  C1  UNK     1      32.786  -4.685  36.815  1.00  0.00    -0.036 A 
HETATM    8  C8  UNK     1      30.413  -4.062  37.493  1.00  0.00     0.017 A 
HETATM    9  C2  UNK     1      33.772  -5.604  36.879  1.00  0.00     0.029 A 
HETATM   10  C9  UNK     1      32.918  -3.364  36.099  1.00  0.00     0.050 C 
HETATM   11  C6  UNK     1      33.560  -6.924  37.542  1.00  0.00     0.295 A 
HETATM   12  O3  UNK     1      34.435  -7.783  37.578  1.00  0.00    -0.259 OA
HETATM   13  C12 UNK     1      29.208  -4.393  38.123  1.00  0.00     0.038 A 
BRANCH   9  14
HETATM   14  C4  UNK     1      35.160  -5.421  36.321  1.00  0.00     0.084 C 
BRANCH  14  15
HETATM   15  C7  UNK     1      35.361  -6.179  35.044  1.00  0.00    -0.054 A 
HETATM   16  C13 UNK     1      36.521  -6.923  34.859  1.00  0.00     0.007 A 
HETATM   17  C17 UNK     1      36.710  -7.628  33.671  1.00  0.00     0.001 A 
HETATM   18  C19 UNK     1      35.736  -7.586  32.673  1.00  0.00     0.000 A 
HETATM   19  C18 UNK     1      34.573  -6.837  32.864  1.00  0.00     0.001 A 
HETATM   20  C14 UNK     1      34.386  -6.132  34.052  1.00  0.00     0.007 A 
ENDBRANCH  14  15
ENDBRANCH   9  14
ENDBRANCH   1   2
BRANCH   1  21
HETATM   21  C15 UNK     1      26.676  -5.542  38.699  1.00  0.00     0.237 C 
BRANCH  21  22
HETATM   22  C16 UNK     1      25.652  -6.666  38.770  1.00  0.00     0.089 C 
HETATM   23  N1  UNK     1      24.386  -6.493  39.014  1.00  0.00    -0.176 NA
BRANCH  23  24
HETATM   24  N2  UNK     1      23.596  -7.582  39.035  1.00  0.00    -0.278 N 
HETATM   25  H18 UNK     1      23.896  -8.480  39.393  1.00  0.00     0.189 HD
BRANCH  24  26
HETATM   26  C23 UNK     1      22.303  -7.535  38.489  1.00  0.00     0.050 A 
HETATM   27  C27 UNK     1      22.048  -8.100  37.236  1.00  0.00     0.033 A 
HETATM   28  C30 UNK     1      20.763  -8.053  36.695  1.00  0.00     0.038 A 
HETATM   29  C29 UNK     1      19.729  -7.441  37.403  1.00  0.00     0.103 A 
HETATM   30  C31 UNK     1      19.979  -6.876  38.653  1.00  0.00     0.038 A 
HETATM   31  C28 UNK     1      21.264  -6.923  39.196  1.00  0.00     0.033 A 
BRANCH  29  32
HETATM   32  N3  UNK     1      18.421  -7.394  36.851  1.00  0.00    -0.116 N 
HETATM   33  O4  UNK     1      18.137  -8.156  35.896  1.00  0.00    -0.532 OA
HETATM   34  O5  UNK     1      17.586  -6.591  37.334  1.00  0.00    -0.532 OA
ENDBRANCH  29  32
ENDBRANCH  24  26
ENDBRANCH  23  24
BRANCH  22  35
HETATM   35  C20 UNK     1      26.131  -8.058  38.532  1.00  0.00    -0.008 A 
HETATM   36  C21 UNK     1      26.666  -8.762  39.588  1.00  0.00     0.013 A 
HETATM   37  C24 UNK     1      27.113 -10.065  39.366  1.00  0.00     0.001 A 
HETATM   38  C26 UNK     1      27.014 -10.628  38.094  1.00  0.00     0.000 A 
HETATM   39  C25 UNK     1      26.468  -9.889  37.043  1.00  0.00     0.001 A 
HETATM   40  C22 UNK     1      26.020  -8.587  37.267  1.00  0.00     0.013 A 
ENDBRANCH  22  35
ENDBRANCH  21  22
ENDBRANCH   1  21
TORSDOF 9
ENDMDL
