MODEL 1
REMARK VINA RESULT:      -9.9      0.000      0.000
REMARK  4 active torsions:
REMARK  status: ('A' for Active; 'I' for Inactive)
REMARK    1  A    between atoms: C1_9  and  N1_6 
REMARK       I    between atoms: C12_20  and  N3_8 
REMARK    2  A    between atoms: C3_11  and  N3_8 
REMARK    3  A    between atoms: C1_9  and  C2_10 
REMARK    4  A    between atoms: C12_20  and  C7_15 
ROOT
HETATM    1  O2  UNK     1      21.072  -4.221  36.836  1.00  0.00    -0.267 OA
HETATM    2  N3  UNK     1      18.837  -4.851  36.437  1.00  0.00    -0.306 N 
HETATM    3  C12 UNK     1      19.905  -3.970  36.541  1.00  0.00     0.263 C 
HETATM    4  H6  UNK     1      17.922  -4.505  36.163  1.00  0.00     0.170 HD
ENDROOT
BRANCH   2   5
HETATM    5  C3  UNK     1      18.858  -6.236  36.648  1.00  0.00     0.151 A 
HETATM    6  N2  UNK     1      19.711  -6.811  37.481  1.00  0.00    -0.154 NA
HETATM    7  N1  UNK     1      19.385  -8.112  37.376  1.00  0.00    -0.275 N 
HETATM    8  C4  UNK     1      18.362  -8.353  36.507  1.00  0.00     0.116 A 
HETATM    9  C6  UNK     1      17.993  -7.127  36.011  1.00  0.00     0.071 A 
BRANCH   7  10
HETATM   10  C1  UNK     1      20.104  -9.095  38.149  1.00  0.00     0.194 C 
BRANCH  10  11
HETATM   11  C2  UNK     1      21.278  -9.643  37.385  1.00  0.00     0.022 A 
HETATM   12  C10 UNK     1      22.525  -9.031  37.448  1.00  0.00     0.045 A 
HETATM   13 Cl1  UNK     1      22.795  -7.618  38.402  1.00  0.00    -0.084 Cl
HETATM   14  C15 UNK     1      23.594  -9.565  36.727  1.00  0.00     0.024 A 
HETATM   15  C18 UNK     1      23.408 -10.706  35.947  1.00  0.00     0.005 A 
HETATM   16  C16 UNK     1      22.153 -11.314  35.889  1.00  0.00     0.043 A 
HETATM   17  C11 UNK     1      21.086 -10.780  36.609  1.00  0.00     0.126 A 
HETATM   18  F1  UNK     1      19.885 -11.372  36.545  1.00  0.00    -0.205 F 
ENDBRANCH  10  11
ENDBRANCH   7  10
ENDBRANCH   2   5
BRANCH   3  19
HETATM   19  C7  UNK     1      19.509  -2.588  36.247  1.00  0.00     0.108 A 
HETATM   20  C13 UNK     1      19.924  -1.899  35.006  1.00  0.00     0.304 A 
HETATM   21  O1  UNK     1      19.485  -0.587  34.840  1.00  0.00    -0.274 OA
HETATM   22  O3  UNK     1      20.619  -2.450  34.159  1.00  0.00    -0.259 OA
HETATM   23  C8  UNK     1      18.685   0.054  35.806  1.00  0.00     0.089 A 
HETATM   24  C17 UNK     1      18.294   1.368  35.552  1.00  0.00     0.038 A 
HETATM   25  C5  UNK     1      18.307  -0.611  36.967  1.00  0.00    -0.001 A 
HETATM   26  C20 UNK     1      17.503   2.031  36.489  1.00  0.00     0.003 A 
HETATM   27  C19 UNK     1      17.113   1.377  37.661  1.00  0.00     0.001 A 
HETATM   28  C14 UNK     1      17.514   0.060  37.901  1.00  0.00     0.014 A 
HETATM   29  C9  UNK     1      18.750  -1.982  37.168  1.00  0.00     0.037 A 
ENDBRANCH   3  19
TORSDOF 4
ENDMDL
MODEL 2
REMARK VINA RESULT:      -9.8      2.935      4.278
REMARK  4 active torsions:
REMARK  status: ('A' for Active; 'I' for Inactive)
REMARK    1  A    between atoms: C1_9  and  N1_6 
REMARK       I    between atoms: C12_20  and  N3_8 
REMARK    2  A    between atoms: C3_11  and  N3_8 
REMARK    3  A    between atoms: C1_9  and  C2_10 
REMARK    4  A    between atoms: C12_20  and  C7_15 
ROOT
HETATM    1  O2  UNK     1      18.198  -1.349  35.945  1.00  0.00    -0.267 OA
HETATM    2  N3  UNK     1      19.807  -2.832  35.073  1.00  0.00    -0.306 N 
HETATM    3  C12 UNK     1      18.950  -1.741  35.055  1.00  0.00     0.263 C 
HETATM    4  H6  UNK     1      20.391  -3.030  34.265  1.00  0.00     0.170 HD
ENDROOT
BRANCH   2   5
HETATM    5  C3  UNK     1      20.003  -3.737  36.124  1.00  0.00     0.151 A 
HETATM    6  N2  UNK     1      19.531  -4.974  36.091  1.00  0.00    -0.154 NA
HETATM    7  N1  UNK     1      19.942  -5.472  37.270  1.00  0.00    -0.275 N 
HETATM    8  C4  UNK     1      20.649  -4.584  38.026  1.00  0.00     0.116 A 
HETATM    9  C6  UNK     1      20.705  -3.426  37.291  1.00  0.00     0.071 A 
BRANCH   7  10
HETATM   10  C1  UNK     1      19.620  -6.834  37.624  1.00  0.00     0.194 C 
BRANCH  10  11
HETATM   11  C2  UNK     1      20.627  -7.799  37.061  1.00  0.00     0.022 A 
HETATM   12  C10 UNK     1      21.746  -8.179  37.793  1.00  0.00     0.045 A 
HETATM   13 Cl1  UNK     1      22.041  -7.569  39.380  1.00  0.00    -0.084 Cl
HETATM   14  C15 UNK     1      22.660  -9.078  37.242  1.00  0.00     0.024 A 
HETATM   15  C18 UNK     1      22.449  -9.589  35.961  1.00  0.00     0.005 A 
HETATM   16  C16 UNK     1      21.324  -9.203  35.232  1.00  0.00     0.043 A 
HETATM   17  C11 UNK     1      20.411  -8.305  35.784  1.00  0.00     0.126 A 
HETATM   18  F1  UNK     1      19.333  -7.940  35.074  1.00  0.00    -0.205 F 
ENDBRANCH  10  11
ENDBRANCH   7  10
ENDBRANCH   2   5
BRANCH   3  19
HETATM   19  C7  UNK     1      19.008  -1.016  33.780  1.00  0.00     0.108 A 
HETATM   20  C13 UNK     1      18.461   0.350  33.627  1.00  0.00     0.304 A 
HETATM   21  O1  UNK     1      18.577   0.934  32.368  1.00  0.00    -0.274 OA
HETATM   22  O3  UNK     1      17.933   0.946  34.560  1.00  0.00    -0.259 OA
HETATM   23  C8  UNK     1      19.183   0.259  31.290  1.00  0.00     0.089 A 
HETATM   24  C17 UNK     1      19.252   0.925  30.068  1.00  0.00     0.038 A 
HETATM   25  C5  UNK     1      19.690  -1.026  31.455  1.00  0.00    -0.001 A 
HETATM   26  C20 UNK     1      19.846   0.283  28.982  1.00  0.00     0.003 A 
HETATM   27  C19 UNK     1      20.360  -1.007  29.129  1.00  0.00     0.001 A 
HETATM   28  C14 UNK     1      20.283  -1.661  30.362  1.00  0.00     0.014 A 
HETATM   29  C9  UNK     1      19.585  -1.661  32.759  1.00  0.00     0.037 A 
ENDBRANCH   3  19
TORSDOF 4
ENDMDL
MODEL 3
REMARK VINA RESULT:      -9.8      8.275     13.374
REMARK  4 active torsions:
REMARK  status: ('A' for Active; 'I' for Inactive)
REMARK    1  A    between atoms: C1_9  and  N1_6 
REMARK       I    between atoms: C12_20  and  N3_8 
REMARK    2  A    between atoms: C3_11  and  N3_8 
REMARK    3  A    between atoms: C1_9  and  C2_10 
REMARK    4  A    between atoms: C12_20  and  C7_15 
ROOT
HETATM    1  O2  UNK     1      18.225   2.030  31.323  1.00  0.00    -0.267 OA
HETATM    2  N3  UNK     1      18.190   3.601  33.078  1.00  0.00    -0.306 N 
HETATM    3  C12 UNK     1      18.219   2.333  32.514  1.00  0.00     0.263 C 
HETATM    4  H6  UNK     1      18.207   3.706  34.089  1.00  0.00     0.170 HD
ENDROOT
BRANCH   2   5
HETATM    5  C3  UNK     1      18.160   4.828  32.401  1.00  0.00     0.151 A 
HETATM    6  N2  UNK     1      17.075   5.585  32.355  1.00  0.00    -0.154 NA
HETATM    7  N1  UNK     1      17.486   6.635  31.624  1.00  0.00    -0.275 N 
HETATM    8  C4  UNK     1      18.786   6.550  31.220  1.00  0.00     0.116 A 
HETATM    9  C6  UNK     1      19.258   5.361  31.722  1.00  0.00     0.071 A 
BRANCH   7  10
HETATM   10  C1  UNK     1      16.570   7.713  31.340  1.00  0.00     0.194 C 
BRANCH  10  11
HETATM   11  C2  UNK     1      16.059   8.346  32.605  1.00  0.00     0.022 A 
HETATM   12  C10 UNK     1      14.736   8.188  33.004  1.00  0.00     0.045 A 
HETATM   13 Cl1  UNK     1      13.614   7.262  32.076  1.00  0.00    -0.084 Cl
HETATM   14  C15 UNK     1      14.295   8.788  34.184  1.00  0.00     0.024 A 
HETATM   15  C18 UNK     1      15.178   9.543  34.955  1.00  0.00     0.005 A 
HETATM   16  C16 UNK     1      16.504   9.697  34.548  1.00  0.00     0.043 A 
HETATM   17  C11 UNK     1      16.945   9.097  33.369  1.00  0.00     0.126 A 
HETATM   18  F1  UNK     1      18.220   9.252  32.987  1.00  0.00    -0.205 F 
ENDBRANCH  10  11
ENDBRANCH   7  10
ENDBRANCH   2   5
BRANCH   3  19
HETATM   19  C7  UNK     1      18.244   1.278  33.534  1.00  0.00     0.108 A 
HETATM   20  C13 UNK     1      18.521  -0.135  33.196  1.00  0.00     0.304 A 
HETATM   21  O1  UNK     1      18.518  -1.044  34.251  1.00  0.00    -0.274 OA
HETATM   22  O3  UNK     1      18.744  -0.495  32.045  1.00  0.00    -0.259 OA
HETATM   23  C8  UNK     1      18.265  -0.641  35.577  1.00  0.00     0.089 A 
HETATM   24  C17 UNK     1      18.283  -1.624  36.565  1.00  0.00     0.038 A 
HETATM   25  C5  UNK     1      18.006   0.693  35.873  1.00  0.00    -0.001 A 
HETATM   26  C20 UNK     1      18.036  -1.256  37.887  1.00  0.00     0.003 A 
HETATM   27  C19 UNK     1      17.774   0.079  38.204  1.00  0.00     0.001 A 
HETATM   28  C14 UNK     1      17.758   1.052  37.200  1.00  0.00     0.014 A 
HETATM   29  C9  UNK     1      18.002   1.666  34.793  1.00  0.00     0.037 A 
ENDBRANCH   3  19
TORSDOF 4
ENDMDL
MODEL 4
REMARK VINA RESULT:      -9.7      9.248     14.333
REMARK  4 active torsions:
REMARK  status: ('A' for Active; 'I' for Inactive)
REMARK    1  A    between atoms: C1_9  and  N1_6 
REMARK       I    between atoms: C12_20  and  N3_8 
REMARK    2  A    between atoms: C3_11  and  N3_8 
REMARK    3  A    between atoms: C1_9  and  C2_10 
REMARK    4  A    between atoms: C12_20  and  C7_15 
ROOT
HETATM    1  O2  UNK     1      17.120   4.135  31.177  1.00  0.00    -0.267 OA
HETATM    2  N3  UNK     1      18.684   4.446  32.911  1.00  0.00    -0.306 N 
HETATM    3  C12 UNK     1      18.009   3.737  31.927  1.00  0.00     0.263 C 
HETATM    4  H6  UNK     1      19.416   3.991  33.449  1.00  0.00     0.170 HD
ENDROOT
BRANCH   2   5
HETATM    5  C3  UNK     1      18.494   5.788  33.268  1.00  0.00     0.151 A 
HETATM    6  N2  UNK     1      17.634   6.157  34.204  1.00  0.00    -0.154 NA
HETATM    7  N1  UNK     1      17.776   7.494  34.217  1.00  0.00    -0.275 N 
HETATM    8  C4  UNK     1      18.695   7.958  33.321  1.00  0.00     0.116 A 
HETATM    9  C6  UNK     1      19.187   6.848  32.679  1.00  0.00     0.071 A 
BRANCH   7  10
HETATM   10  C1  UNK     1      16.990   8.289  35.128  1.00  0.00     0.194 C 
BRANCH  10  11
HETATM   11  C2  UNK     1      15.966   9.112  34.395  1.00  0.00     0.022 A 
HETATM   12  C10 UNK     1      16.191  10.454  34.112  1.00  0.00     0.045 A 
HETATM   13 Cl1  UNK     1      17.650  11.248  34.582  1.00  0.00    -0.084 Cl
HETATM   14  C15 UNK     1      15.220  11.188  33.429  1.00  0.00     0.024 A 
HETATM   15  C18 UNK     1      14.031  10.575  33.036  1.00  0.00     0.005 A 
HETATM   16  C16 UNK     1      13.812   9.227  33.324  1.00  0.00     0.043 A 
HETATM   17  C11 UNK     1      14.782   8.494  34.006  1.00  0.00     0.126 A 
HETATM   18  F1  UNK     1      14.562   7.200  34.278  1.00  0.00    -0.205 F 
ENDBRANCH  10  11
ENDBRANCH   7  10
ENDBRANCH   2   5
BRANCH   3  19
HETATM   19  C7  UNK     1      18.472   2.347  31.834  1.00  0.00     0.108 A 
HETATM   20  C13 UNK     1      18.391   1.413  32.979  1.00  0.00     0.304 A 
HETATM   21  O1  UNK     1      18.862   0.120  32.766  1.00  0.00    -0.274 OA
HETATM   22  O3  UNK     1      17.931   1.755  34.063  1.00  0.00    -0.259 OA
HETATM   23  C8  UNK     1      19.391  -0.282  31.524  1.00  0.00     0.089 A 
HETATM   24  C17 UNK     1      19.838  -1.597  31.408  1.00  0.00     0.038 A 
HETATM   25  C5  UNK     1      19.459   0.612  30.461  1.00  0.00    -0.001 A 
HETATM   26  C20 UNK     1      20.367  -2.026  30.191  1.00  0.00     0.003 A 
HETATM   27  C19 UNK     1      20.442  -1.141  29.112  1.00  0.00     0.001 A 
HETATM   28  C14 UNK     1      19.991   0.175  29.246  1.00  0.00     0.014 A 
HETATM   29  C9  UNK     1      18.974   1.970  30.652  1.00  0.00     0.037 A 
ENDBRANCH   3  19
TORSDOF 4
ENDMDL
MODEL 5
REMARK VINA RESULT:      -9.7      9.689     14.509
REMARK  4 active torsions:
REMARK  status: ('A' for Active; 'I' for Inactive)
REMARK    1  A    between atoms: C1_9  and  N1_6 
REMARK       I    between atoms: C12_20  and  N3_8 
REMARK    2  A    between atoms: C3_11  and  N3_8 
REMARK    3  A    between atoms: C1_9  and  C2_10 
REMARK    4  A    between atoms: C12_20  and  C7_15 
ROOT
HETATM    1  O2  UNK     1      17.632   3.198  32.728  1.00  0.00    -0.267 OA
HETATM    2  N3  UNK     1      18.508   4.648  31.091  1.00  0.00    -0.306 N 
HETATM    3  C12 UNK     1      18.217   3.421  31.671  1.00  0.00     0.263 C 
HETATM    4  H6  UNK     1      18.986   4.684  30.195  1.00  0.00     0.170 HD
ENDROOT
BRANCH   2   5
HETATM    5  C3  UNK     1      18.192   5.918  31.593  1.00  0.00     0.151 A 
HETATM    6  N2  UNK     1      18.566   6.314  32.799  1.00  0.00    -0.154 NA
HETATM    7  N1  UNK     1      18.063   7.560  32.863  1.00  0.00    -0.275 N 
HETATM    8  C4  UNK     1      17.394   7.941  31.738  1.00  0.00     0.116 A 
HETATM    9  C6  UNK     1      17.464   6.871  30.878  1.00  0.00     0.071 A 
BRANCH   7  10
HETATM   10  C1  UNK     1      18.261   8.352  34.052  1.00  0.00     0.194 C 
BRANCH  10  11
HETATM   11  C2  UNK     1      17.119   9.306  34.273  1.00  0.00     0.022 A 
HETATM   12  C10 UNK     1      17.302  10.681  34.176  1.00  0.00     0.045 A 
HETATM   13 Cl1  UNK     1      18.841  11.367  33.800  1.00  0.00    -0.084 Cl
HETATM   14  C15 UNK     1      16.221  11.538  34.386  1.00  0.00     0.024 A 
HETATM   15  C18 UNK     1      14.965  11.014  34.692  1.00  0.00     0.005 A 
HETATM   16  C16 UNK     1      14.789   9.633  34.786  1.00  0.00     0.043 A 
HETATM   17  C11 UNK     1      15.870   8.777  34.577  1.00  0.00     0.126 A 
HETATM   18  F1  UNK     1      15.690   7.452  34.672  1.00  0.00    -0.205 F 
ENDBRANCH  10  11
ENDBRANCH   7  10
ENDBRANCH   2   5
BRANCH   3  19
HETATM   19  C7  UNK     1      18.703   2.300  30.858  1.00  0.00     0.108 A 
HETATM   20  C13 UNK     1      18.695   2.339  29.379  1.00  0.00     0.304 A 
HETATM   21  O1  UNK     1      19.183   1.214  28.720  1.00  0.00    -0.274 OA
HETATM   22  O3  UNK     1      18.283   3.313  28.759  1.00  0.00    -0.259 OA
HETATM   23  C8  UNK     1      19.661   0.091  29.423  1.00  0.00     0.089 A 
HETATM   24  C17 UNK     1      20.129  -0.989  28.676  1.00  0.00     0.038 A 
HETATM   25  C5  UNK     1      19.659   0.073  30.814  1.00  0.00    -0.001 A 
HETATM   26  C20 UNK     1      20.608  -2.115  29.343  1.00  0.00     0.003 A 
HETATM   27  C19 UNK     1      20.613  -2.150  30.739  1.00  0.00     0.001 A 
HETATM   28  C14 UNK     1      20.140  -1.059  31.474  1.00  0.00     0.014 A 
HETATM   29  C9  UNK     1      19.156   1.234  31.531  1.00  0.00     0.037 A 
ENDBRANCH   3  19
TORSDOF 4
ENDMDL
MODEL 6
REMARK VINA RESULT:      -9.7      5.239      8.843
REMARK  4 active torsions:
REMARK  status: ('A' for Active; 'I' for Inactive)
REMARK    1  A    between atoms: C1_9  and  N1_6 
REMARK       I    between atoms: C12_20  and  N3_8 
REMARK    2  A    between atoms: C3_11  and  N3_8 
REMARK    3  A    between atoms: C1_9  and  C2_10 
REMARK    4  A    between atoms: C12_20  and  C7_15 
ROOT
HETATM    1  O2  UNK     1      26.341  -9.176  38.843  1.00  0.00    -0.267 OA
HETATM    2  N3  UNK     1      24.881  -7.327  38.805  1.00  0.00    -0.306 N 
HETATM    3  C12 UNK     1      26.111  -7.969  38.793  1.00  0.00     0.263 C 
HETATM    4  H6  UNK     1      24.839  -6.314  38.739  1.00  0.00     0.170 HD
ENDROOT
BRANCH   2   5
HETATM    5  C3  UNK     1      23.615  -7.924  38.878  1.00  0.00     0.151 A 
HETATM    6  N2  UNK     1      22.987  -8.384  37.807  1.00  0.00    -0.154 NA
HETATM    7  N1  UNK     1      21.841  -8.858  38.326  1.00  0.00    -0.275 N 
HETATM    8  C4  UNK     1      21.744  -8.704  39.678  1.00  0.00     0.116 A 
HETATM    9  C6  UNK     1      22.907  -8.088  40.070  1.00  0.00     0.071 A 
BRANCH   7  10
HETATM   10  C1  UNK     1      20.857  -9.459  37.459  1.00  0.00     0.194 C 
BRANCH  10  11
HETATM   11  C2  UNK     1      19.917  -8.428  36.896  1.00  0.00     0.022 A 
HETATM   12  C10 UNK     1      20.064  -7.956  35.597  1.00  0.00     0.045 A 
HETATM   13 Cl1  UNK     1      21.325  -8.522  34.563  1.00  0.00    -0.084 Cl
HETATM   14  C15 UNK     1      19.174  -6.999  35.105  1.00  0.00     0.024 A 
HETATM   15  C18 UNK     1      18.146  -6.522  35.917  1.00  0.00     0.005 A 
HETATM   16  C16 UNK     1      18.005  -7.001  37.220  1.00  0.00     0.043 A 
HETATM   17  C11 UNK     1      18.894  -7.957  37.710  1.00  0.00     0.126 A 
HETATM   18  F1  UNK     1      18.750  -8.410  38.964  1.00  0.00    -0.205 F 
ENDBRANCH  10  11
ENDBRANCH   7  10
ENDBRANCH   2   5
BRANCH   3  19
HETATM   19  C7  UNK     1      27.228  -7.020  38.709  1.00  0.00     0.108 A 
HETATM   20  C13 UNK     1      27.018  -5.556  38.747  1.00  0.00     0.304 A 
HETATM   21  O1  UNK     1      28.157  -4.758  38.659  1.00  0.00    -0.274 OA
HETATM   22  O3  UNK     1      25.900  -5.063  38.851  1.00  0.00    -0.259 OA
HETATM   23  C8  UNK     1      29.445  -5.314  38.541  1.00  0.00     0.089 A 
HETATM   24  C17 UNK     1      30.524  -4.435  38.460  1.00  0.00     0.038 A 
HETATM   25  C5  UNK     1      29.620  -6.694  38.507  1.00  0.00    -0.001 A 
HETATM   26  C20 UNK     1      31.812  -4.955  38.342  1.00  0.00     0.003 A 
HETATM   27  C19 UNK     1      32.006  -6.338  38.306  1.00  0.00     0.001 A 
HETATM   28  C14 UNK     1      30.914  -7.206  38.388  1.00  0.00     0.014 A 
HETATM   29  C9  UNK     1      28.450  -7.553  38.596  1.00  0.00     0.037 A 
ENDBRANCH   3  19
TORSDOF 4
ENDMDL
MODEL 7
REMARK VINA RESULT:      -9.6      9.478     14.664
REMARK  4 active torsions:
REMARK  status: ('A' for Active; 'I' for Inactive)
REMARK    1  A    between atoms: C1_9  and  N1_6 
REMARK       I    between atoms: C12_20  and  N3_8 
REMARK    2  A    between atoms: C3_11  and  N3_8 
REMARK    3  A    between atoms: C1_9  and  C2_10 
REMARK    4  A    between atoms: C12_20  and  C7_15 
ROOT
HETATM    1  O2  UNK     1      18.659   4.689  30.333  1.00  0.00    -0.267 OA
HETATM    2  N3  UNK     1      17.635   4.514  32.447  1.00  0.00    -0.306 N 
HETATM    3  C12 UNK     1      18.320   4.056  31.331  1.00  0.00     0.263 C 
HETATM    4  H6  UNK     1      17.436   3.878  33.214  1.00  0.00     0.170 HD
ENDROOT
BRANCH   2   5
HETATM    5  C3  UNK     1      17.173   5.816  32.681  1.00  0.00     0.151 A 
HETATM    6  N2  UNK     1      17.149   6.352  33.892  1.00  0.00    -0.154 NA
HETATM    7  N1  UNK     1      16.647   7.576  33.656  1.00  0.00    -0.275 N 
HETATM    8  C4  UNK     1      16.361   7.811  32.343  1.00  0.00     0.116 A 
HETATM    9  C6  UNK     1      16.701   6.660  31.674  1.00  0.00     0.071 A 
BRANCH   7  10
HETATM   10  C1  UNK     1      16.460   8.497  34.752  1.00  0.00     0.194 C 
BRANCH  10  11
HETATM   11  C2  UNK     1      17.042   9.848  34.438  1.00  0.00     0.022 A 
HETATM   12  C10 UNK     1      16.235  10.978  34.363  1.00  0.00     0.045 A 
HETATM   13 Cl1  UNK     1      14.532  10.895  34.625  1.00  0.00    -0.084 Cl
HETATM   14  C15 UNK     1      16.808  12.217  34.071  1.00  0.00     0.024 A 
HETATM   15  C18 UNK     1      18.182  12.317  33.854  1.00  0.00     0.005 A 
HETATM   16  C16 UNK     1      18.985  11.178  33.931  1.00  0.00     0.043 A 
HETATM   17  C11 UNK     1      18.413   9.941  34.223  1.00  0.00     0.126 A 
HETATM   18  F1  UNK     1      19.193   8.853  34.293  1.00  0.00    -0.205 F 
ENDBRANCH  10  11
ENDBRANCH   7  10
ENDBRANCH   2   5
BRANCH   3  19
HETATM   19  C7  UNK     1      18.645   2.628  31.432  1.00  0.00     0.108 A 
HETATM   20  C13 UNK     1      18.393   1.850  32.665  1.00  0.00     0.304 A 
HETATM   21  O1  UNK     1      18.743   0.502  32.637  1.00  0.00    -0.274 OA
HETATM   22  O3  UNK     1      17.898   2.361  33.664  1.00  0.00    -0.259 OA
HETATM   23  C8  UNK     1      19.311  -0.094  31.494  1.00  0.00     0.089 A 
HETATM   24  C17 UNK     1      19.629  -1.449  31.563  1.00  0.00     0.038 A 
HETATM   25  C5  UNK     1      19.540   0.656  30.345  1.00  0.00    -0.001 A 
HETATM   26  C20 UNK     1      20.192  -2.068  30.448  1.00  0.00     0.003 A 
HETATM   27  C19 UNK     1      20.429  -1.330  29.285  1.00  0.00     0.001 A 
HETATM   28  C14 UNK     1      20.106   0.028  29.233  1.00  0.00     0.014 A 
HETATM   29  C9  UNK     1      19.185   2.066  30.343  1.00  0.00     0.037 A 
ENDBRANCH   3  19
TORSDOF 4
ENDMDL
MODEL 8
REMARK VINA RESULT:      -9.5      5.253      8.770
REMARK  4 active torsions:
REMARK  status: ('A' for Active; 'I' for Inactive)
REMARK    1  A    between atoms: C1_9  and  N1_6 
REMARK       I    between atoms: C12_20  and  N3_8 
REMARK    2  A    between atoms: C3_11  and  N3_8 
REMARK    3  A    between atoms: C1_9  and  C2_10 
REMARK    4  A    between atoms: C12_20  and  C7_15 
ROOT
HETATM    1  O2  UNK     1      26.204  -9.053  37.898  1.00  0.00    -0.267 OA
HETATM    2  N3  UNK     1      24.897  -7.342  38.856  1.00  0.00    -0.306 N 
HETATM    3  C12 UNK     1      26.058  -7.926  38.367  1.00  0.00     0.263 C 
HETATM    4  H6  UNK     1      24.918  -6.386  39.200  1.00  0.00     0.170 HD
ENDROOT
BRANCH   2   5
HETATM    5  C3  UNK     1      23.623  -7.921  38.924  1.00  0.00     0.151 A 
HETATM    6  N2  UNK     1      22.975  -8.335  37.846  1.00  0.00    -0.154 NA
HETATM    7  N1  UNK     1      21.827  -8.808  38.362  1.00  0.00    -0.275 N 
HETATM    8  C4  UNK     1      21.748  -8.698  39.719  1.00  0.00     0.116 A 
HETATM    9  C6  UNK     1      22.926  -8.114  40.118  1.00  0.00     0.071 A 
BRANCH   7  10
HETATM   10  C1  UNK     1      20.824  -9.364  37.487  1.00  0.00     0.194 C 
BRANCH  10  11
HETATM   11  C2  UNK     1      20.481  -8.415  36.372  1.00  0.00     0.022 A 
HETATM   12  C10 UNK     1      19.540  -7.407  36.551  1.00  0.00     0.045 A 
HETATM   13 Cl1  UNK     1      18.718  -7.189  38.052  1.00  0.00    -0.084 Cl
HETATM   14  C15 UNK     1      19.246  -6.542  35.495  1.00  0.00     0.024 A 
HETATM   15  C18 UNK     1      19.893  -6.693  34.269  1.00  0.00     0.005 A 
HETATM   16  C16 UNK     1      20.836  -7.707  34.098  1.00  0.00     0.043 A 
HETATM   17  C11 UNK     1      21.130  -8.570  35.152  1.00  0.00     0.126 A 
HETATM   18  F1  UNK     1      22.037  -9.542  34.976  1.00  0.00    -0.205 F 
ENDBRANCH  10  11
ENDBRANCH   7  10
ENDBRANCH   2   5
BRANCH   3  19
HETATM   19  C7  UNK     1      27.209  -7.019  38.454  1.00  0.00     0.108 A 
HETATM   20  C13 UNK     1      27.049  -5.567  38.686  1.00  0.00     0.304 A 
HETATM   21  O1  UNK     1      28.217  -4.811  38.751  1.00  0.00    -0.274 OA
HETATM   22  O3  UNK     1      25.946  -5.048  38.818  1.00  0.00    -0.259 OA
HETATM   23  C8  UNK     1      29.490  -5.397  38.602  1.00  0.00     0.089 A 
HETATM   24  C17 UNK     1      30.601  -4.559  38.682  1.00  0.00     0.038 A 
HETATM   25  C5  UNK     1      29.617  -6.765  38.384  1.00  0.00    -0.001 A 
HETATM   26  C20 UNK     1      31.873  -5.109  38.539  1.00  0.00     0.003 A 
HETATM   27  C19 UNK     1      32.021  -6.481  38.320  1.00  0.00     0.001 A 
HETATM   28  C14 UNK     1      30.896  -7.307  38.242  1.00  0.00     0.014 A 
HETATM   29  C9  UNK     1      28.416  -7.581  38.312  1.00  0.00     0.037 A 
ENDBRANCH   3  19
TORSDOF 4
ENDMDL
MODEL 9
REMARK VINA RESULT:      -9.5      2.478      3.652
REMARK  4 active torsions:
REMARK  status: ('A' for Active; 'I' for Inactive)
REMARK    1  A    between atoms: C1_9  and  N1_6 
REMARK       I    between atoms: C12_20  and  N3_8 
REMARK    2  A    between atoms: C3_11  and  N3_8 
REMARK    3  A    between atoms: C1_9  and  C2_10 
REMARK    4  A    between atoms: C12_20  and  C7_15 
ROOT
HETATM    1  O2  UNK     1      17.711  -1.049  36.432  1.00  0.00    -0.267 OA
HETATM    2  N3  UNK     1      19.498  -2.077  35.293  1.00  0.00    -0.306 N 
HETATM    3  C12 UNK     1      18.509  -1.126  35.500  1.00  0.00     0.263 C 
HETATM    4  H6  UNK     1      20.104  -2.007  34.480  1.00  0.00     0.170 HD
ENDROOT
BRANCH   2   5
HETATM    5  C3  UNK     1      19.806  -3.172  36.112  1.00  0.00     0.151 A 
HETATM    6  N2  UNK     1      19.109  -4.297  36.081  1.00  0.00    -0.154 NA
HETATM    7  N1  UNK     1      19.735  -5.050  37.002  1.00  0.00    -0.275 N 
HETATM    8  C4  UNK     1      20.792  -4.427  37.597  1.00  0.00     0.116 A 
HETATM    9  C6  UNK     1      20.862  -3.179  37.025  1.00  0.00     0.071 A 
BRANCH   7  10
HETATM   10  C1  UNK     1      19.265  -6.387  37.273  1.00  0.00     0.194 C 
BRANCH  10  11
HETATM   11  C2  UNK     1      20.272  -7.420  36.845  1.00  0.00     0.022 A 
HETATM   12  C10 UNK     1      21.115  -8.027  37.769  1.00  0.00     0.045 A 
HETATM   13 Cl1  UNK     1      21.055  -7.633  39.448  1.00  0.00    -0.084 Cl
HETATM   14  C15 UNK     1      22.037  -8.982  37.339  1.00  0.00     0.024 A 
HETATM   15  C18 UNK     1      22.111  -9.322  35.988  1.00  0.00     0.005 A 
HETATM   16  C16 UNK     1      21.260  -8.708  35.067  1.00  0.00     0.043 A 
HETATM   17  C11 UNK     1      20.339  -7.754  35.498  1.00  0.00     0.126 A 
HETATM   18  F1  UNK     1      19.528  -7.170  34.604  1.00  0.00    -0.205 F 
ENDBRANCH  10  11
ENDBRANCH   7  10
ENDBRANCH   2   5
BRANCH   3  19
HETATM   19  C7  UNK     1      18.476  -0.123  34.430  1.00  0.00     0.108 A 
HETATM   20  C13 UNK     1      18.588  -0.493  33.002  1.00  0.00     0.304 A 
HETATM   21  O1  UNK     1      18.543   0.550  32.079  1.00  0.00    -0.274 OA
HETATM   22  O3  UNK     1      18.713  -1.659  32.642  1.00  0.00    -0.259 OA
HETATM   23  C8  UNK     1      18.399   1.891  32.482  1.00  0.00     0.089 A 
HETATM   24  C17 UNK     1      18.365   2.865  31.486  1.00  0.00     0.038 A 
HETATM   25  C5  UNK     1      18.296   2.218  33.831  1.00  0.00    -0.001 A 
HETATM   26  C20 UNK     1      18.223   4.203  31.853  1.00  0.00     0.003 A 
HETATM   27  C19 UNK     1      18.118   4.549  33.202  1.00  0.00     0.001 A 
HETATM   28  C14 UNK     1      18.155   3.560  34.189  1.00  0.00     0.014 A 
HETATM   29  C9  UNK     1      18.340   1.151  34.818  1.00  0.00     0.037 A 
ENDBRANCH   3  19
TORSDOF 4
ENDMDL
MODEL 10
REMARK VINA RESULT:      -9.4      6.543      9.513
REMARK  4 active torsions:
REMARK  status: ('A' for Active; 'I' for Inactive)
REMARK    1  A    between atoms: C1_9  and  N1_6 
REMARK       I    between atoms: C12_20  and  N3_8 
REMARK    2  A    between atoms: C3_11  and  N3_8 
REMARK    3  A    between atoms: C1_9  and  C2_10 
REMARK    4  A    between atoms: C12_20  and  C7_15 
ROOT
HETATM    1  O2  UNK     1      17.924   4.083  32.121  1.00  0.00    -0.267 OA
HETATM    2  N3  UNK     1      18.239   4.045  34.456  1.00  0.00    -0.306 N 
HETATM    3  C12 UNK     1      18.035   4.633  33.216  1.00  0.00     0.263 C 
HETATM    4  H6  UNK     1      18.293   4.626  35.288  1.00  0.00     0.170 HD
ENDROOT
BRANCH   2   5
HETATM    5  C3  UNK     1      18.366   2.677  34.734  1.00  0.00     0.151 A 
HETATM    6  N2  UNK     1      17.866   1.744  33.939  1.00  0.00    -0.154 NA
HETATM    7  N1  UNK     1      18.211   0.609  34.572  1.00  0.00    -0.275 N 
HETATM    8  C4  UNK     1      18.906   0.814  35.728  1.00  0.00     0.116 A 
HETATM    9  C6  UNK     1      19.023   2.176  35.860  1.00  0.00     0.071 A 
BRANCH   7  10
HETATM   10  C1  UNK     1      17.841  -0.666  34.009  1.00  0.00     0.194 C 
BRANCH  10  11
HETATM   11  C2  UNK     1      19.008  -1.322  33.322  1.00  0.00     0.022 A 
HETATM   12  C10 UNK     1      19.819  -2.230  33.993  1.00  0.00     0.045 A 
HETATM   13 Cl1  UNK     1      19.535  -2.654  35.641  1.00  0.00    -0.084 Cl
HETATM   14  C15 UNK     1      20.892  -2.822  33.325  1.00  0.00     0.024 A 
HETATM   15  C18 UNK     1      21.148  -2.499  31.992  1.00  0.00     0.005 A 
HETATM   16  C16 UNK     1      20.329  -1.587  31.326  1.00  0.00     0.043 A 
HETATM   17  C11 UNK     1      19.256  -0.997  31.993  1.00  0.00     0.126 A 
HETATM   18  F1  UNK     1      18.477  -0.121  31.344  1.00  0.00    -0.205 F 
ENDBRANCH  10  11
ENDBRANCH   7  10
ENDBRANCH   2   5
BRANCH   3  19
HETATM   19  C7  UNK     1      17.952   6.095  33.306  1.00  0.00     0.108 A 
HETATM   20  C13 UNK     1      16.748   6.842  32.879  1.00  0.00     0.304 A 
HETATM   21  O1  UNK     1      16.790   8.228  33.015  1.00  0.00    -0.274 OA
HETATM   22  O3  UNK     1      15.759   6.274  32.429  1.00  0.00    -0.259 OA
HETATM   23  C8  UNK     1      17.921   8.889  33.533  1.00  0.00     0.089 A 
HETATM   24  C17 UNK     1      17.868  10.278  33.631  1.00  0.00     0.038 A 
HETATM   25  C5  UNK     1      19.043   8.168  33.928  1.00  0.00    -0.001 A 
HETATM   26  C20 UNK     1      18.972  10.961  34.139  1.00  0.00     0.003 A 
HETATM   27  C19 UNK     1      20.108  10.254  34.541  1.00  0.00     0.001 A 
HETATM   28  C14 UNK     1      20.144   8.860  34.435  1.00  0.00     0.014 A 
HETATM   29  C9  UNK     1      19.029   6.719  33.799  1.00  0.00     0.037 A 
ENDBRANCH   3  19
TORSDOF 4
ENDMDL
