MODEL 1
REMARK VINA RESULT:      -9.3      0.000      0.000
REMARK  8 active torsions:
REMARK  status: ('A' for Active; 'I' for Inactive)
REMARK    1  A    between atoms: C5_14  and  O2_2 
REMARK    2  A    between atoms: C7_16  and  O2_2 
REMARK    3  A    between atoms: C1_10  and  O3_3 
REMARK    4  A    between atoms: C2_11  and  O4_4 
REMARK    5  A    between atoms: C3_12  and  O5_5 
REMARK    6  A    between atoms: C6_15  and  O6_6 
REMARK    7  A    between atoms: C9_18  and  O8_8 
REMARK    8  A    between atoms: C4_13  and  C6_15 
ROOT
HETATM    1  O1  UNK     1      20.062  -0.943  13.792  1.00  0.00    -0.348 OA
HETATM    2  C1  UNK     1      18.559  -3.119  14.952  1.00  0.00     0.183 C 
HETATM    3  C2  UNK     1      18.725  -2.957  13.437  1.00  0.00     0.180 C 
HETATM    4  C3  UNK     1      19.640  -2.362  15.736  1.00  0.00     0.205 C 
HETATM    5  C4  UNK     1      18.964  -1.488  13.054  1.00  0.00     0.179 C 
HETATM    6  C5  UNK     1      19.865  -0.941  15.209  1.00  0.00     0.298 C 
ENDROOT
BRANCH   6   7
HETATM    7  O2  UNK     1      18.785  -0.102  15.604  1.00  0.00    -0.315 OA
BRANCH   7   8
HETATM    8  C7  UNK     1      18.952   0.605  16.761  1.00  0.00     0.106 A 
HETATM    9  C9  UNK     1      19.047   1.996  16.727  1.00  0.00     0.101 A 
HETATM   10  C12 UNK     1      19.218   2.711  17.910  1.00  0.00     0.077 A 
HETATM   11  C11 UNK     1      19.292   2.014  19.115  1.00  0.00     0.092 A 
HETATM   12  C10 UNK     1      19.198   0.626  19.165  1.00  0.00     0.001 A 
HETATM   13  O7  UNK     1      19.465   2.764  20.296  1.00  0.00    -0.275 OA
HETATM   14  C8  UNK     1      19.027  -0.083  17.973  1.00  0.00     0.054 A 
HETATM   15  C13 UNK     1      19.284  -0.037  20.455  1.00  0.00     0.020 A 
HETATM   16  C14 UNK     1      19.447   0.681  21.569  1.00  0.00     0.083 A 
HETATM   17  C15 UNK     1      19.548   2.152  21.542  1.00  0.00     0.288 A 
HETATM   18  O9  UNK     1      19.699   2.798  22.573  1.00  0.00    -0.260 OA
BRANCH   9  19
HETATM   19  O8  UNK     1      18.975   2.668  15.544  1.00  0.00    -0.358 OA
HETATM   20  H15 UNK     1      19.260   3.588  15.683  1.00  0.00     0.217 HD
ENDBRANCH   9  19
ENDBRANCH   7   8
ENDBRANCH   6   7
BRANCH   4  21
HETATM   21  O5  UNK     1      20.871  -3.080  15.659  1.00  0.00    -0.388 OA
HETATM   22  H10 UNK     1      20.731  -3.842  15.071  1.00  0.00     0.210 HD
ENDBRANCH   4  21
BRANCH   2  23
HETATM   23  O3  UNK     1      17.268  -2.656  15.342  1.00  0.00    -0.390 OA
HETATM   24  H8  UNK     1      17.152  -1.751  15.007  1.00  0.00     0.210 HD
ENDBRANCH   2  23
BRANCH   5  25
HETATM   25  C6  UNK     1      19.284  -1.306  11.573  1.00  0.00     0.198 C 
BRANCH  25  26
HETATM   26  O6  UNK     1      18.349  -0.398  11.023  1.00  0.00    -0.398 OA
HETATM   27  H11 UNK     1      18.643   0.501  11.247  1.00  0.00     0.209 HD
ENDBRANCH  25  26
ENDBRANCH   5  25
BRANCH   3  28
HETATM   28  O4  UNK     1      19.827  -3.765  13.024  1.00  0.00    -0.390 OA
HETATM   29  H9  UNK     1      19.478  -4.468  12.451  1.00  0.00     0.210 HD
ENDBRANCH   3  28
TORSDOF 8
ENDMDL
MODEL 2
REMARK VINA RESULT:      -9.0      1.024      2.464
REMARK  8 active torsions:
REMARK  status: ('A' for Active; 'I' for Inactive)
REMARK    1  A    between atoms: C5_14  and  O2_2 
REMARK    2  A    between atoms: C7_16  and  O2_2 
REMARK    3  A    between atoms: C1_10  and  O3_3 
REMARK    4  A    between atoms: C2_11  and  O4_4 
REMARK    5  A    between atoms: C3_12  and  O5_5 
REMARK    6  A    between atoms: C6_15  and  O6_6 
REMARK    7  A    between atoms: C9_18  and  O8_8 
REMARK    8  A    between atoms: C4_13  and  C6_15 
ROOT
HETATM    1  O1  UNK     1      19.956  -2.652  16.190  1.00  0.00    -0.348 OA
HETATM    2  C1  UNK     1      19.029  -2.640  13.456  1.00  0.00     0.183 C 
HETATM    3  C2  UNK     1      20.316  -3.358  13.879  1.00  0.00     0.180 C 
HETATM    4  C3  UNK     1      18.083  -2.402  14.641  1.00  0.00     0.205 C 
HETATM    5  C4  UNK     1      20.924  -2.720  15.138  1.00  0.00     0.179 C 
HETATM    6  C5  UNK     1      18.810  -1.857  15.875  1.00  0.00     0.298 C 
ENDROOT
BRANCH   6   7
HETATM    7  O2  UNK     1      19.141  -0.487  15.675  1.00  0.00    -0.315 OA
BRANCH   7   8
HETATM    8  C7  UNK     1      19.179   0.301  16.792  1.00  0.00     0.106 A 
HETATM    9  C9  UNK     1      19.137   1.690  16.672  1.00  0.00     0.101 A 
HETATM   10  C12 UNK     1      19.176   2.487  17.814  1.00  0.00     0.077 A 
HETATM   11  C11 UNK     1      19.258   1.874  19.063  1.00  0.00     0.092 A 
HETATM   12  C10 UNK     1      19.300   0.489  19.198  1.00  0.00     0.001 A 
HETATM   13  O7  UNK     1      19.297   2.707  20.200  1.00  0.00    -0.275 OA
HETATM   14  C8  UNK     1      19.259  -0.303  18.047  1.00  0.00     0.054 A 
HETATM   15  C13 UNK     1      19.385  -0.084  20.530  1.00  0.00     0.020 A 
HETATM   16  C14 UNK     1      19.419   0.712  21.602  1.00  0.00     0.083 A 
HETATM   17  C15 UNK     1      19.376   2.181  21.485  1.00  0.00     0.288 A 
HETATM   18  O9  UNK     1      19.410   2.899  22.479  1.00  0.00    -0.260 OA
BRANCH   9  19
HETATM   19  O8  UNK     1      19.060   2.279  15.447  1.00  0.00    -0.358 OA
HETATM   20  H15 UNK     1      18.761   1.620  14.796  1.00  0.00     0.217 HD
ENDBRANCH   9  19
ENDBRANCH   7   8
ENDBRANCH   6   7
BRANCH   4  21
HETATM   21  O5  UNK     1      17.444  -3.628  14.990  1.00  0.00    -0.388 OA
HETATM   22  H10 UNK     1      16.569  -3.411  15.358  1.00  0.00     0.210 HD
ENDBRANCH   4  21
BRANCH   2  23
HETATM   23  O3  UNK     1      19.357  -1.395  12.843  1.00  0.00    -0.390 OA
HETATM   24  H8  UNK     1      18.534  -0.903  12.687  1.00  0.00     0.210 HD
ENDBRANCH   2  23
BRANCH   5  25
HETATM   25  C6  UNK     1      22.120  -3.497  15.677  1.00  0.00     0.198 C 
BRANCH  25  26
HETATM   26  O6  UNK     1      21.640  -4.527  16.520  1.00  0.00    -0.398 OA
HETATM   27  H11 UNK     1      21.382  -4.122  17.365  1.00  0.00     0.209 HD
ENDBRANCH  25  26
ENDBRANCH   5  25
BRANCH   3  28
HETATM   28  O4  UNK     1      19.999  -4.729  14.118  1.00  0.00    -0.390 OA
HETATM   29  H9  UNK     1      19.932  -5.170  13.255  1.00  0.00     0.210 HD
ENDBRANCH   3  28
TORSDOF 8
ENDMDL
MODEL 3
REMARK VINA RESULT:      -8.4     13.464     16.985
REMARK  8 active torsions:
REMARK  status: ('A' for Active; 'I' for Inactive)
REMARK    1  A    between atoms: C5_14  and  O2_2 
REMARK    2  A    between atoms: C7_16  and  O2_2 
REMARK    3  A    between atoms: C1_10  and  O3_3 
REMARK    4  A    between atoms: C2_11  and  O4_4 
REMARK    5  A    between atoms: C3_12  and  O5_5 
REMARK    6  A    between atoms: C6_15  and  O6_6 
REMARK    7  A    between atoms: C9_18  and  O8_8 
REMARK    8  A    between atoms: C4_13  and  C6_15 
ROOT
HETATM    1  O1  UNK     1      17.554   5.491  33.613  1.00  0.00    -0.348 OA
HETATM    2  C1  UNK     1      18.744   6.945  31.421  1.00  0.00     0.183 C 
HETATM    3  C2  UNK     1      17.730   7.588  32.373  1.00  0.00     0.180 C 
HETATM    4  C3  UNK     1      19.407   5.704  32.035  1.00  0.00     0.205 C 
HETATM    5  C4  UNK     1      16.798   6.535  32.993  1.00  0.00     0.179 C 
HETATM    6  C5  UNK     1      18.398   4.770  32.711  1.00  0.00     0.298 C 
ENDROOT
BRANCH   6   7
HETATM    7  O2  UNK     1      17.655   4.064  31.723  1.00  0.00    -0.315 OA
BRANCH   7   8
HETATM    8  C7  UNK     1      18.223   2.921  31.233  1.00  0.00     0.106 A 
HETATM    9  C9  UNK     1      18.606   2.846  29.895  1.00  0.00     0.101 A 
HETATM   10  C12 UNK     1      19.184   1.678  29.402  1.00  0.00     0.077 A 
HETATM   11  C11 UNK     1      19.367   0.599  30.265  1.00  0.00     0.092 A 
HETATM   12  C10 UNK     1      18.989   0.660  31.604  1.00  0.00     0.001 A 
HETATM   13  O7  UNK     1      19.953  -0.569  29.737  1.00  0.00    -0.275 OA
HETATM   14  C8  UNK     1      18.411   1.835  32.090  1.00  0.00     0.054 A 
HETATM   15  C13 UNK     1      19.208  -0.503  32.448  1.00  0.00     0.020 A 
HETATM   16  C14 UNK     1      19.766  -1.605  31.940  1.00  0.00     0.083 A 
HETATM   17  C15 UNK     1      20.174  -1.694  30.527  1.00  0.00     0.288 A 
HETATM   18  O9  UNK     1      20.684  -2.713  30.075  1.00  0.00    -0.260 OA
BRANCH   9  19
HETATM   19  O8  UNK     1      18.421   3.906  29.059  1.00  0.00    -0.358 OA
HETATM   20  H15 UNK     1      18.506   4.730  29.569  1.00  0.00     0.217 HD
ENDBRANCH   9  19
ENDBRANCH   7   8
ENDBRANCH   6   7
BRANCH   4  21
HETATM   21  O5  UNK     1      20.373   6.113  33.002  1.00  0.00    -0.388 OA
HETATM   22  H10 UNK     1      21.254   5.938  32.631  1.00  0.00     0.210 HD
ENDBRANCH   4  21
BRANCH   2  23
HETATM   23  O3  UNK     1      18.095   6.591  30.202  1.00  0.00    -0.390 OA
HETATM   24  H8  UNK     1      17.158   6.838  30.269  1.00  0.00     0.210 HD
ENDBRANCH   2  23
BRANCH   5  25
HETATM   25  C6  UNK     1      15.874   7.116  34.059  1.00  0.00     0.198 C 
BRANCH  25  26
HETATM   26  O6  UNK     1      16.496   6.962  35.320  1.00  0.00    -0.398 OA
HETATM   27  H11 UNK     1      16.067   6.218  35.773  1.00  0.00     0.209 HD
ENDBRANCH  25  26
ENDBRANCH   5  25
BRANCH   3  28
HETATM   28  O4  UNK     1      18.455   8.275  33.393  1.00  0.00    -0.390 OA
HETATM   29  H9  UNK     1      18.585   7.655  34.129  1.00  0.00     0.210 HD
ENDBRANCH   3  28
TORSDOF 8
ENDMDL
MODEL 4
REMARK VINA RESULT:      -8.3      1.789      7.048
REMARK  8 active torsions:
REMARK  status: ('A' for Active; 'I' for Inactive)
REMARK    1  A    between atoms: C5_14  and  O2_2 
REMARK    2  A    between atoms: C7_16  and  O2_2 
REMARK    3  A    between atoms: C1_10  and  O3_3 
REMARK    4  A    between atoms: C2_11  and  O4_4 
REMARK    5  A    between atoms: C3_12  and  O5_5 
REMARK    6  A    between atoms: C6_15  and  O6_6 
REMARK    7  A    between atoms: C9_18  and  O8_8 
REMARK    8  A    between atoms: C4_13  and  C6_15 
ROOT
HETATM    1  O1  UNK     1      18.525   1.100  17.535  1.00  0.00    -0.348 OA
HETATM    2  C1  UNK     1      19.874   0.673  20.052  1.00  0.00     0.183 C 
HETATM    3  C2  UNK     1      19.838   2.043  19.367  1.00  0.00     0.180 C 
HETATM    4  C3  UNK     1      18.751  -0.250  19.559  1.00  0.00     0.205 C 
HETATM    5  C4  UNK     1      19.667   1.905  17.846  1.00  0.00     0.179 C 
HETATM    6  C5  UNK     1      18.604  -0.238  18.035  1.00  0.00     0.298 C 
ENDROOT
BRANCH   6   7
HETATM    7  O2  UNK     1      19.667  -0.975  17.440  1.00  0.00    -0.315 OA
BRANCH   7   8
HETATM    8  C7  UNK     1      19.345  -1.750  16.362  1.00  0.00     0.106 A 
HETATM    9  C9  UNK     1      19.113  -1.163  15.119  1.00  0.00     0.101 A 
HETATM   10  C12 UNK     1      18.785  -1.959  14.024  1.00  0.00     0.077 A 
HETATM   11  C11 UNK     1      18.693  -3.339  14.196  1.00  0.00     0.092 A 
HETATM   12  C10 UNK     1      18.923  -3.940  15.431  1.00  0.00     0.001 A 
HETATM   13  O7  UNK     1      18.359  -4.119  13.070  1.00  0.00    -0.275 OA
HETATM   14  C8  UNK     1      19.252  -3.134  16.524  1.00  0.00     0.054 A 
HETATM   15  C13 UNK     1      18.811  -5.385  15.540  1.00  0.00     0.020 A 
HETATM   16  C14 UNK     1      18.495  -6.116  14.468  1.00  0.00     0.083 A 
HETATM   17  C15 UNK     1      18.248  -5.503  13.150  1.00  0.00     0.288 A 
HETATM   18  O9  UNK     1      17.957  -6.188  12.175  1.00  0.00    -0.260 OA
BRANCH   9  19
HETATM   19  O8  UNK     1      19.203   0.187  14.962  1.00  0.00    -0.358 OA
HETATM   20  H15 UNK     1      18.393   0.511  14.530  1.00  0.00     0.217 HD
ENDBRANCH   9  19
ENDBRANCH   7   8
ENDBRANCH   6   7
BRANCH   4  21
HETATM   21  O5  UNK     1      17.514   0.158  20.142  1.00  0.00    -0.388 OA
HETATM   22  H10 UNK     1      17.475  -0.212  21.040  1.00  0.00     0.210 HD
ENDBRANCH   4  21
BRANCH   2  23
HETATM   23  O3  UNK     1      21.139   0.057  19.820  1.00  0.00    -0.390 OA
HETATM   24  H8  UNK     1      21.126  -0.350  18.938  1.00  0.00     0.210 HD
ENDBRANCH   2  23
BRANCH   5  25
HETATM   25  C6  UNK     1      19.476   3.247  17.147  1.00  0.00     0.198 C 
BRANCH  25  26
HETATM   26  O6  UNK     1      19.106   3.001  15.803  1.00  0.00    -0.398 OA
HETATM   27  H11 UNK     1      18.220   3.377  15.667  1.00  0.00     0.209 HD
ENDBRANCH  25  26
ENDBRANCH   5  25
BRANCH   3  28
HETATM   28  O4  UNK     1      18.756   2.788  19.925  1.00  0.00    -0.390 OA
HETATM   29  H9  UNK     1      18.966   2.959  20.857  1.00  0.00     0.210 HD
ENDBRANCH   3  28
TORSDOF 8
ENDMDL
MODEL 5
REMARK VINA RESULT:      -8.2     12.724     18.532
REMARK  8 active torsions:
REMARK  status: ('A' for Active; 'I' for Inactive)
REMARK    1  A    between atoms: C5_14  and  O2_2 
REMARK    2  A    between atoms: C7_16  and  O2_2 
REMARK    3  A    between atoms: C1_10  and  O3_3 
REMARK    4  A    between atoms: C2_11  and  O4_4 
REMARK    5  A    between atoms: C3_12  and  O5_5 
REMARK    6  A    between atoms: C6_15  and  O6_6 
REMARK    7  A    between atoms: C9_18  and  O8_8 
REMARK    8  A    between atoms: C4_13  and  C6_15 
ROOT
HETATM    1  O1  UNK     1      19.144   0.002  35.927  1.00  0.00    -0.348 OA
HETATM    2  C1  UNK     1      16.815   0.853  37.407  1.00  0.00     0.183 C 
HETATM    3  C2  UNK     1      17.481  -0.507  37.643  1.00  0.00     0.180 C 
HETATM    4  C3  UNK     1      17.764   1.852  36.731  1.00  0.00     0.205 C 
HETATM    5  C4  UNK     1      18.224  -0.992  36.388  1.00  0.00     0.179 C 
HETATM    6  C5  UNK     1      18.526   1.237  35.553  1.00  0.00     0.298 C 
ENDROOT
BRANCH   6   7
HETATM    7  O2  UNK     1      17.654   1.087  34.437  1.00  0.00    -0.315 OA
BRANCH   7   8
HETATM    8  C7  UNK     1      18.246   0.956  33.212  1.00  0.00     0.106 A 
HETATM    9  C9  UNK     1      18.327   2.049  32.351  1.00  0.00     0.101 A 
HETATM   10  C12 UNK     1      18.932   1.908  31.104  1.00  0.00     0.077 A 
HETATM   11  C11 UNK     1      19.446   0.665  30.740  1.00  0.00     0.092 A 
HETATM   12  C10 UNK     1      19.373  -0.436  31.590  1.00  0.00     0.001 A 
HETATM   13  O7  UNK     1      20.051   0.553  29.472  1.00  0.00    -0.275 OA
HETATM   14  C8  UNK     1      18.765  -0.285  32.839  1.00  0.00     0.054 A 
HETATM   15  C13 UNK     1      19.930  -1.702  31.147  1.00  0.00     0.020 A 
HETATM   16  C14 UNK     1      20.503  -1.800  29.944  1.00  0.00     0.083 A 
HETATM   17  C15 UNK     1      20.593  -0.649  29.027  1.00  0.00     0.288 A 
HETATM   18  O9  UNK     1      21.121  -0.754  27.925  1.00  0.00    -0.260 OA
BRANCH   9  19
HETATM   19  O8  UNK     1      17.819   3.259  32.715  1.00  0.00    -0.358 OA
HETATM   20  H15 UNK     1      16.895   3.143  32.999  1.00  0.00     0.217 HD
ENDBRANCH   9  19
ENDBRANCH   7   8
ENDBRANCH   6   7
BRANCH   4  21
HETATM   21  O5  UNK     1      18.708   2.330  37.688  1.00  0.00    -0.388 OA
HETATM   22  H10 UNK     1      18.907   1.598  38.297  1.00  0.00     0.210 HD
ENDBRANCH   4  21
BRANCH   2  23
HETATM   23  O3  UNK     1      15.648   0.679  36.606  1.00  0.00    -0.390 OA
HETATM   24  H8  UNK     1      15.903   0.227  35.785  1.00  0.00     0.210 HD
ENDBRANCH   2  23
BRANCH   5  25
HETATM   25  C6  UNK     1      19.024  -2.268  36.629  1.00  0.00     0.198 C 
BRANCH  25  26
HETATM   26  O6  UNK     1      18.123  -3.358  36.674  1.00  0.00    -0.398 OA
HETATM   27  H11 UNK     1      18.062  -3.654  37.597  1.00  0.00     0.209 HD
ENDBRANCH  25  26
ENDBRANCH   5  25
BRANCH   3  28
HETATM   28  O4  UNK     1      18.387  -0.372  38.738  1.00  0.00    -0.390 OA
HETATM   29  H9  UNK     1      19.123   0.190  38.443  1.00  0.00     0.210 HD
ENDBRANCH   3  28
TORSDOF 8
ENDMDL
MODEL 6
REMARK VINA RESULT:      -8.2     13.518     17.367
REMARK  8 active torsions:
REMARK  status: ('A' for Active; 'I' for Inactive)
REMARK    1  A    between atoms: C5_14  and  O2_2 
REMARK    2  A    between atoms: C7_16  and  O2_2 
REMARK    3  A    between atoms: C1_10  and  O3_3 
REMARK    4  A    between atoms: C2_11  and  O4_4 
REMARK    5  A    between atoms: C3_12  and  O5_5 
REMARK    6  A    between atoms: C6_15  and  O6_6 
REMARK    7  A    between atoms: C9_18  and  O8_8 
REMARK    8  A    between atoms: C4_13  and  C6_15 
ROOT
HETATM    1  O1  UNK     1      17.521   5.624  33.838  1.00  0.00    -0.348 OA
HETATM    2  C1  UNK     1      18.751   6.813  31.512  1.00  0.00     0.183 C 
HETATM    3  C2  UNK     1      17.699   7.551  32.347  1.00  0.00     0.180 C 
HETATM    4  C3  UNK     1      19.416   5.673  32.296  1.00  0.00     0.205 C 
HETATM    5  C4  UNK     1      16.766   6.567  33.069  1.00  0.00     0.179 C 
HETATM    6  C5  UNK     1      18.403   4.812  33.057  1.00  0.00     0.298 C 
ENDROOT
BRANCH   6   7
HETATM    7  O2  UNK     1      17.701   3.972  32.147  1.00  0.00    -0.315 OA
BRANCH   7   8
HETATM    8  C7  UNK     1      18.204   2.715  31.963  1.00  0.00     0.106 A 
HETATM    9  C9  UNK     1      18.200   1.797  33.013  1.00  0.00     0.101 A 
HETATM   10  C12 UNK     1      18.715   0.517  32.820  1.00  0.00     0.077 A 
HETATM   11  C11 UNK     1      19.229   0.178  31.569  1.00  0.00     0.092 A 
HETATM   12  C10 UNK     1      19.240   1.084  30.512  1.00  0.00     0.001 A 
HETATM   13  O7  UNK     1      19.744  -1.123  31.404  1.00  0.00    -0.275 OA
HETATM   14  C8  UNK     1      18.721   2.365  30.715  1.00  0.00     0.054 A 
HETATM   15  C13 UNK     1      19.792   0.665  29.235  1.00  0.00     0.020 A 
HETATM   16  C14 UNK     1      20.277  -0.571  29.086  1.00  0.00     0.083 A 
HETATM   17  C15 UNK     1      20.276  -1.548  30.190  1.00  0.00     0.288 A 
HETATM   18  O9  UNK     1      20.725  -2.679  30.039  1.00  0.00    -0.260 OA
BRANCH   9  19
HETATM   19  O8  UNK     1      17.696   2.139  34.232  1.00  0.00    -0.358 OA
HETATM   20  H15 UNK     1      18.431   2.247  34.860  1.00  0.00     0.217 HD
ENDBRANCH   9  19
ENDBRANCH   7   8
ENDBRANCH   6   7
BRANCH   4  21
HETATM   21  O5  UNK     1      20.346   6.220  33.229  1.00  0.00    -0.388 OA
HETATM   22  H10 UNK     1      20.647   7.076  32.878  1.00  0.00     0.210 HD
ENDBRANCH   4  21
BRANCH   2  23
HETATM   23  O3  UNK     1      18.144   6.295  30.330  1.00  0.00    -0.390 OA
HETATM   24  H8  UNK     1      17.905   5.367  30.489  1.00  0.00     0.210 HD
ENDBRANCH   2  23
BRANCH   5  25
HETATM   25  C6  UNK     1      15.802   7.259  34.027  1.00  0.00     0.198 C 
BRANCH  25  26
HETATM   26  O6  UNK     1      16.423   7.351  35.295  1.00  0.00    -0.398 OA
HETATM   27  H11 UNK     1      15.886   7.946  35.845  1.00  0.00     0.209 HD
ENDBRANCH  25  26
ENDBRANCH   5  25
BRANCH   3  28
HETATM   28  O4  UNK     1      18.383   8.375  33.290  1.00  0.00    -0.390 OA
HETATM   29  H9  UNK     1      19.067   8.869  32.809  1.00  0.00     0.210 HD
ENDBRANCH   3  28
TORSDOF 8
ENDMDL
MODEL 7
REMARK VINA RESULT:      -8.2     14.680     18.121
REMARK  8 active torsions:
REMARK  status: ('A' for Active; 'I' for Inactive)
REMARK    1  A    between atoms: C5_14  and  O2_2 
REMARK    2  A    between atoms: C7_16  and  O2_2 
REMARK    3  A    between atoms: C1_10  and  O3_3 
REMARK    4  A    between atoms: C2_11  and  O4_4 
REMARK    5  A    between atoms: C3_12  and  O5_5 
REMARK    6  A    between atoms: C6_15  and  O6_6 
REMARK    7  A    between atoms: C9_18  and  O8_8 
REMARK    8  A    between atoms: C4_13  and  C6_15 
ROOT
HETATM    1  O1  UNK     1      19.541  -0.295  35.616  1.00  0.00    -0.348 OA
HETATM    2  C1  UNK     1      16.877  -1.229  36.220  1.00  0.00     0.183 C 
HETATM    3  C2  UNK     1      18.128  -2.036  36.584  1.00  0.00     0.180 C 
HETATM    4  C3  UNK     1      17.192   0.257  35.998  1.00  0.00     0.205 C 
HETATM    5  C4  UNK     1      19.300  -1.705  35.648  1.00  0.00     0.179 C 
HETATM    6  C5  UNK     1      18.436   0.473  35.131  1.00  0.00     0.298 C 
ENDROOT
BRANCH   6   7
HETATM    7  O2  UNK     1      18.134   0.184  33.770  1.00  0.00    -0.315 OA
BRANCH   7   8
HETATM    8  C7  UNK     1      18.343   1.192  32.871  1.00  0.00     0.106 A 
HETATM    9  C9  UNK     1      18.729   0.898  31.563  1.00  0.00     0.101 A 
HETATM   10  C12 UNK     1      18.941   1.930  30.652  1.00  0.00     0.077 A 
HETATM   11  C11 UNK     1      18.760   3.248  31.070  1.00  0.00     0.092 A 
HETATM   12  C10 UNK     1      18.374   3.557  32.372  1.00  0.00     0.001 A 
HETATM   13  O7  UNK     1      18.982   4.270  30.126  1.00  0.00    -0.275 OA
HETATM   14  C8  UNK     1      18.164   2.515  33.279  1.00  0.00     0.054 A 
HETATM   15  C13 UNK     1      18.204   4.952  32.741  1.00  0.00     0.020 A 
HETATM   16  C14 UNK     1      18.415   5.914  31.840  1.00  0.00     0.083 A 
HETATM   17  C15 UNK     1      18.824   5.613  30.456  1.00  0.00     0.288 A 
HETATM   18  O9  UNK     1      19.015   6.508  29.640  1.00  0.00    -0.260 OA
BRANCH   9  19
HETATM   19  O8  UNK     1      18.905  -0.393  31.166  1.00  0.00    -0.358 OA
HETATM   20  H15 UNK     1      19.764  -0.472  30.715  1.00  0.00     0.217 HD
ENDBRANCH   9  19
ENDBRANCH   7   8
ENDBRANCH   6   7
BRANCH   4  21
HETATM   21  O5  UNK     1      17.397   0.891  37.259  1.00  0.00    -0.388 OA
HETATM   22  H10 UNK     1      18.298   1.257  37.262  1.00  0.00     0.210 HD
ENDBRANCH   4  21
BRANCH   2  23
HETATM   23  O3  UNK     1      16.282  -1.775  35.044  1.00  0.00    -0.390 OA
HETATM   24  H8  UNK     1      16.986  -1.959  34.401  1.00  0.00     0.210 HD
ENDBRANCH   2  23
BRANCH   5  25
HETATM   25  C6  UNK     1      20.603  -2.375  36.071  1.00  0.00     0.198 C 
BRANCH  25  26
HETATM   26  O6  UNK     1      21.603  -2.041  35.128  1.00  0.00    -0.398 OA
HETATM   27  H11 UNK     1      21.193  -2.044  34.247  1.00  0.00     0.209 HD
ENDBRANCH  25  26
ENDBRANCH   5  25
BRANCH   3  28
HETATM   28  O4  UNK     1      18.469  -1.735  37.937  1.00  0.00    -0.390 OA
HETATM   29  H9  UNK     1      19.436  -1.784  38.014  1.00  0.00     0.210 HD
ENDBRANCH   3  28
TORSDOF 8
ENDMDL
MODEL 8
REMARK VINA RESULT:      -8.2     16.432     18.749
REMARK  8 active torsions:
REMARK  status: ('A' for Active; 'I' for Inactive)
REMARK    1  A    between atoms: C5_14  and  O2_2 
REMARK    2  A    between atoms: C7_16  and  O2_2 
REMARK    3  A    between atoms: C1_10  and  O3_3 
REMARK    4  A    between atoms: C2_11  and  O4_4 
REMARK    5  A    between atoms: C3_12  and  O5_5 
REMARK    6  A    between atoms: C6_15  and  O6_6 
REMARK    7  A    between atoms: C9_18  and  O8_8 
REMARK    8  A    between atoms: C4_13  and  C6_15 
ROOT
HETATM    1  O1  UNK     1      16.862   6.070  33.477  1.00  0.00    -0.348 OA
HETATM    2  C1  UNK     1      19.465   6.969  32.608  1.00  0.00     0.183 C 
HETATM    3  C2  UNK     1      18.169   7.633  32.128  1.00  0.00     0.180 C 
HETATM    4  C3  UNK     1      19.264   6.184  33.912  1.00  0.00     0.205 C 
HETATM    5  C4  UNK     1      16.987   6.651  32.175  1.00  0.00     0.179 C 
HETATM    6  C5  UNK     1      18.004   5.312  33.887  1.00  0.00     0.298 C 
ENDROOT
BRANCH   6   7
HETATM    7  O2  UNK     1      18.220   4.172  33.062  1.00  0.00    -0.315 OA
BRANCH   7   8
HETATM    8  C7  UNK     1      18.189   2.955  33.683  1.00  0.00     0.106 A 
HETATM    9  C9  UNK     1      18.313   1.783  32.937  1.00  0.00     0.101 A 
HETATM   10  C12 UNK     1      18.280   0.545  33.576  1.00  0.00     0.077 A 
HETATM   11  C11 UNK     1      18.121   0.504  34.960  1.00  0.00     0.092 A 
HETATM   12  C10 UNK     1      17.997   1.666  35.718  1.00  0.00     0.001 A 
HETATM   13  O7  UNK     1      18.091  -0.762  35.578  1.00  0.00    -0.275 OA
HETATM   14  C8  UNK     1      18.032   2.903  35.069  1.00  0.00     0.054 A 
HETATM   15  C13 UNK     1      17.834   1.550  37.157  1.00  0.00     0.020 A 
HETATM   16  C14 UNK     1      17.808   0.346  37.735  1.00  0.00     0.083 A 
HETATM   17  C15 UNK     1      17.938  -0.897  36.955  1.00  0.00     0.288 A 
HETATM   18  O9  UNK     1      17.911  -1.996  37.499  1.00  0.00    -0.260 OA
BRANCH   9  19
HETATM   19  O8  UNK     1      18.465   1.834  31.584  1.00  0.00    -0.358 OA
HETATM   20  H15 UNK     1      17.650   2.188  31.187  1.00  0.00     0.217 HD
ENDBRANCH   9  19
ENDBRANCH   7   8
ENDBRANCH   6   7
BRANCH   4  21
HETATM   21  O5  UNK     1      19.168   7.096  35.004  1.00  0.00    -0.388 OA
HETATM   22  H10 UNK     1      18.981   7.977  34.637  1.00  0.00     0.210 HD
ENDBRANCH   4  21
BRANCH   2  23
HETATM   23  O3  UNK     1      19.959   6.099  31.593  1.00  0.00    -0.390 OA
HETATM   24  H8  UNK     1      20.517   6.616  30.989  1.00  0.00     0.210 HD
ENDBRANCH   2  23
BRANCH   5  25
HETATM   25  C6  UNK     1      15.654   7.315  31.849  1.00  0.00     0.198 C 
BRANCH  25  26
HETATM   26  O6  UNK     1      15.898   8.405  30.980  1.00  0.00    -0.398 OA
HETATM   27  H11 UNK     1      16.506   8.100  30.286  1.00  0.00     0.209 HD
ENDBRANCH  25  26
ENDBRANCH   5  25
BRANCH   3  28
HETATM   28  O4  UNK     1      17.915   8.761  32.965  1.00  0.00    -0.390 OA
HETATM   29  H9  UNK     1      18.713   8.919  33.495  1.00  0.00     0.210 HD
ENDBRANCH   3  28
TORSDOF 8
ENDMDL
MODEL 9
REMARK VINA RESULT:      -8.1     15.400     18.586
REMARK  8 active torsions:
REMARK  status: ('A' for Active; 'I' for Inactive)
REMARK    1  A    between atoms: C5_14  and  O2_2 
REMARK    2  A    between atoms: C7_16  and  O2_2 
REMARK    3  A    between atoms: C1_10  and  O3_3 
REMARK    4  A    between atoms: C2_11  and  O4_4 
REMARK    5  A    between atoms: C3_12  and  O5_5 
REMARK    6  A    between atoms: C6_15  and  O6_6 
REMARK    7  A    between atoms: C9_18  and  O8_8 
REMARK    8  A    between atoms: C4_13  and  C6_15 
ROOT
HETATM    1  O1  UNK     1      15.696   6.631  33.617  1.00  0.00    -0.348 OA
HETATM    2  C1  UNK     1      16.912   9.226  33.967  1.00  0.00     0.183 C 
HETATM    3  C2  UNK     1      15.560   9.045  33.266  1.00  0.00     0.180 C 
HETATM    4  C3  UNK     1      17.263   8.031  34.863  1.00  0.00     0.205 C 
HETATM    5  C4  UNK     1      15.437   7.646  32.642  1.00  0.00     0.179 C 
HETATM    6  C5  UNK     1      17.011   6.685  34.177  1.00  0.00     0.298 C 
ENDROOT
BRANCH   6   7
HETATM    7  O2  UNK     1      18.023   6.440  33.205  1.00  0.00    -0.315 OA
BRANCH   7   8
HETATM    8  C7  UNK     1      18.180   5.144  32.801  1.00  0.00     0.106 A 
HETATM    9  C9  UNK     1      18.413   4.851  31.458  1.00  0.00     0.101 A 
HETATM   10  C12 UNK     1      18.573   3.528  31.052  1.00  0.00     0.077 A 
HETATM   11  C11 UNK     1      18.495   2.515  32.007  1.00  0.00     0.092 A 
HETATM   12  C10 UNK     1      18.263   2.792  33.352  1.00  0.00     0.001 A 
HETATM   13  O7  UNK     1      18.659   1.186  31.567  1.00  0.00    -0.275 OA
HETATM   14  C8  UNK     1      18.104   4.122  33.749  1.00  0.00     0.054 A 
HETATM   15  C13 UNK     1      18.193   1.688  34.294  1.00  0.00     0.020 A 
HETATM   16  C14 UNK     1      18.352   0.432  33.869  1.00  0.00     0.083 A 
HETATM   17  C15 UNK     1      18.598   0.113  32.451  1.00  0.00     0.288 A 
HETATM   18  O9  UNK     1      18.741  -1.045  32.075  1.00  0.00    -0.260 OA
BRANCH   9  19
HETATM   19  O8  UNK     1      18.486   5.848  30.532  1.00  0.00    -0.358 OA
HETATM   20  H15 UNK     1      19.029   6.572  30.889  1.00  0.00     0.217 HD
ENDBRANCH   9  19
ENDBRANCH   7   8
ENDBRANCH   6   7
BRANCH   4  21
HETATM   21  O5  UNK     1      16.485   8.090  36.057  1.00  0.00    -0.388 OA
HETATM   22  H10 UNK     1      15.830   7.372  36.018  1.00  0.00     0.210 HD
ENDBRANCH   4  21
BRANCH   2  23
HETATM   23  O3  UNK     1      17.934   9.413  32.991  1.00  0.00    -0.390 OA
HETATM   24  H8  UNK     1      18.735   8.954  33.293  1.00  0.00     0.210 HD
ENDBRANCH   2  23
BRANCH   5  25
HETATM   25  C6  UNK     1      14.051   7.374  32.067  1.00  0.00     0.198 C 
BRANCH  25  26
HETATM   26  O6  UNK     1      13.202   6.965  33.122  1.00  0.00    -0.398 OA
HETATM   27  H11 UNK     1      13.334   7.579  33.863  1.00  0.00     0.209 HD
ENDBRANCH  25  26
ENDBRANCH   5  25
BRANCH   3  28
HETATM   28  O4  UNK     1      14.531   9.253  34.232  1.00  0.00    -0.390 OA
HETATM   29  H9  UNK     1      14.883   8.991  35.099  1.00  0.00     0.210 HD
ENDBRANCH   3  28
TORSDOF 8
ENDMDL
MODEL 10
REMARK VINA RESULT:      -8.1     18.369     20.753
REMARK  8 active torsions:
REMARK  status: ('A' for Active; 'I' for Inactive)
REMARK    1  A    between atoms: C5_14  and  O2_2 
REMARK    2  A    between atoms: C7_16  and  O2_2 
REMARK    3  A    between atoms: C1_10  and  O3_3 
REMARK    4  A    between atoms: C2_11  and  O4_4 
REMARK    5  A    between atoms: C3_12  and  O5_5 
REMARK    6  A    between atoms: C6_15  and  O6_6 
REMARK    7  A    between atoms: C9_18  and  O8_8 
REMARK    8  A    between atoms: C4_13  and  C6_15 
ROOT
HETATM    1  O1  UNK     1      20.635  -6.550  37.872  1.00  0.00    -0.348 OA
HETATM    2  C1  UNK     1      19.012  -7.426  35.651  1.00  0.00     0.183 C 
HETATM    3  C2  UNK     1      20.063  -8.332  36.302  1.00  0.00     0.180 C 
HETATM    4  C3  UNK     1      18.580  -6.282  36.579  1.00  0.00     0.205 C 
HETATM    5  C4  UNK     1      21.181  -7.508  36.961  1.00  0.00     0.179 C 
HETATM    6  C5  UNK     1      19.767  -5.593  37.258  1.00  0.00     0.298 C 
ENDROOT
BRANCH   6   7
HETATM    7  O2  UNK     1      20.450  -4.768  36.320  1.00  0.00    -0.315 OA
BRANCH   7   8
HETATM    8  C7  UNK     1      19.948  -3.510  36.133  1.00  0.00     0.106 A 
HETATM    9  C9  UNK     1      20.060  -2.887  34.890  1.00  0.00     0.101 A 
HETATM   10  C12 UNK     1      19.546  -1.605  34.707  1.00  0.00     0.077 A 
HETATM   11  C11 UNK     1      18.926  -0.967  35.779  1.00  0.00     0.092 A 
HETATM   12  C10 UNK     1      18.806  -1.577  37.025  1.00  0.00     0.001 A 
HETATM   13  O7  UNK     1      18.416   0.330  35.563  1.00  0.00    -0.275 OA
HETATM   14  C8  UNK     1      19.324  -2.862  37.200  1.00  0.00     0.054 A 
HETATM   15  C13 UNK     1      18.147  -0.853  38.099  1.00  0.00     0.020 A 
HETATM   16  C14 UNK     1      17.666   0.374  37.886  1.00  0.00     0.083 A 
HETATM   17  C15 UNK     1      17.781   1.040  36.576  1.00  0.00     0.288 A 
HETATM   18  O9  UNK     1      17.335   2.169  36.396  1.00  0.00    -0.260 OA
BRANCH   9  19
HETATM   19  O8  UNK     1      20.670  -3.519  33.849  1.00  0.00    -0.358 OA
HETATM   20  H15 UNK     1      19.993  -3.952  33.300  1.00  0.00     0.217 HD
ENDBRANCH   9  19
ENDBRANCH   7   8
ENDBRANCH   6   7
BRANCH   4  21
HETATM   21  O5  UNK     1      17.709  -6.793  37.587  1.00  0.00    -0.388 OA
HETATM   22  H10 UNK     1      16.795  -6.626  37.299  1.00  0.00     0.210 HD
ENDBRANCH   4  21
BRANCH   2  23
HETATM   23  O3  UNK     1      19.531  -6.890  34.436  1.00  0.00    -0.390 OA
HETATM   24  H8  UNK     1      18.883  -6.264  34.074  1.00  0.00     0.210 HD
ENDBRANCH   2  23
BRANCH   5  25
HETATM   25  C6  UNK     1      22.164  -8.368  37.748  1.00  0.00     0.198 C 
BRANCH  25  26
HETATM   26  O6  UNK     1      22.235  -9.641  37.134  1.00  0.00    -0.398 OA
HETATM   27  H11 UNK     1      21.363  -9.834  36.751  1.00  0.00     0.209 HD
ENDBRANCH  25  26
ENDBRANCH   5  25
BRANCH   3  28
HETATM   28  O4  UNK     1      19.404  -9.145  37.273  1.00  0.00    -0.390 OA
HETATM   29  H9  UNK     1      19.789  -8.938  38.141  1.00  0.00     0.210 HD
ENDBRANCH   3  28
TORSDOF 8
ENDMDL
