MODEL 1
REMARK VINA RESULT:      -9.3      0.000      0.000
REMARK  5 active torsions:
REMARK  status: ('A' for Active; 'I' for Inactive)
REMARK    1  A    between atoms: C5_12  and  N1_5 
REMARK    2  A    between atoms: C6_13  and  N2_6 
REMARK    3  A    between atoms: C6_13  and  N3_7 
REMARK    4  A    between atoms: C9_16  and  N3_7 
REMARK    5  A    between atoms: C12_19  and  C19_26 
ROOT
HETATM    1  S1  UNK     1      15.756   0.545  35.626  1.00  0.00    -0.041 SA
HETATM    2  C6  UNK     1      17.433   0.479  35.632  1.00  0.00     0.174 C 
ENDROOT
BRANCH   2   3
HETATM    3  N2  UNK     1      18.064  -0.695  35.882  1.00  0.00    -0.355 N 
HETATM    4  C3  UNK     1      19.492  -0.849  35.644  1.00  0.00     0.145 C 
HETATM    5  C1  UNK     1      19.870  -2.298  35.346  1.00  0.00     0.143 C 
HETATM    6  N1  UNK     1      19.403  -3.188  36.415  1.00  0.00    -0.378 N 
HETATM    7  C2  UNK     1      18.237  -2.776  37.205  1.00  0.00     0.143 C 
HETATM    8  C4  UNK     1      17.337  -1.845  36.397  1.00  0.00     0.145 C 
BRANCH   6   9
HETATM    9  C5  UNK     1      20.053  -4.392  36.675  1.00  0.00     0.030 A 
HETATM   10  C7  UNK     1      19.829  -5.538  35.875  1.00  0.00     0.030 A 
HETATM   11  C10 UNK     1      20.479  -6.744  36.136  1.00  0.00     0.017 A 
HETATM   12  C12 UNK     1      21.372  -6.839  37.203  1.00  0.00     0.009 A 
HETATM   13  C11 UNK     1      21.614  -5.728  38.010  1.00  0.00     0.017 A 
HETATM   14  C8  UNK     1      20.964  -4.521  37.751  1.00  0.00     0.030 A 
BRANCH  12  15
HETATM   15  C19 UNK     1      22.051  -8.097  37.475  1.00  0.00     0.155 C 
HETATM   16  O2  UNK     1      23.252  -8.266  37.215  1.00  0.00    -0.293 OA
HETATM   17  C23 UNK     1      21.289  -9.256  38.093  1.00  0.00     0.096 C 
ENDBRANCH  12  15
ENDBRANCH   6   9
ENDBRANCH   2   3
BRANCH   2  18
HETATM   18  N3  UNK     1      18.185   1.601  35.324  1.00  0.00    -0.333 N 
HETATM   19  H11 UNK     1      18.788   1.919  36.080  1.00  0.00     0.168 HD
BRANCH  18  20
HETATM   20  C9  UNK     1      18.281   2.367  34.162  1.00  0.00     0.036 A 
HETATM   21  C13 UNK     1      18.211   1.754  32.915  1.00  0.00     0.067 A 
HETATM   22  C16 UNK     1      18.309   2.539  31.765  1.00  0.00     0.092 A 
HETATM   23  C14 UNK     1      18.476   3.924  31.819  1.00  0.00     0.004 A 
HETATM   24  O1  UNK     1      18.230   1.862  30.531  1.00  0.00    -0.275 OA
HETATM   25  C17 UNK     1      18.544   4.521  33.085  1.00  0.00     0.017 A 
HETATM   26  C18 UNK     1      18.569   4.671  30.557  1.00  0.00    -0.043 A 
HETATM   27  C15 UNK     1      18.447   3.748  34.247  1.00  0.00     0.030 A 
HETATM   28  C20 UNK     1      18.492   4.001  29.399  1.00  0.00     0.090 A 
HETATM   29  C21 UNK     1      18.749   6.161  30.582  1.00  0.00     0.049 C 
HETATM   30  C22 UNK     1      18.316   2.541  29.325  1.00  0.00     0.288 A 
HETATM   31  O3  UNK     1      18.249   1.963  28.246  1.00  0.00    -0.260 OA
ENDBRANCH  18  20
ENDBRANCH   2  18
TORSDOF 5
ENDMDL
MODEL 2
REMARK VINA RESULT:      -9.2      6.152     12.631
REMARK  5 active torsions:
REMARK  status: ('A' for Active; 'I' for Inactive)
REMARK    1  A    between atoms: C5_12  and  N1_5 
REMARK    2  A    between atoms: C6_13  and  N2_6 
REMARK    3  A    between atoms: C6_13  and  N3_7 
REMARK    4  A    between atoms: C9_16  and  N3_7 
REMARK    5  A    between atoms: C12_19  and  C19_26 
ROOT
HETATM    1  S1  UNK     1      19.722   5.924  31.952  1.00  0.00    -0.041 SA
HETATM    2  C6  UNK     1      18.091   5.622  32.212  1.00  0.00     0.174 C 
ENDROOT
BRANCH   2   3
HETATM    3  N2  UNK     1      17.280   6.617  32.648  1.00  0.00    -0.355 N 
HETATM    4  C3  UNK     1      17.584   7.359  33.863  1.00  0.00     0.145 C 
HETATM    5  C1  UNK     1      16.326   7.918  34.524  1.00  0.00     0.143 C 
HETATM    6  N1  UNK     1      15.558   8.732  33.574  1.00  0.00    -0.378 N 
HETATM    7  C2  UNK     1      15.689   8.441  32.141  1.00  0.00     0.143 C 
HETATM    8  C4  UNK     1      16.075   6.981  31.919  1.00  0.00     0.145 C 
BRANCH   6   9
HETATM    9  C5  UNK     1      14.727   9.757  34.021  1.00  0.00     0.030 A 
HETATM   10  C7  UNK     1      13.776  10.361  33.165  1.00  0.00     0.030 A 
HETATM   11  C10 UNK     1      12.945  11.388  33.612  1.00  0.00     0.017 A 
HETATM   12  C12 UNK     1      13.039  11.838  34.928  1.00  0.00     0.009 A 
HETATM   13  C11 UNK     1      13.966  11.262  35.798  1.00  0.00     0.017 A 
HETATM   14  C8  UNK     1      14.798  10.236  35.351  1.00  0.00     0.030 A 
BRANCH  12  15
HETATM   15  C19 UNK     1      12.172  12.908  35.396  1.00  0.00     0.155 C 
HETATM   16  O2  UNK     1      10.962  12.731  35.604  1.00  0.00    -0.293 OA
HETATM   17  C23 UNK     1      12.737  14.295  35.644  1.00  0.00     0.096 C 
ENDBRANCH  12  15
ENDBRANCH   6   9
ENDBRANCH   2   3
BRANCH   2  18
HETATM   18  N3  UNK     1      17.549   4.380  31.929  1.00  0.00    -0.333 N 
HETATM   19  H11 UNK     1      16.541   4.326  32.056  1.00  0.00     0.168 HD
BRANCH  18  20
HETATM   20  C9  UNK     1      18.129   3.192  31.483  1.00  0.00     0.036 A 
HETATM   21  C13 UNK     1      18.374   2.156  32.379  1.00  0.00     0.067 A 
HETATM   22  C16 UNK     1      18.955   0.976  31.912  1.00  0.00     0.092 A 
HETATM   23  C14 UNK     1      19.302   0.794  30.572  1.00  0.00     0.004 A 
HETATM   24  O1  UNK     1      19.178  -0.038  32.866  1.00  0.00    -0.275 OA
HETATM   25  C17 UNK     1      19.047   1.850  29.686  1.00  0.00     0.017 A 
HETATM   26  C18 UNK     1      19.909  -0.482  30.169  1.00  0.00    -0.043 A 
HETATM   27  C15 UNK     1      18.466   3.039  30.139  1.00  0.00     0.030 A 
HETATM   28  C20 UNK     1      20.110  -1.427  31.098  1.00  0.00     0.090 A 
HETATM   29  C21 UNK     1      20.293  -0.707  28.736  1.00  0.00     0.049 C 
HETATM   30  C22 UNK     1      19.749  -1.251  32.515  1.00  0.00     0.288 A 
HETATM   31  O3  UNK     1      19.948  -2.140  33.336  1.00  0.00    -0.260 OA
ENDBRANCH  18  20
ENDBRANCH   2  18
TORSDOF 5
ENDMDL
MODEL 3
REMARK VINA RESULT:      -9.1      1.999     11.041
REMARK  5 active torsions:
REMARK  status: ('A' for Active; 'I' for Inactive)
REMARK    1  A    between atoms: C5_12  and  N1_5 
REMARK    2  A    between atoms: C6_13  and  N2_6 
REMARK    3  A    between atoms: C6_13  and  N3_7 
REMARK    4  A    between atoms: C9_16  and  N3_7 
REMARK    5  A    between atoms: C12_19  and  C19_26 
ROOT
HETATM    1  S1  UNK     1      17.899  -1.787  37.960  1.00  0.00    -0.041 SA
HETATM    2  C6  UNK     1      18.560  -1.802  36.417  1.00  0.00     0.174 C 
ENDROOT
BRANCH   2   3
HETATM    3  N2  UNK     1      18.505  -0.688  35.646  1.00  0.00    -0.355 N 
HETATM    4  C3  UNK     1      18.975   0.597  36.144  1.00  0.00     0.145 C 
HETATM    5  C1  UNK     1      18.266   1.768  35.468  1.00  0.00     0.143 C 
HETATM    6  N1  UNK     1      18.389   1.678  34.008  1.00  0.00    -0.378 N 
HETATM    7  C2  UNK     1      18.573   0.353  33.404  1.00  0.00     0.143 C 
HETATM    8  C4  UNK     1      17.973  -0.734  34.293  1.00  0.00     0.145 C 
BRANCH   6   9
HETATM    9  C5  UNK     1      18.336   2.823  33.216  1.00  0.00     0.030 A 
HETATM   10  C7  UNK     1      18.241   4.113  33.790  1.00  0.00     0.030 A 
HETATM   11  C10 UNK     1      18.187   5.259  32.997  1.00  0.00     0.017 A 
HETATM   12  C12 UNK     1      18.229   5.148  31.608  1.00  0.00     0.009 A 
HETATM   13  C11 UNK     1      18.324   3.890  31.011  1.00  0.00     0.017 A 
HETATM   14  C8  UNK     1      18.376   2.744  31.803  1.00  0.00     0.030 A 
BRANCH  12  15
HETATM   15  C19 UNK     1      18.174   6.343  30.780  1.00  0.00     0.155 C 
HETATM   16  O2  UNK     1      18.914   6.497  29.796  1.00  0.00    -0.293 OA
HETATM   17  C23 UNK     1      17.191   7.453  31.108  1.00  0.00     0.096 C 
ENDBRANCH  12  15
ENDBRANCH   6   9
ENDBRANCH   2   3
BRANCH   2  18
HETATM   18  N3  UNK     1      19.217  -2.924  35.941  1.00  0.00    -0.333 N 
HETATM   19  H11 UNK     1      19.359  -2.928  34.934  1.00  0.00     0.168 HD
BRANCH  18  20
HETATM   20  C9  UNK     1      19.736  -4.044  36.592  1.00  0.00     0.036 A 
HETATM   21  C13 UNK     1      19.091  -5.272  36.489  1.00  0.00     0.067 A 
HETATM   22  C16 UNK     1      19.628  -6.380  37.148  1.00  0.00     0.092 A 
HETATM   23  C14 UNK     1      20.794  -6.300  37.911  1.00  0.00     0.004 A 
HETATM   24  O1  UNK     1      18.931  -7.597  37.007  1.00  0.00    -0.275 OA
HETATM   25  C17 UNK     1      21.429  -5.054  38.001  1.00  0.00     0.017 A 
HETATM   26  C18 UNK     1      21.288  -7.517  38.570  1.00  0.00    -0.043 A 
HETATM   27  C15 UNK     1      20.902  -3.935  37.347  1.00  0.00     0.030 A 
HETATM   28  C20 UNK     1      20.605  -8.661  38.419  1.00  0.00     0.090 A 
HETATM   29  C21 UNK     1      22.539  -7.465  39.397  1.00  0.00     0.049 C 
HETATM   30  C22 UNK     1      19.373  -8.760  37.617  1.00  0.00     0.288 A 
HETATM   31  O3  UNK     1      18.775  -9.825  37.501  1.00  0.00    -0.260 OA
ENDBRANCH  18  20
ENDBRANCH   2  18
TORSDOF 5
ENDMDL
MODEL 4
REMARK VINA RESULT:      -9.0      1.896     11.096
REMARK  5 active torsions:
REMARK  status: ('A' for Active; 'I' for Inactive)
REMARK    1  A    between atoms: C5_12  and  N1_5 
REMARK    2  A    between atoms: C6_13  and  N2_6 
REMARK    3  A    between atoms: C6_13  and  N3_7 
REMARK    4  A    between atoms: C9_16  and  N3_7 
REMARK    5  A    between atoms: C12_19  and  C19_26 
ROOT
HETATM    1  S1  UNK     1      17.912  -1.739  37.997  1.00  0.00    -0.041 SA
HETATM    2  C6  UNK     1      18.512  -1.790  36.430  1.00  0.00     0.174 C 
ENDROOT
BRANCH   2   3
HETATM    3  N2  UNK     1      18.470  -0.680  35.653  1.00  0.00    -0.355 N 
HETATM    4  C3  UNK     1      18.985   0.595  36.131  1.00  0.00     0.145 C 
HETATM    5  C1  UNK     1      18.293   1.780  35.462  1.00  0.00     0.143 C 
HETATM    6  N1  UNK     1      18.384   1.677  34.001  1.00  0.00    -0.378 N 
HETATM    7  C2  UNK     1      18.519   0.344  33.402  1.00  0.00     0.143 C 
HETATM    8  C4  UNK     1      17.910  -0.721  34.311  1.00  0.00     0.145 C 
BRANCH   6   9
HETATM    9  C5  UNK     1      18.345   2.818  33.201  1.00  0.00     0.030 A 
HETATM   10  C7  UNK     1      18.263   4.112  33.768  1.00  0.00     0.030 A 
HETATM   11  C10 UNK     1      18.223   5.254  32.968  1.00  0.00     0.017 A 
HETATM   12  C12 UNK     1      18.265   5.134  31.579  1.00  0.00     0.009 A 
HETATM   13  C11 UNK     1      18.347   3.872  30.990  1.00  0.00     0.017 A 
HETATM   14  C8  UNK     1      18.386   2.730  31.789  1.00  0.00     0.030 A 
BRANCH  12  15
HETATM   15  C19 UNK     1      18.225   6.325  30.744  1.00  0.00     0.155 C 
HETATM   16  O2  UNK     1      18.977   6.470  29.768  1.00  0.00    -0.293 OA
HETATM   17  C23 UNK     1      17.244   7.441  31.055  1.00  0.00     0.096 C 
ENDBRANCH  12  15
ENDBRANCH   6   9
ENDBRANCH   2   3
BRANCH   2  18
HETATM   18  N3  UNK     1      19.106  -2.941  35.939  1.00  0.00    -0.333 N 
HETATM   19  H11 UNK     1      19.305  -2.914  34.942  1.00  0.00     0.168 HD
BRANCH  18  20
HETATM   20  C9  UNK     1      19.499  -4.124  36.564  1.00  0.00     0.036 A 
HETATM   21  C13 UNK     1      20.778  -4.239  37.100  1.00  0.00     0.067 A 
HETATM   22  C16 UNK     1      21.150  -5.433  37.721  1.00  0.00     0.092 A 
HETATM   23  C14 UNK     1      20.282  -6.521  37.826  1.00  0.00     0.004 A 
HETATM   24  O1  UNK     1      22.457  -5.490  38.245  1.00  0.00    -0.275 OA
HETATM   25  C17 UNK     1      18.999  -6.385  37.281  1.00  0.00     0.017 A 
HETATM   26  C18 UNK     1      20.759  -7.738  38.497  1.00  0.00    -0.043 A 
HETATM   27  C15 UNK     1      18.611  -5.195  36.654  1.00  0.00     0.030 A 
HETATM   28  C20 UNK     1      22.007  -7.765  38.986  1.00  0.00     0.090 A 
HETATM   29  C21 UNK     1      19.850  -8.926  38.627  1.00  0.00     0.049 C 
HETATM   30  C22 UNK     1      22.934  -6.625  38.883  1.00  0.00     0.288 A 
HETATM   31  O3  UNK     1      24.069  -6.686  39.342  1.00  0.00    -0.260 OA
ENDBRANCH  18  20
ENDBRANCH   2  18
TORSDOF 5
ENDMDL
MODEL 5
REMARK VINA RESULT:      -8.8      6.135     12.639
REMARK  5 active torsions:
REMARK  status: ('A' for Active; 'I' for Inactive)
REMARK    1  A    between atoms: C5_12  and  N1_5 
REMARK    2  A    between atoms: C6_13  and  N2_6 
REMARK    3  A    between atoms: C6_13  and  N3_7 
REMARK    4  A    between atoms: C9_16  and  N3_7 
REMARK    5  A    between atoms: C12_19  and  C19_26 
ROOT
HETATM    1  S1  UNK     1      19.747   5.915  32.471  1.00  0.00    -0.041 SA
HETATM    2  C6  UNK     1      18.084   5.692  32.428  1.00  0.00     0.174 C 
ENDROOT
BRANCH   2   3
HETATM    3  N2  UNK     1      17.257   6.696  32.810  1.00  0.00    -0.355 N 
HETATM    4  C3  UNK     1      15.871   6.741  32.365  1.00  0.00     0.145 C 
HETATM    5  C1  UNK     1      15.329   8.168  32.322  1.00  0.00     0.143 C 
HETATM    6  N1  UNK     1      15.499   8.828  33.622  1.00  0.00    -0.378 N 
HETATM    7  C2  UNK     1      16.587   8.375  34.497  1.00  0.00     0.143 C 
HETATM    8  C4  UNK     1      17.722   7.767  33.678  1.00  0.00     0.145 C 
BRANCH   6   9
HETATM    9  C5  UNK     1      14.647   9.857  34.017  1.00  0.00     0.030 A 
HETATM   10  C7  UNK     1      13.776  10.487  33.095  1.00  0.00     0.030 A 
HETATM   11  C10 UNK     1      12.924  11.518  33.490  1.00  0.00     0.017 A 
HETATM   12  C12 UNK     1      12.916  11.947  34.817  1.00  0.00     0.009 A 
HETATM   13  C11 UNK     1      13.762  11.346  35.749  1.00  0.00     0.017 A 
HETATM   14  C8  UNK     1      14.615  10.316  35.355  1.00  0.00     0.030 A 
BRANCH  12  15
HETATM   15  C19 UNK     1      12.026  13.022  35.229  1.00  0.00     0.155 C 
HETATM   16  O2  UNK     1      10.981  12.804  35.861  1.00  0.00    -0.293 OA
HETATM   17  C23 UNK     1      12.361  14.463  34.887  1.00  0.00     0.096 C 
ENDBRANCH  12  15
ENDBRANCH   6   9
ENDBRANCH   2   3
BRANCH   2  18
HETATM   18  N3  UNK     1      17.542   4.511  31.949  1.00  0.00    -0.333 N 
HETATM   19  H11 UNK     1      16.605   4.608  31.565  1.00  0.00     0.168 HD
BRANCH  18  20
HETATM   20  C9  UNK     1      18.052   3.214  31.881  1.00  0.00     0.036 A 
HETATM   21  C13 UNK     1      18.592   2.739  30.690  1.00  0.00     0.067 A 
HETATM   22  C16 UNK     1      19.097   1.438  30.644  1.00  0.00     0.092 A 
HETATM   23  C14 UNK     1      19.079   0.591  31.754  1.00  0.00     0.004 A 
HETATM   24  O1  UNK     1      19.632   1.013  29.411  1.00  0.00    -0.275 OA
HETATM   25  C17 UNK     1      18.531   1.090  32.943  1.00  0.00     0.017 A 
HETATM   26  C18 UNK     1      19.633  -0.763  31.614  1.00  0.00    -0.043 A 
HETATM   27  C15 UNK     1      18.021   2.391  33.005  1.00  0.00     0.030 A 
HETATM   28  C20 UNK     1      20.135  -1.140  30.430  1.00  0.00     0.090 A 
HETATM   29  C21 UNK     1      19.629  -1.697  32.789  1.00  0.00     0.049 C 
HETATM   30  C22 UNK     1      20.160  -0.259  29.250  1.00  0.00     0.288 A 
HETATM   31  O3  UNK     1      20.628  -0.640  28.183  1.00  0.00    -0.260 OA
ENDBRANCH  18  20
ENDBRANCH   2  18
TORSDOF 5
ENDMDL
MODEL 6
REMARK VINA RESULT:      -8.6      1.924      2.878
REMARK  5 active torsions:
REMARK  status: ('A' for Active; 'I' for Inactive)
REMARK    1  A    between atoms: C5_12  and  N1_5 
REMARK    2  A    between atoms: C6_13  and  N2_6 
REMARK    3  A    between atoms: C6_13  and  N3_7 
REMARK    4  A    between atoms: C9_16  and  N3_7 
REMARK    5  A    between atoms: C12_19  and  C19_26 
ROOT
HETATM    1  S1  UNK     1      17.773   1.668  36.735  1.00  0.00    -0.041 SA
HETATM    2  C6  UNK     1      18.122   0.622  35.471  1.00  0.00     0.174 C 
ENDROOT
BRANCH   2   3
HETATM    3  N2  UNK     1      18.612  -0.615  35.732  1.00  0.00    -0.355 N 
HETATM    4  C3  UNK     1      17.791  -1.630  36.378  1.00  0.00     0.145 C 
HETATM    5  C1  UNK     1      18.633  -2.641  37.152  1.00  0.00     0.143 C 
HETATM    6  N1  UNK     1      19.651  -3.244  36.284  1.00  0.00    -0.378 N 
HETATM    7  C2  UNK     1      20.126  -2.475  35.128  1.00  0.00     0.143 C 
HETATM    8  C4  UNK     1      19.976  -0.976  35.376  1.00  0.00     0.145 C 
BRANCH   6   9
HETATM    9  C5  UNK     1      20.151  -4.517  36.549  1.00  0.00     0.030 A 
HETATM   10  C7  UNK     1      20.992  -4.761  37.661  1.00  0.00     0.030 A 
HETATM   11  C10 UNK     1      21.493  -6.035  37.926  1.00  0.00     0.017 A 
HETATM   12  C12 UNK     1      21.169  -7.101  37.088  1.00  0.00     0.009 A 
HETATM   13  C11 UNK     1      20.342  -6.893  35.984  1.00  0.00     0.017 A 
HETATM   14  C8  UNK     1      19.841  -5.619  35.717  1.00  0.00     0.030 A 
BRANCH  12  15
HETATM   15  C19 UNK     1      21.691  -8.430  37.365  1.00  0.00     0.155 C 
HETATM   16  O2  UNK     1      21.730  -8.896  38.514  1.00  0.00    -0.293 OA
HETATM   17  C23 UNK     1      22.214  -9.296  36.232  1.00  0.00     0.096 C 
ENDBRANCH  12  15
ENDBRANCH   6   9
ENDBRANCH   2   3
BRANCH   2  18
HETATM   18  N3  UNK     1      17.860   0.985  34.160  1.00  0.00    -0.333 N 
HETATM   19  H11 UNK     1      17.407   0.260  33.609  1.00  0.00     0.168 HD
BRANCH  18  20
HETATM   20  C9  UNK     1      18.085   2.171  33.461  1.00  0.00     0.036 A 
HETATM   21  C13 UNK     1      18.100   3.387  34.137  1.00  0.00     0.067 A 
HETATM   22  C16 UNK     1      18.328   4.562  33.417  1.00  0.00     0.092 A 
HETATM   23  C14 UNK     1      18.543   4.562  32.038  1.00  0.00     0.004 A 
HETATM   24  O1  UNK     1      18.333   5.763  34.156  1.00  0.00    -0.275 OA
HETATM   25  C17 UNK     1      18.524   3.327  31.377  1.00  0.00     0.017 A 
HETATM   26  C18 UNK     1      18.775   5.846  31.363  1.00  0.00    -0.043 A 
HETATM   27  C15 UNK     1      18.296   2.141  32.084  1.00  0.00     0.030 A 
HETATM   28  C20 UNK     1      18.774   6.972  32.090  1.00  0.00     0.090 A 
HETATM   29  C21 UNK     1      19.010   5.880  29.880  1.00  0.00     0.049 C 
HETATM   30  C22 UNK     1      18.549   6.988  33.545  1.00  0.00     0.288 A 
HETATM   31  O3  UNK     1      18.555   8.039  34.178  1.00  0.00    -0.260 OA
ENDBRANCH  18  20
ENDBRANCH   2  18
TORSDOF 5
ENDMDL
MODEL 7
REMARK VINA RESULT:      -8.6     12.287     15.442
REMARK  5 active torsions:
REMARK  status: ('A' for Active; 'I' for Inactive)
REMARK    1  A    between atoms: C5_12  and  N1_5 
REMARK    2  A    between atoms: C6_13  and  N2_6 
REMARK    3  A    between atoms: C6_13  and  N3_7 
REMARK    4  A    between atoms: C9_16  and  N3_7 
REMARK    5  A    between atoms: C12_19  and  C19_26 
ROOT
HETATM    1  S1  UNK     1      35.294  -5.513  36.453  1.00  0.00    -0.041 SA
HETATM    2  C6  UNK     1      33.713  -6.076  36.450  1.00  0.00     0.174 C 
ENDROOT
BRANCH   2   3
HETATM    3  N2  UNK     1      33.178  -6.586  35.313  1.00  0.00    -0.355 N 
HETATM    4  C3  UNK     1      33.509  -7.929  34.860  1.00  0.00     0.145 C 
HETATM    5  C1  UNK     1      33.378  -8.072  33.346  1.00  0.00     0.143 C 
HETATM    6  N1  UNK     1      32.039  -7.669  32.899  1.00  0.00    -0.378 N 
HETATM    7  C2  UNK     1      31.296  -6.700  33.713  1.00  0.00     0.143 C 
HETATM    8  C4  UNK     1      32.252  -5.810  34.503  1.00  0.00     0.145 C 
BRANCH   6   9
HETATM    9  C5  UNK     1      31.487  -8.195  31.734  1.00  0.00     0.030 A 
HETATM   10  C7  UNK     1      30.896  -7.359  30.756  1.00  0.00     0.030 A 
HETATM   11  C10 UNK     1      30.343  -7.886  29.589  1.00  0.00     0.017 A 
HETATM   12  C12 UNK     1      30.366  -9.262  29.366  1.00  0.00     0.009 A 
HETATM   13  C11 UNK     1      30.942 -10.112  30.310  1.00  0.00     0.017 A 
HETATM   14  C8  UNK     1      31.494  -9.587  31.477  1.00  0.00     0.030 A 
BRANCH  12  15
HETATM   15  C19 UNK     1      29.790  -9.811  28.148  1.00  0.00     0.155 C 
HETATM   16  O2  UNK     1      30.457  -9.960  27.113  1.00  0.00    -0.293 OA
HETATM   17  C23 UNK     1      28.328 -10.223  28.114  1.00  0.00     0.096 C 
ENDBRANCH  12  15
ENDBRANCH   6   9
ENDBRANCH   2   3
BRANCH   2  18
HETATM   18  N3  UNK     1      32.963  -6.082  37.615  1.00  0.00    -0.333 N 
HETATM   19  H11 UNK     1      33.408  -5.611  38.399  1.00  0.00     0.168 HD
BRANCH  18  20
HETATM   20  C9  UNK     1      31.701  -6.600  37.906  1.00  0.00     0.036 A 
HETATM   21  C13 UNK     1      30.604  -5.751  38.003  1.00  0.00     0.067 A 
HETATM   22  C16 UNK     1      29.350  -6.291  38.296  1.00  0.00     0.092 A 
HETATM   23  C14 UNK     1      29.155  -7.659  38.495  1.00  0.00     0.004 A 
HETATM   24  O1  UNK     1      28.276  -5.382  38.380  1.00  0.00    -0.275 OA
HETATM   25  C17 UNK     1      30.273  -8.497  38.392  1.00  0.00     0.017 A 
HETATM   26  C18 UNK     1      27.800  -8.140  38.798  1.00  0.00    -0.043 A 
HETATM   27  C15 UNK     1      31.537  -7.971  38.101  1.00  0.00     0.030 A 
HETATM   28  C20 UNK     1      26.798  -7.252  38.873  1.00  0.00     0.090 A 
HETATM   29  C21 UNK     1      27.558  -9.604  39.018  1.00  0.00     0.049 C 
HETATM   30  C22 UNK     1      26.987  -5.807  38.665  1.00  0.00     0.288 A 
HETATM   31  O3  UNK     1      26.046  -5.025  38.741  1.00  0.00    -0.260 OA
ENDBRANCH  18  20
ENDBRANCH   2  18
TORSDOF 5
ENDMDL
MODEL 8
REMARK VINA RESULT:      -8.5      3.926     10.776
REMARK  5 active torsions:
REMARK  status: ('A' for Active; 'I' for Inactive)
REMARK    1  A    between atoms: C5_12  and  N1_5 
REMARK    2  A    between atoms: C6_13  and  N2_6 
REMARK    3  A    between atoms: C6_13  and  N3_7 
REMARK    4  A    between atoms: C9_16  and  N3_7 
REMARK    5  A    between atoms: C12_19  and  C19_26 
ROOT
HETATM    1  S1  UNK     1      20.038   0.281  29.226  1.00  0.00    -0.041 SA
HETATM    2  C6  UNK     1      19.161   0.527  30.636  1.00  0.00     0.174 C 
ENDROOT
BRANCH   2   3
HETATM    3  N2  UNK     1      18.906   1.788  31.063  1.00  0.00    -0.355 N 
HETATM    4  C3  UNK     1      18.873   2.111  32.482  1.00  0.00     0.145 C 
HETATM    5  C1  UNK     1      17.971   3.307  32.778  1.00  0.00     0.143 C 
HETATM    6  N1  UNK     1      18.366   4.468  31.970  1.00  0.00    -0.378 N 
HETATM    7  C2  UNK     1      19.041   4.229  30.690  1.00  0.00     0.143 C 
HETATM    8  C4  UNK     1      18.655   2.867  30.119  1.00  0.00     0.145 C 
BRANCH   6   9
HETATM    9  C5  UNK     1      18.107   5.764  32.410  1.00  0.00     0.030 A 
HETATM   10  C7  UNK     1      16.811   6.326  32.326  1.00  0.00     0.030 A 
HETATM   11  C10 UNK     1      16.552   7.624  32.766  1.00  0.00     0.017 A 
HETATM   12  C12 UNK     1      17.581   8.396  33.303  1.00  0.00     0.009 A 
HETATM   13  C11 UNK     1      18.870   7.871  33.401  1.00  0.00     0.017 A 
HETATM   14  C8  UNK     1      19.130   6.574  32.960  1.00  0.00     0.030 A 
BRANCH  12  15
HETATM   15  C19 UNK     1      17.311   9.750  33.763  1.00  0.00     0.155 C 
HETATM   16  O2  UNK     1      18.087  10.690  33.533  1.00  0.00    -0.293 OA
HETATM   17  C23 UNK     1      16.050  10.049  34.554  1.00  0.00     0.096 C 
ENDBRANCH  12  15
ENDBRANCH   6   9
ENDBRANCH   2   3
BRANCH   2  18
HETATM   18  N3  UNK     1      18.642  -0.546  31.340  1.00  0.00    -0.333 N 
HETATM   19  H11 UNK     1      17.933  -1.073  30.835  1.00  0.00     0.168 HD
BRANCH  18  20
HETATM   20  C9  UNK     1      18.925  -1.050  32.610  1.00  0.00     0.036 A 
HETATM   21  C13 UNK     1      18.217  -0.592  33.716  1.00  0.00     0.067 A 
HETATM   22  C16 UNK     1      18.517  -1.109  34.978  1.00  0.00     0.092 A 
HETATM   23  C14 UNK     1      19.506  -2.075  35.172  1.00  0.00     0.004 A 
HETATM   24  O1  UNK     1      17.766  -0.608  36.060  1.00  0.00    -0.275 OA
HETATM   25  C17 UNK     1      20.208  -2.523  34.045  1.00  0.00     0.017 A 
HETATM   26  C18 UNK     1      19.754  -2.563  36.536  1.00  0.00    -0.043 A 
HETATM   27  C15 UNK     1      19.919  -2.013  32.774  1.00  0.00     0.030 A 
HETATM   28  C20 UNK     1      19.025  -2.068  37.546  1.00  0.00     0.090 A 
HETATM   29  C21 UNK     1      20.811  -3.601  36.777  1.00  0.00     0.049 C 
HETATM   30  C22 UNK     1      17.978  -1.050  37.357  1.00  0.00     0.288 A 
HETATM   31  O3  UNK     1      17.331  -0.620  38.306  1.00  0.00    -0.260 OA
ENDBRANCH  18  20
ENDBRANCH   2  18
TORSDOF 5
ENDMDL
MODEL 9
REMARK VINA RESULT:      -8.5      4.493     11.499
REMARK  5 active torsions:
REMARK  status: ('A' for Active; 'I' for Inactive)
REMARK    1  A    between atoms: C5_12  and  N1_5 
REMARK    2  A    between atoms: C6_13  and  N2_6 
REMARK    3  A    between atoms: C6_13  and  N3_7 
REMARK    4  A    between atoms: C9_16  and  N3_7 
REMARK    5  A    between atoms: C12_19  and  C19_26 
ROOT
HETATM    1  S1  UNK     1      21.438  -8.847  37.750  1.00  0.00    -0.041 SA
HETATM    2  C6  UNK     1      21.938  -7.303  38.179  1.00  0.00     0.174 C 
ENDROOT
BRANCH   2   3
HETATM    3  N2  UNK     1      21.291  -6.220  37.681  1.00  0.00    -0.355 N 
HETATM    4  C3  UNK     1      20.092  -6.365  36.868  1.00  0.00     0.145 C 
HETATM    5  C1  UNK     1      19.909  -5.197  35.902  1.00  0.00     0.143 C 
HETATM    6  N1  UNK     1      19.918  -3.919  36.625  1.00  0.00    -0.378 N 
HETATM    7  C2  UNK     1      20.644  -3.843  37.898  1.00  0.00     0.143 C 
HETATM    8  C4  UNK     1      21.772  -4.871  37.940  1.00  0.00     0.145 C 
BRANCH   6   9
HETATM    9  C5  UNK     1      19.251  -2.807  36.116  1.00  0.00     0.030 A 
HETATM   10  C7  UNK     1      18.137  -2.246  36.784  1.00  0.00     0.030 A 
HETATM   11  C10 UNK     1      17.469  -1.133  36.274  1.00  0.00     0.017 A 
HETATM   12  C12 UNK     1      17.896  -0.549  35.083  1.00  0.00     0.009 A 
HETATM   13  C11 UNK     1      18.992  -1.077  34.400  1.00  0.00     0.017 A 
HETATM   14  C8  UNK     1      19.660  -2.191  34.909  1.00  0.00     0.030 A 
BRANCH  12  15
HETATM   15  C19 UNK     1      17.200   0.613  34.551  1.00  0.00     0.155 C 
HETATM   16  O2  UNK     1      15.976   0.613  34.351  1.00  0.00    -0.293 OA
HETATM   17  C23 UNK     1      17.971   1.878  34.220  1.00  0.00     0.096 C 
ENDBRANCH  12  15
ENDBRANCH   6   9
ENDBRANCH   2   3
BRANCH   2  18
HETATM   18  N3  UNK     1      22.968  -7.121  39.085  1.00  0.00    -0.333 N 
HETATM   19  H11 UNK     1      22.659  -6.886  40.026  1.00  0.00     0.168 HD
BRANCH  18  20
HETATM   20  C9  UNK     1      24.353  -7.217  38.951  1.00  0.00     0.036 A 
HETATM   21  C13 UNK     1      25.137  -6.068  38.959  1.00  0.00     0.067 A 
HETATM   22  C16 UNK     1      26.521  -6.188  38.823  1.00  0.00     0.092 A 
HETATM   23  C14 UNK     1      27.152  -7.425  38.678  1.00  0.00     0.004 A 
HETATM   24  O1  UNK     1      27.263  -4.989  38.839  1.00  0.00    -0.275 OA
HETATM   25  C17 UNK     1      26.345  -8.570  38.672  1.00  0.00     0.017 A 
HETATM   26  C18 UNK     1      28.615  -7.456  38.541  1.00  0.00    -0.043 A 
HETATM   27  C15 UNK     1      24.956  -8.466  38.807  1.00  0.00     0.030 A 
HETATM   28  C20 UNK     1      29.294  -6.301  38.559  1.00  0.00     0.090 A 
HETATM   29  C21 UNK     1      29.323  -8.770  38.384  1.00  0.00     0.049 C 
HETATM   30  C22 UNK     1      28.643  -4.989  38.712  1.00  0.00     0.288 A 
HETATM   31  O3  UNK     1      29.298  -3.952  38.724  1.00  0.00    -0.260 OA
ENDBRANCH  18  20
ENDBRANCH   2  18
TORSDOF 5
ENDMDL
MODEL 10
REMARK VINA RESULT:      -8.4      1.354      2.026
REMARK  5 active torsions:
REMARK  status: ('A' for Active; 'I' for Inactive)
REMARK    1  A    between atoms: C5_12  and  N1_5 
REMARK    2  A    between atoms: C6_13  and  N2_6 
REMARK    3  A    between atoms: C6_13  and  N3_7 
REMARK    4  A    between atoms: C9_16  and  N3_7 
REMARK    5  A    between atoms: C12_19  and  C19_26 
ROOT
HETATM    1  S1  UNK     1      15.998   0.514  35.827  1.00  0.00    -0.041 SA
HETATM    2  C6  UNK     1      17.399   0.043  35.032  1.00  0.00     0.174 C 
ENDROOT
BRANCH   2   3
HETATM    3  N2  UNK     1      18.080  -1.052  35.451  1.00  0.00    -0.355 N 
HETATM    4  C3  UNK     1      17.481  -2.004  36.375  1.00  0.00     0.145 C 
HETATM    5  C1  UNK     1      18.533  -2.735  37.207  1.00  0.00     0.143 C 
HETATM    6  N1  UNK     1      19.526  -3.378  36.339  1.00  0.00    -0.378 N 
HETATM    7  C2  UNK     1      19.765  -2.807  35.009  1.00  0.00     0.143 C 
HETATM    8  C4  UNK     1      19.436  -1.317  34.993  1.00  0.00     0.145 C 
BRANCH   6   9
HETATM    9  C5  UNK     1      20.224  -4.506  36.768  1.00  0.00     0.030 A 
HETATM   10  C7  UNK     1      20.041  -5.765  36.148  1.00  0.00     0.030 A 
HETATM   11  C10 UNK     1      20.738  -6.894  36.578  1.00  0.00     0.017 A 
HETATM   12  C12 UNK     1      21.639  -6.796  37.637  1.00  0.00     0.009 A 
HETATM   13  C11 UNK     1      21.843  -5.568  38.268  1.00  0.00     0.017 A 
HETATM   14  C8  UNK     1      21.145  -4.439  37.840  1.00  0.00     0.030 A 
BRANCH  12  15
HETATM   15  C19 UNK     1      22.368  -7.973  38.085  1.00  0.00     0.155 C 
HETATM   16  O2  UNK     1      22.052  -9.118  37.728  1.00  0.00    -0.293 OA
HETATM   17  C23 UNK     1      23.556  -7.824  39.019  1.00  0.00     0.096 C 
ENDBRANCH  12  15
ENDBRANCH   6   9
ENDBRANCH   2   3
BRANCH   2  18
HETATM   18  N3  UNK     1      17.838   0.728  33.911  1.00  0.00    -0.333 N 
HETATM   19  H11 UNK     1      17.956   0.144  33.085  1.00  0.00     0.168 HD
BRANCH  18  20
HETATM   20  C9  UNK     1      18.132   2.075  33.699  1.00  0.00     0.036 A 
HETATM   21  C13 UNK     1      18.181   2.584  32.406  1.00  0.00     0.067 A 
HETATM   22  C16 UNK     1      18.477   3.935  32.217  1.00  0.00     0.092 A 
HETATM   23  C14 UNK     1      18.727   4.800  33.284  1.00  0.00     0.004 A 
HETATM   24  O1  UNK     1      18.511   4.394  30.885  1.00  0.00    -0.275 OA
HETATM   25  C17 UNK     1      18.673   4.267  34.579  1.00  0.00     0.017 A 
HETATM   26  C18 UNK     1      19.030   6.208  32.992  1.00  0.00    -0.043 A 
HETATM   27  C15 UNK     1      18.378   2.915  34.784  1.00  0.00     0.030 A 
HETATM   28  C20 UNK     1      19.057   6.616  31.716  1.00  0.00     0.090 A 
HETATM   29  C21 UNK     1      19.304   7.163  34.118  1.00  0.00     0.049 C 
HETATM   30  C22 UNK     1      18.794   5.716  30.580  1.00  0.00     0.288 A 
HETATM   31  O3  UNK     1      18.827   6.125  29.424  1.00  0.00    -0.260 OA
ENDBRANCH  18  20
ENDBRANCH   2  18
TORSDOF 5
ENDMDL
