MODEL 1
REMARK VINA RESULT:      -8.8      0.000      0.000
REMARK  6 active torsions:
REMARK  status: ('A' for Active; 'I' for Inactive)
REMARK    1  A    between atoms: C8_13  and  N1_4 
REMARK    2  A    between atoms: C9_14  and  N1_4 
REMARK    3  A    between atoms: C11_16  and  N2_5 
REMARK    4  A    between atoms: C9_14  and  N2_5 
REMARK    5  A    between atoms: C4_9  and  C6_11 
REMARK    6  A    between atoms: C6_11  and  C8_13 
ROOT
HETATM    1  N2  UNK     1      18.873  -0.573  31.093  1.00  0.00    -0.333 N 
HETATM    2  H15 UNK     1      18.011  -0.931  30.692  1.00  0.00     0.168 HD
ENDROOT
BRANCH   1   3
HETATM    3  C11 UNK     1      19.043  -0.993  32.412  1.00  0.00     0.036 A 
HETATM    4  C13 UNK     1      18.310  -0.399  33.434  1.00  0.00     0.067 A 
HETATM    5  C12 UNK     1      18.495  -0.835  34.748  1.00  0.00     0.092 A 
HETATM    6  C10 UNK     1      19.394  -1.851  35.076  1.00  0.00     0.004 A 
HETATM    7  O1  UNK     1      17.724  -0.196  35.738  1.00  0.00    -0.275 OA
HETATM    8  C14 UNK     1      19.525  -2.247  36.485  1.00  0.00    -0.043 A 
HETATM    9  C15 UNK     1      20.123  -2.436  34.033  1.00  0.00     0.017 A 
HETATM   10  C17 UNK     1      18.778  -1.621  37.407  1.00  0.00     0.090 A 
HETATM   11  C18 UNK     1      20.482  -3.336  36.871  1.00  0.00     0.049 C 
HETATM   12  C19 UNK     1      17.825  -0.548  37.076  1.00  0.00     0.288 A 
HETATM   13  O2  UNK     1      17.160   0.001  37.946  1.00  0.00    -0.260 OA
HETATM   14  C16 UNK     1      19.948  -2.010  32.711  1.00  0.00     0.030 A 
ENDBRANCH   1   3
BRANCH   1  15
HETATM   15  C9  UNK     1      19.759  -0.036  30.143  1.00  0.00     0.172 C 
HETATM   16  S1  UNK     1      20.757  -0.871  29.081  1.00  0.00    -0.041 SA
BRANCH  15  17
HETATM   17  N1  UNK     1      19.774   1.350  30.059  1.00  0.00    -0.367 N 
HETATM   18  H14 UNK     1      20.641   1.810  30.319  1.00  0.00     0.161 HD
BRANCH  17  19
HETATM   19  C8  UNK     1      18.691   2.211  29.624  1.00  0.00     0.126 C 
BRANCH  19  20
HETATM   20  C6  UNK     1      17.934   2.836  30.791  1.00  0.00     0.053 C 
BRANCH  20  21
HETATM   21  C4  UNK     1      18.547   4.119  31.267  1.00  0.00    -0.082 C 
HETATM   22  C2  UNK     1      18.210   4.535  32.678  1.00  0.00     0.034 C 
HETATM   23  C1  UNK     1      18.584   5.986  32.995  1.00  0.00     0.005 C 
HETATM   24  C3  UNK     1      19.960   6.335  32.444  1.00  0.00     0.004 C 
HETATM   25  C5  UNK     1      20.015   6.127  30.929  1.00  0.00     0.027 C 
HETATM   26  C7  UNK     1      19.352   4.856  30.482  1.00  0.00    -0.024 C 
ENDBRANCH  20  21
ENDBRANCH  19  20
ENDBRANCH  17  19
ENDBRANCH  15  17
ENDBRANCH   1  15
TORSDOF 6
ENDMDL
MODEL 2
REMARK VINA RESULT:      -8.8      1.478      2.382
REMARK  6 active torsions:
REMARK  status: ('A' for Active; 'I' for Inactive)
REMARK    1  A    between atoms: C8_13  and  N1_4 
REMARK    2  A    between atoms: C9_14  and  N1_4 
REMARK    3  A    between atoms: C11_16  and  N2_5 
REMARK    4  A    between atoms: C9_14  and  N2_5 
REMARK    5  A    between atoms: C4_9  and  C6_11 
REMARK    6  A    between atoms: C6_11  and  C8_13 
ROOT
HETATM    1  N2  UNK     1      18.783  -0.583  31.290  1.00  0.00    -0.333 N 
HETATM    2  H15 UNK     1      18.060  -1.115  30.814  1.00  0.00     0.168 HD
ENDROOT
BRANCH   1   3
HETATM    3  C11 UNK     1      18.785  -0.828  32.663  1.00  0.00     0.036 A 
HETATM    4  C13 UNK     1      19.571  -1.848  33.190  1.00  0.00     0.067 A 
HETATM    5  C12 UNK     1      19.559  -2.075  34.567  1.00  0.00     0.092 A 
HETATM    6  C10 UNK     1      18.783  -1.313  35.442  1.00  0.00     0.004 A 
HETATM    7  O1  UNK     1      20.375  -3.122  35.040  1.00  0.00    -0.275 OA
HETATM    8  C14 UNK     1      18.831  -1.622  36.878  1.00  0.00    -0.043 A 
HETATM    9  C15 UNK     1      17.999  -0.290  34.892  1.00  0.00     0.017 A 
HETATM   10  C17 UNK     1      19.617  -2.623  37.299  1.00  0.00     0.090 A 
HETATM   11  C18 UNK     1      18.010  -0.820  37.844  1.00  0.00     0.049 C 
HETATM   12  C19 UNK     1      20.441  -3.436  36.389  1.00  0.00     0.288 A 
HETATM   13  O2  UNK     1      21.147  -4.345  36.812  1.00  0.00    -0.260 OA
HETATM   14  C16 UNK     1      18.000  -0.050  33.513  1.00  0.00     0.030 A 
ENDBRANCH   1   3
BRANCH   1  15
HETATM   15  C9  UNK     1      19.732  -0.015  30.423  1.00  0.00     0.172 C 
HETATM   16  S1  UNK     1      20.770  -0.812  29.370  1.00  0.00    -0.041 SA
BRANCH  15  17
HETATM   17  N1  UNK     1      19.781   1.373  30.421  1.00  0.00    -0.367 N 
HETATM   18  H14 UNK     1      20.574   1.798  30.892  1.00  0.00     0.161 HD
BRANCH  17  19
HETATM   19  C8  UNK     1      18.833   2.280  29.804  1.00  0.00     0.126 C 
BRANCH  19  20
HETATM   20  C6  UNK     1      17.889   2.920  30.817  1.00  0.00     0.053 C 
BRANCH  20  21
HETATM   21  C4  UNK     1      18.482   4.120  31.493  1.00  0.00    -0.082 C 
HETATM   22  C2  UNK     1      19.379   4.987  30.645  1.00  0.00     0.034 C 
HETATM   23  C1  UNK     1      20.205   5.991  31.453  1.00  0.00     0.005 C 
HETATM   24  C3  UNK     1      19.362   6.656  32.534  1.00  0.00     0.004 C 
HETATM   25  C5  UNK     1      18.770   5.617  33.487  1.00  0.00     0.027 C 
HETATM   26  C7  UNK     1      18.228   4.408  32.781  1.00  0.00    -0.024 C 
ENDBRANCH  20  21
ENDBRANCH  19  20
ENDBRANCH  17  19
ENDBRANCH  15  17
ENDBRANCH   1  15
TORSDOF 6
ENDMDL
MODEL 3
REMARK VINA RESULT:      -8.7      4.609      6.974
REMARK  6 active torsions:
REMARK  status: ('A' for Active; 'I' for Inactive)
REMARK    1  A    between atoms: C8_13  and  N1_4 
REMARK    2  A    between atoms: C9_14  and  N1_4 
REMARK    3  A    between atoms: C11_16  and  N2_5 
REMARK    4  A    between atoms: C9_14  and  N2_5 
REMARK    5  A    between atoms: C4_9  and  C6_11 
REMARK    6  A    between atoms: C6_11  and  C8_13 
ROOT
HETATM    1  N2  UNK     1      18.812  -3.742  36.358  1.00  0.00    -0.333 N 
HETATM    2  H15 UNK     1      17.972  -4.065  35.887  1.00  0.00     0.168 HD
ENDROOT
BRANCH   1   3
HETATM    3  C11 UNK     1      19.683  -4.795  36.642  1.00  0.00     0.036 A 
HETATM    4  C13 UNK     1      19.769  -5.882  35.777  1.00  0.00     0.067 A 
HETATM    5  C12 UNK     1      20.648  -6.923  36.080  1.00  0.00     0.092 A 
HETATM    6  C10 UNK     1      21.448  -6.917  37.223  1.00  0.00     0.004 A 
HETATM    7  O1  UNK     1      20.691  -7.996  35.167  1.00  0.00    -0.275 OA
HETATM    8  C14 UNK     1      22.345  -8.056  37.463  1.00  0.00    -0.043 A 
HETATM    9  C15 UNK     1      21.347  -5.813  38.080  1.00  0.00     0.017 A 
HETATM   10  C17 UNK     1      22.364  -9.062  36.577  1.00  0.00     0.090 A 
HETATM   11  C18 UNK     1      23.218  -8.078  38.682  1.00  0.00     0.049 C 
HETATM   12  C19 UNK     1      21.527  -9.084  35.366  1.00  0.00     0.288 A 
HETATM   13  O2  UNK     1      21.572 -10.023  34.579  1.00  0.00    -0.260 OA
HETATM   14  C16 UNK     1      20.470  -4.760  37.791  1.00  0.00     0.030 A 
ENDBRANCH   1   3
BRANCH   1  15
HETATM   15  C9  UNK     1      18.987  -2.348  36.314  1.00  0.00     0.172 C 
HETATM   16  S1  UNK     1      18.243  -1.187  37.273  1.00  0.00    -0.041 SA
BRANCH  15  17
HETATM   17  N1  UNK     1      19.916  -1.894  35.386  1.00  0.00    -0.367 N 
HETATM   18  H14 UNK     1      20.663  -1.308  35.745  1.00  0.00     0.161 HD
BRANCH  17  19
HETATM   19  C8  UNK     1      19.944  -2.181  33.965  1.00  0.00     0.126 C 
BRANCH  19  20
HETATM   20  C6  UNK     1      19.028  -1.262  33.163  1.00  0.00     0.053 C 
BRANCH  20  21
HETATM   21  C4  UNK     1      19.495  -1.053  31.754  1.00  0.00    -0.082 C 
HETATM   22  C2  UNK     1      19.395   0.355  31.222  1.00  0.00     0.034 C 
HETATM   23  C1  UNK     1      19.570   0.451  29.703  1.00  0.00     0.005 C 
HETATM   24  C3  UNK     1      20.719  -0.428  29.224  1.00  0.00     0.004 C 
HETATM   25  C5  UNK     1      20.489  -1.890  29.607  1.00  0.00     0.027 C 
HETATM   26  C7  UNK     1      19.978  -2.062  31.008  1.00  0.00    -0.024 C 
ENDBRANCH  20  21
ENDBRANCH  19  20
ENDBRANCH  17  19
ENDBRANCH  15  17
ENDBRANCH   1  15
TORSDOF 6
ENDMDL
MODEL 4
REMARK VINA RESULT:      -8.6      3.260      7.645
REMARK  6 active torsions:
REMARK  status: ('A' for Active; 'I' for Inactive)
REMARK    1  A    between atoms: C8_13  and  N1_4 
REMARK    2  A    between atoms: C9_14  and  N1_4 
REMARK    3  A    between atoms: C11_16  and  N2_5 
REMARK    4  A    between atoms: C9_14  and  N2_5 
REMARK    5  A    between atoms: C4_9  and  C6_11 
REMARK    6  A    between atoms: C6_11  and  C8_13 
ROOT
HETATM    1  N2  UNK     1      19.138   3.962  30.522  1.00  0.00    -0.333 N 
HETATM    2  H15 UNK     1      19.605   4.187  29.648  1.00  0.00     0.168 HD
ENDROOT
BRANCH   1   3
HETATM    3  C11 UNK     1      19.085   5.063  31.377  1.00  0.00     0.036 A 
HETATM    4  C13 UNK     1      17.856   5.582  31.773  1.00  0.00     0.067 A 
HETATM    5  C12 UNK     1      17.826   6.684  32.630  1.00  0.00     0.092 A 
HETATM    6  C10 UNK     1      18.989   7.289  33.108  1.00  0.00     0.004 A 
HETATM    7  O1  UNK     1      16.553   7.163  32.995  1.00  0.00    -0.275 OA
HETATM    8  C14 UNK     1      18.864   8.444  34.007  1.00  0.00    -0.043 A 
HETATM    9  C15 UNK     1      20.217   6.751  32.699  1.00  0.00     0.017 A 
HETATM   10  C17 UNK     1      17.639   8.879  34.337  1.00  0.00     0.090 A 
HETATM   11  C18 UNK     1      20.096   9.116  34.539  1.00  0.00     0.049 C 
HETATM   12  C19 UNK     1      16.403   8.251  33.841  1.00  0.00     0.288 A 
HETATM   13  O2  UNK     1      15.300   8.677  34.165  1.00  0.00    -0.260 OA
HETATM   14  C16 UNK     1      20.264   5.647  31.839  1.00  0.00     0.030 A 
ENDBRANCH   1   3
BRANCH   1  15
HETATM   15  C9  UNK     1      18.437   2.745  30.494  1.00  0.00     0.172 C 
HETATM   16  S1  UNK     1      18.296   1.669  29.211  1.00  0.00    -0.041 SA
BRANCH  15  17
HETATM   17  N1  UNK     1      17.822   2.384  31.686  1.00  0.00    -0.367 N 
HETATM   18  H14 UNK     1      16.850   2.658  31.794  1.00  0.00     0.161 HD
BRANCH  17  19
HETATM   19  C8  UNK     1      18.411   1.643  32.784  1.00  0.00     0.126 C 
BRANCH  19  20
HETATM   20  C6  UNK     1      18.254   2.355  34.123  1.00  0.00     0.053 C 
BRANCH  20  21
HETATM   21  C4  UNK     1      17.939   1.419  35.251  1.00  0.00    -0.082 C 
HETATM   22  C2  UNK     1      17.829  -0.042  34.893  1.00  0.00     0.034 C 
HETATM   23  C1  UNK     1      17.193  -0.897  35.993  1.00  0.00     0.005 C 
HETATM   24  C3  UNK     1      17.738  -0.524  37.366  1.00  0.00     0.004 C 
HETATM   25  C5  UNK     1      17.486   0.952  37.675  1.00  0.00     0.027 C 
HETATM   26  C7  UNK     1      17.766   1.857  36.511  1.00  0.00    -0.024 C 
ENDBRANCH  20  21
ENDBRANCH  19  20
ENDBRANCH  17  19
ENDBRANCH  15  17
ENDBRANCH   1  15
TORSDOF 6
ENDMDL
MODEL 5
REMARK VINA RESULT:      -8.5      4.651      6.919
REMARK  6 active torsions:
REMARK  status: ('A' for Active; 'I' for Inactive)
REMARK    1  A    between atoms: C8_13  and  N1_4 
REMARK    2  A    between atoms: C9_14  and  N1_4 
REMARK    3  A    between atoms: C11_16  and  N2_5 
REMARK    4  A    between atoms: C9_14  and  N2_5 
REMARK    5  A    between atoms: C4_9  and  C6_11 
REMARK    6  A    between atoms: C6_11  and  C8_13 
ROOT
HETATM    1  N2  UNK     1      19.052  -3.788  36.149  1.00  0.00    -0.333 N 
HETATM    2  H15 UNK     1      18.672  -4.142  35.276  1.00  0.00     0.168 HD
ENDROOT
BRANCH   1   3
HETATM    3  C11 UNK     1      19.670  -4.795  36.890  1.00  0.00     0.036 A 
HETATM    4  C13 UNK     1      19.072  -6.046  37.005  1.00  0.00     0.067 A 
HETATM    5  C12 UNK     1      19.709  -7.039  37.751  1.00  0.00     0.092 A 
HETATM    6  C10 UNK     1      20.930  -6.825  38.390  1.00  0.00     0.004 A 
HETATM    7  O1  UNK     1      19.053  -8.284  37.830  1.00  0.00    -0.275 OA
HETATM    8  C14 UNK     1      21.529  -7.928  39.154  1.00  0.00    -0.043 A 
HETATM    9  C15 UNK     1      21.517  -5.559  38.261  1.00  0.00     0.017 A 
HETATM   10  C17 UNK     1      20.884  -9.101  39.212  1.00  0.00     0.090 A 
HETATM   11  C18 UNK     1      22.843  -7.729  39.851  1.00  0.00     0.049 C 
HETATM   12  C19 UNK     1      19.594  -9.343  38.544  1.00  0.00     0.288 A 
HETATM   13  O2  UNK     1      19.033 -10.431  38.620  1.00  0.00    -0.260 OA
HETATM   14  C16 UNK     1      20.891  -4.551  37.517  1.00  0.00     0.030 A 
ENDBRANCH   1   3
BRANCH   1  15
HETATM   15  C9  UNK     1      19.113  -2.385  36.213  1.00  0.00     0.172 C 
HETATM   16  S1  UNK     1      18.280  -1.365  37.255  1.00  0.00    -0.041 SA
BRANCH  15  17
HETATM   17  N1  UNK     1      20.001  -1.787  35.326  1.00  0.00    -0.367 N 
HETATM   18  H14 UNK     1      20.627  -1.089  35.716  1.00  0.00     0.161 HD
BRANCH  17  19
HETATM   19  C8  UNK     1      20.142  -2.065  33.911  1.00  0.00     0.126 C 
BRANCH  19  20
HETATM   20  C6  UNK     1      19.070  -1.380  33.069  1.00  0.00     0.053 C 
BRANCH  20  21
HETATM   21  C4  UNK     1      19.519  -1.097  31.666  1.00  0.00    -0.082 C 
HETATM   22  C2  UNK     1      19.409   0.336  31.209  1.00  0.00     0.034 C 
HETATM   23  C1  UNK     1      19.563   0.510  29.695  1.00  0.00     0.005 C 
HETATM   24  C3  UNK     1      20.707  -0.339  29.156  1.00  0.00     0.004 C 
HETATM   25  C5  UNK     1      20.485  -1.820  29.466  1.00  0.00     0.027 C 
HETATM   26  C7  UNK     1      19.993  -2.065  30.863  1.00  0.00    -0.024 C 
ENDBRANCH  20  21
ENDBRANCH  19  20
ENDBRANCH  17  19
ENDBRANCH  15  17
ENDBRANCH   1  15
TORSDOF 6
ENDMDL
MODEL 6
REMARK VINA RESULT:      -8.3      3.786      9.383
REMARK  6 active torsions:
REMARK  status: ('A' for Active; 'I' for Inactive)
REMARK    1  A    between atoms: C8_13  and  N1_4 
REMARK    2  A    between atoms: C9_14  and  N1_4 
REMARK    3  A    between atoms: C11_16  and  N2_5 
REMARK    4  A    between atoms: C9_14  and  N2_5 
REMARK    5  A    between atoms: C4_9  and  C6_11 
REMARK    6  A    between atoms: C6_11  and  C8_13 
ROOT
HETATM    1  N2  UNK     1      19.844  -2.684  35.008  1.00  0.00    -0.333 N 
HETATM    2  H15 UNK     1      20.466  -3.486  35.031  1.00  0.00     0.168 HD
ENDROOT
BRANCH   1   3
HETATM    3  C11 UNK     1      19.864  -2.048  33.766  1.00  0.00     0.036 A 
HETATM    4  C13 UNK     1      19.121  -0.890  33.562  1.00  0.00     0.067 A 
HETATM    5  C12 UNK     1      19.157  -0.270  32.311  1.00  0.00     0.092 A 
HETATM    6  C10 UNK     1      19.914  -0.771  31.252  1.00  0.00     0.004 A 
HETATM    7  O1  UNK     1      18.384   0.899  32.166  1.00  0.00    -0.275 OA
HETATM    8  C14 UNK     1      19.893  -0.054  29.970  1.00  0.00    -0.043 A 
HETATM    9  C15 UNK     1      20.655  -1.938  31.478  1.00  0.00     0.017 A 
HETATM   10  C17 UNK     1      19.148   1.056  29.860  1.00  0.00     0.090 A 
HETATM   11  C18 UNK     1      20.697  -0.567  28.811  1.00  0.00     0.049 C 
HETATM   12  C19 UNK     1      18.344   1.597  30.969  1.00  0.00     0.288 A 
HETATM   13  O2  UNK     1      17.675   2.616  30.830  1.00  0.00    -0.260 OA
HETATM   14  C16 UNK     1      20.630  -2.572  32.726  1.00  0.00     0.030 A 
ENDBRANCH   1   3
BRANCH   1  15
HETATM   15  C9  UNK     1      18.947  -2.631  36.089  1.00  0.00     0.172 C 
HETATM   16  S1  UNK     1      18.078  -1.304  36.641  1.00  0.00    -0.041 SA
BRANCH  15  17
HETATM   17  N1  UNK     1      18.737  -3.837  36.747  1.00  0.00    -0.367 N 
HETATM   18  H14 UNK     1      17.901  -3.898  37.321  1.00  0.00     0.161 HD
BRANCH  17  19
HETATM   19  C8  UNK     1      19.570  -5.022  36.688  1.00  0.00     0.126 C 
BRANCH  19  20
HETATM   20  C6  UNK     1      20.731  -4.971  37.675  1.00  0.00     0.053 C 
BRANCH  20  21
HETATM   21  C4  UNK     1      20.926  -6.259  38.418  1.00  0.00    -0.082 C 
HETATM   22  C2  UNK     1      19.750  -7.203  38.433  1.00  0.00     0.034 C 
HETATM   23  C1  UNK     1      19.882  -8.332  39.460  1.00  0.00     0.005 C 
HETATM   24  C3  UNK     1      21.287  -8.921  39.454  1.00  0.00     0.004 C 
HETATM   25  C5  UNK     1      22.334  -7.848  39.756  1.00  0.00     0.027 C 
HETATM   26  C7  UNK     1      22.084  -6.556  39.033  1.00  0.00    -0.024 C 
ENDBRANCH  20  21
ENDBRANCH  19  20
ENDBRANCH  17  19
ENDBRANCH  15  17
ENDBRANCH   1  15
TORSDOF 6
ENDMDL
MODEL 7
REMARK VINA RESULT:      -8.3      4.995      9.208
REMARK  6 active torsions:
REMARK  status: ('A' for Active; 'I' for Inactive)
REMARK    1  A    between atoms: C8_13  and  N1_4 
REMARK    2  A    between atoms: C9_14  and  N1_4 
REMARK    3  A    between atoms: C11_16  and  N2_5 
REMARK    4  A    between atoms: C9_14  and  N2_5 
REMARK    5  A    between atoms: C4_9  and  C6_11 
REMARK    6  A    between atoms: C6_11  and  C8_13 
ROOT
HETATM    1  N2  UNK     1      18.528   5.794  32.985  1.00  0.00    -0.333 N 
HETATM    2  H15 UNK     1      19.256   5.515  33.635  1.00  0.00     0.168 HD
ENDROOT
BRANCH   1   3
HETATM    3  C11 UNK     1      17.854   6.935  33.420  1.00  0.00     0.036 A 
HETATM    4  C13 UNK     1      18.462   8.183  33.325  1.00  0.00     0.067 A 
HETATM    5  C12 UNK     1      17.769   9.313  33.765  1.00  0.00     0.092 A 
HETATM    6  C10 UNK     1      16.483   9.237  34.301  1.00  0.00     0.004 A 
HETATM    7  O1  UNK     1      18.437  10.548  33.644  1.00  0.00    -0.275 OA
HETATM    8  C14 UNK     1      15.829  10.478  34.740  1.00  0.00    -0.043 A 
HETATM    9  C15 UNK     1      15.889   7.972  34.388  1.00  0.00     0.017 A 
HETATM   10  C17 UNK     1      16.488  11.639  34.612  1.00  0.00     0.090 A 
HETATM   11  C18 UNK     1      14.446  10.430  35.320  1.00  0.00     0.049 C 
HETATM   12  C19 UNK     1      17.845  11.735  34.049  1.00  0.00     0.288 A 
HETATM   13  O2  UNK     1      18.416  12.815  33.948  1.00  0.00    -0.260 OA
HETATM   14  C16 UNK     1      16.570   6.829  33.950  1.00  0.00     0.030 A 
ENDBRANCH   1   3
BRANCH   1  15
HETATM   15  C9  UNK     1      18.610   5.156  31.735  1.00  0.00     0.172 C 
HETATM   16  S1  UNK     1      19.503   5.633  30.394  1.00  0.00    -0.041 SA
BRANCH  15  17
HETATM   17  N1  UNK     1      17.892   3.972  31.622  1.00  0.00    -0.367 N 
HETATM   18  H14 UNK     1      16.885   4.062  31.525  1.00  0.00     0.161 HD
BRANCH  17  19
HETATM   19  C8  UNK     1      18.426   2.624  31.610  1.00  0.00     0.126 C 
BRANCH  19  20
HETATM   20  C6  UNK     1      18.555   2.058  30.199  1.00  0.00     0.053 C 
BRANCH  20  21
HETATM   21  C4  UNK     1      19.302   0.759  30.155  1.00  0.00    -0.082 C 
HETATM   22  C2  UNK     1      19.303  -0.052  31.427  1.00  0.00     0.034 C 
HETATM   23  C1  UNK     1      20.333  -1.185  31.432  1.00  0.00     0.005 C 
HETATM   24  C3  UNK     1      20.347  -1.923  30.099  1.00  0.00     0.004 C 
HETATM   25  C5  UNK     1      20.661  -0.970  28.946  1.00  0.00     0.027 C 
HETATM   26  C7  UNK     1      19.933   0.339  29.045  1.00  0.00    -0.024 C 
ENDBRANCH  20  21
ENDBRANCH  19  20
ENDBRANCH  17  19
ENDBRANCH  15  17
ENDBRANCH   1  15
TORSDOF 6
ENDMDL
MODEL 8
REMARK VINA RESULT:      -8.3      4.724     10.153
REMARK  6 active torsions:
REMARK  status: ('A' for Active; 'I' for Inactive)
REMARK    1  A    between atoms: C8_13  and  N1_4 
REMARK    2  A    between atoms: C9_14  and  N1_4 
REMARK    3  A    between atoms: C11_16  and  N2_5 
REMARK    4  A    between atoms: C9_14  and  N2_5 
REMARK    5  A    between atoms: C4_9  and  C6_11 
REMARK    6  A    between atoms: C6_11  and  C8_13 
ROOT
HETATM    1  N2  UNK     1      20.310  -4.005  36.604  1.00  0.00    -0.333 N 
HETATM    2  H15 UNK     1      21.286  -3.897  36.345  1.00  0.00     0.168 HD
ENDROOT
BRANCH   1   3
HETATM    3  C11 UNK     1      19.613  -2.801  36.506  1.00  0.00     0.036 A 
HETATM    4  C13 UNK     1      19.605  -2.093  35.308  1.00  0.00     0.067 A 
HETATM    5  C12 UNK     1      18.900  -0.891  35.232  1.00  0.00     0.092 A 
HETATM    6  C10 UNK     1      18.199  -0.367  36.319  1.00  0.00     0.004 A 
HETATM    7  O1  UNK     1      18.930  -0.221  33.993  1.00  0.00    -0.275 OA
HETATM    8  C14 UNK     1      17.484   0.905  36.149  1.00  0.00    -0.043 A 
HETATM    9  C15 UNK     1      18.218  -1.095  37.516  1.00  0.00     0.017 A 
HETATM   10  C17 UNK     1      17.530   1.521  34.959  1.00  0.00     0.090 A 
HETATM   11  C18 UNK     1      16.719   1.493  37.298  1.00  0.00     0.049 C 
HETATM   12  C19 UNK     1      18.266   0.981  33.803  1.00  0.00     0.288 A 
HETATM   13  O2  UNK     1      18.284   1.573  32.729  1.00  0.00    -0.260 OA
HETATM   14  C16 UNK     1      18.920  -2.303  37.609  1.00  0.00     0.030 A 
ENDBRANCH   1   3
BRANCH   1  15
HETATM   15  C9  UNK     1      19.890  -5.344  36.685  1.00  0.00     0.172 C 
HETATM   16  S1  UNK     1      19.858  -6.488  35.456  1.00  0.00    -0.041 SA
BRANCH  15  17
HETATM   17  N1  UNK     1      19.491  -5.767  37.947  1.00  0.00    -0.367 N 
HETATM   18  H14 UNK     1      18.493  -5.757  38.132  1.00  0.00     0.161 HD
BRANCH  17  19
HETATM   19  C8  UNK     1      20.344  -6.239  39.021  1.00  0.00     0.126 C 
BRANCH  19  20
HETATM   20  C6  UNK     1      19.930  -7.613  39.536  1.00  0.00     0.053 C 
BRANCH  20  21
HETATM   21  C4  UNK     1      20.232  -8.718  38.569  1.00  0.00    -0.082 C 
HETATM   22  C2  UNK     1      21.635  -8.753  38.015  1.00  0.00     0.034 C 
HETATM   23  C1  UNK     1      21.796  -9.679  36.807  1.00  0.00     0.005 C 
HETATM   24  C3  UNK     1      21.067 -10.999  37.023  1.00  0.00     0.004 C 
HETATM   25  C5  UNK     1      19.577 -10.769  37.279  1.00  0.00     0.027 C 
HETATM   26  C7  UNK     1      19.307  -9.627  38.215  1.00  0.00    -0.024 C 
ENDBRANCH  20  21
ENDBRANCH  19  20
ENDBRANCH  17  19
ENDBRANCH  15  17
ENDBRANCH   1  15
TORSDOF 6
ENDMDL
MODEL 9
REMARK VINA RESULT:      -8.3      4.310      6.611
REMARK  6 active torsions:
REMARK  status: ('A' for Active; 'I' for Inactive)
REMARK    1  A    between atoms: C8_13  and  N1_4 
REMARK    2  A    between atoms: C9_14  and  N1_4 
REMARK    3  A    between atoms: C11_16  and  N2_5 
REMARK    4  A    between atoms: C9_14  and  N2_5 
REMARK    5  A    between atoms: C4_9  and  C6_11 
REMARK    6  A    between atoms: C6_11  and  C8_13 
ROOT
HETATM    1  N2  UNK     1      18.710  -3.606  36.239  1.00  0.00    -0.333 N 
HETATM    2  H15 UNK     1      18.218  -3.992  35.439  1.00  0.00     0.168 HD
ENDROOT
BRANCH   1   3
HETATM    3  C11 UNK     1      19.449  -4.579  36.912  1.00  0.00     0.036 A 
HETATM    4  C13 UNK     1      20.766  -4.326  37.282  1.00  0.00     0.067 A 
HETATM    5  C12 UNK     1      21.486  -5.314  37.955  1.00  0.00     0.092 A 
HETATM    6  C10 UNK     1      20.933  -6.554  38.274  1.00  0.00     0.004 A 
HETATM    7  O1  UNK     1      22.815  -4.998  38.302  1.00  0.00    -0.275 OA
HETATM    8  C14 UNK     1      21.764  -7.535  38.985  1.00  0.00    -0.043 A 
HETATM    9  C15 UNK     1      19.604  -6.790  37.895  1.00  0.00     0.017 A 
HETATM   10  C17 UNK     1      23.025  -7.207  39.303  1.00  0.00     0.090 A 
HETATM   11  C18 UNK     1      21.197  -8.877  39.344  1.00  0.00     0.049 C 
HETATM   12  C19 UNK     1      23.624  -5.903  38.973  1.00  0.00     0.288 A 
HETATM   13  O2  UNK     1      24.781  -5.640  39.280  1.00  0.00    -0.260 OA
HETATM   14  C16 UNK     1      18.868  -5.809  37.219  1.00  0.00     0.030 A 
ENDBRANCH   1   3
BRANCH   1  15
HETATM   15  C9  UNK     1      18.750  -2.201  36.255  1.00  0.00     0.172 C 
HETATM   16  S1  UNK     1      18.057  -1.165  37.381  1.00  0.00    -0.041 SA
BRANCH  15  17
HETATM   17  N1  UNK     1      19.485  -1.615  35.232  1.00  0.00    -0.367 N 
HETATM   18  H14 UNK     1      20.476  -1.478  35.409  1.00  0.00     0.161 HD
BRANCH  17  19
HETATM   19  C8  UNK     1      18.995  -1.195  33.934  1.00  0.00     0.126 C 
BRANCH  19  20
HETATM   20  C6  UNK     1      19.703  -1.903  32.783  1.00  0.00     0.053 C 
BRANCH  20  21
HETATM   21  C4  UNK     1      19.752  -1.080  31.530  1.00  0.00    -0.082 C 
HETATM   22  C2  UNK     1      20.338  -1.753  30.314  1.00  0.00     0.034 C 
HETATM   23  C1  UNK     1      20.664  -0.784  29.174  1.00  0.00     0.005 C 
HETATM   24  C3  UNK     1      19.544   0.229  28.975  1.00  0.00     0.004 C 
HETATM   25  C5  UNK     1      19.295   1.031  30.253  1.00  0.00     0.027 C 
HETATM   26  C7  UNK     1      19.298   0.185  31.492  1.00  0.00    -0.024 C 
ENDBRANCH  20  21
ENDBRANCH  19  20
ENDBRANCH  17  19
ENDBRANCH  15  17
ENDBRANCH   1  15
TORSDOF 6
ENDMDL
MODEL 10
REMARK VINA RESULT:      -8.2      4.104      8.314
REMARK  6 active torsions:
REMARK  status: ('A' for Active; 'I' for Inactive)
REMARK    1  A    between atoms: C8_13  and  N1_4 
REMARK    2  A    between atoms: C9_14  and  N1_4 
REMARK    3  A    between atoms: C11_16  and  N2_5 
REMARK    4  A    between atoms: C9_14  and  N2_5 
REMARK    5  A    between atoms: C4_9  and  C6_11 
REMARK    6  A    between atoms: C6_11  and  C8_13 
ROOT
HETATM    1  N2  UNK     1      18.406   4.581  31.319  1.00  0.00    -0.333 N 
HETATM    2  H15 UNK     1      18.251   4.751  30.330  1.00  0.00     0.168 HD
ENDROOT
BRANCH   1   3
HETATM    3  C11 UNK     1      18.654   5.765  32.014  1.00  0.00     0.036 A 
HETATM    4  C13 UNK     1      17.647   6.714  32.160  1.00  0.00     0.067 A 
HETATM    5  C12 UNK     1      17.917   7.891  32.860  1.00  0.00     0.092 A 
HETATM    6  C10 UNK     1      19.167   8.155  33.422  1.00  0.00     0.004 A 
HETATM    7  O1  UNK     1      16.858   8.813  32.973  1.00  0.00    -0.275 OA
HETATM    8  C14 UNK     1      19.363   9.420  34.143  1.00  0.00    -0.043 A 
HETATM    9  C15 UNK     1      20.167   7.186  33.265  1.00  0.00     0.017 A 
HETATM   10  C17 UNK     1      18.337  10.279  34.235  1.00  0.00     0.090 A 
HETATM   11  C18 UNK     1      20.695   9.732  34.760  1.00  0.00     0.049 C 
HETATM   12  C19 UNK     1      17.013  10.015  33.647  1.00  0.00     0.288 A 
HETATM   13  O2  UNK     1      16.098  10.825  33.753  1.00  0.00    -0.260 OA
HETATM   14  C16 UNK     1      19.912   6.000  32.566  1.00  0.00     0.030 A 
ENDBRANCH   1   3
BRANCH   1  15
HETATM   15  C9  UNK     1      18.034   3.292  31.738  1.00  0.00     0.172 C 
HETATM   16  S1  UNK     1      18.174   2.630  33.275  1.00  0.00    -0.041 SA
BRANCH  15  17
HETATM   17  N1  UNK     1      17.448   2.495  30.762  1.00  0.00    -0.367 N 
HETATM   18  H14 UNK     1      16.468   2.267  30.894  1.00  0.00     0.161 HD
BRANCH  17  19
HETATM   19  C8  UNK     1      18.080   1.969  29.568  1.00  0.00     0.126 C 
BRANCH  19  20
HETATM   20  C6  UNK     1      19.555   1.643  29.780  1.00  0.00     0.053 C 
BRANCH  20  21
HETATM   21  C4  UNK     1      19.785   0.227  30.218  1.00  0.00    -0.082 C 
HETATM   22  C2  UNK     1      20.526  -0.658  29.248  1.00  0.00     0.034 C 
HETATM   23  C1  UNK     1      20.446  -2.148  29.591  1.00  0.00     0.005 C 
HETATM   24  C3  UNK     1      20.643  -2.381  31.084  1.00  0.00     0.004 C 
HETATM   25  C5  UNK     1      19.595  -1.624  31.902  1.00  0.00     0.027 C 
HETATM   26  C7  UNK     1      19.355  -0.227  31.408  1.00  0.00    -0.024 C 
ENDBRANCH  20  21
ENDBRANCH  19  20
ENDBRANCH  17  19
ENDBRANCH  15  17
ENDBRANCH   1  15
TORSDOF 6
ENDMDL
