MODEL 1
REMARK VINA RESULT:      -8.0      0.000      0.000
REMARK  4 active torsions:
REMARK  status: ('A' for Active; 'I' for Inactive)
REMARK    1  A    between atoms: C10_16  and  O2_3 
REMARK    2  A    between atoms: C5_11  and  O2_3 
REMARK    3  A    between atoms: C16_22  and  O3_4 
REMARK    4  A    between atoms: C7_13  and  O3_4 
ROOT
HETATM    1  N1  UNK     1      19.674  12.935   8.641  1.00  0.00    -0.195 NA
HETATM    2  C16 UNK     1      18.035  11.439  10.041  1.00  0.00     0.299 C 
HETATM    3  C17 UNK     1      18.950  12.272   9.260  1.00  0.00     0.085 C 
ENDROOT
BRANCH   2   4
HETATM    4  O3  UNK     1      18.257  10.057   9.760  1.00  0.00    -0.337 OA
BRANCH   4   5
HETATM    5  C7  UNK     1      17.170   9.238   9.787  1.00  0.00     0.072 A 
HETATM    6  C6  UNK     1      15.911   9.739   9.455  1.00  0.00     0.075 A 
HETATM    7  C2  UNK     1      14.800   8.897   9.482  1.00  0.00     0.092 A 
HETATM    8  C1  UNK     1      14.949   7.555   9.843  1.00  0.00     0.051 A 
HETATM    9  O1  UNK     1      13.587   9.446   9.146  1.00  0.00    -0.319 OA
HETATM   10  C3  UNK     1      13.760   6.683   9.866  1.00  0.00     0.220 A 
HETATM   11  C4  UNK     1      16.209   7.051  10.177  1.00  0.00     0.021 A 
HETATM   12  O4  UNK     1      13.827   5.501  10.174  1.00  0.00    -0.284 OA
HETATM   13  C5  UNK     1      12.479   7.325   9.496  1.00  0.00     0.149 A 
HETATM   14  C9  UNK     1      12.488   8.623   9.173  1.00  0.00     0.184 A 
HETATM   15  C8  UNK     1      17.318   7.897  10.147  1.00  0.00     0.038 A 
BRANCH  13  16
HETATM   16  O2  UNK     1      11.324   6.581   9.493  1.00  0.00    -0.303 OA
BRANCH  16  17
HETATM   17  C10 UNK     1      10.657   6.472   8.303  1.00  0.00     0.098 A 
HETATM   18  C12 UNK     1      11.377   6.110   7.167  1.00  0.00     0.039 A 
HETATM   19  C14 UNK     1      10.723   5.993   5.940  1.00  0.00     0.003 A 
HETATM   20  C15 UNK     1       9.352   6.238   5.853  1.00  0.00     0.002 A 
HETATM   21  C13 UNK     1       8.636   6.602   6.994  1.00  0.00     0.026 A 
HETATM   22  C11 UNK     1       9.289   6.718   8.221  1.00  0.00     0.067 A 
HETATM   23 Cl1  UNK     1       8.378   7.168   9.615  1.00  0.00    -0.081 Cl
ENDBRANCH  16  17
ENDBRANCH  13  16
ENDBRANCH   4   5
ENDBRANCH   2   4
TORSDOF 4
ENDMDL
MODEL 2
REMARK VINA RESULT:      -7.8     22.773     24.698
REMARK  4 active torsions:
REMARK  status: ('A' for Active; 'I' for Inactive)
REMARK    1  A    between atoms: C10_16  and  O2_3 
REMARK    2  A    between atoms: C5_11  and  O2_3 
REMARK    3  A    between atoms: C16_22  and  O3_4 
REMARK    4  A    between atoms: C7_13  and  O3_4 
ROOT
HETATM    1  N1  UNK     1      20.491  -0.561  28.579  1.00  0.00    -0.195 NA
HETATM    2  C16 UNK     1      18.270   0.835  28.553  1.00  0.00     0.299 C 
HETATM    3  C17 UNK     1      19.509   0.058  28.567  1.00  0.00     0.085 C 
ENDROOT
BRANCH   2   4
HETATM    4  O3  UNK     1      18.558   2.231  28.485  1.00  0.00    -0.337 OA
BRANCH   4   5
HETATM    5  C7  UNK     1      18.542   2.924  29.656  1.00  0.00     0.072 A 
HETATM    6  C6  UNK     1      19.011   4.238  29.695  1.00  0.00     0.075 A 
HETATM    7  C2  UNK     1      18.991   4.946  30.896  1.00  0.00     0.092 A 
HETATM    8  C1  UNK     1      18.504   4.339  32.056  1.00  0.00     0.051 A 
HETATM    9  O1  UNK     1      19.466   6.234  30.873  1.00  0.00    -0.319 OA
HETATM   10  C3  UNK     1      18.492   5.107  33.316  1.00  0.00     0.220 A 
HETATM   11  C4  UNK     1      18.033   3.024  32.020  1.00  0.00     0.021 A 
HETATM   12  O4  UNK     1      18.079   4.631  34.364  1.00  0.00    -0.284 OA
HETATM   13  C5  UNK     1      19.016   6.489  33.236  1.00  0.00     0.149 A 
HETATM   14  C9  UNK     1      19.452   6.937  32.054  1.00  0.00     0.184 A 
HETATM   15  C8  UNK     1      18.054   2.319  30.816  1.00  0.00     0.038 A 
BRANCH  13  16
HETATM   16  O2  UNK     1      19.041   7.271  34.366  1.00  0.00    -0.303 OA
BRANCH  16  17
HETATM   17  C10 UNK     1      18.446   8.500  34.285  1.00  0.00     0.098 A 
HETATM   18  C12 UNK     1      17.058   8.563  34.191  1.00  0.00     0.039 A 
HETATM   19  C14 UNK     1      16.424   9.803  34.105  1.00  0.00     0.003 A 
HETATM   20  C15 UNK     1      17.180  10.975  34.115  1.00  0.00     0.002 A 
HETATM   21  C13 UNK     1      18.571  10.907  34.209  1.00  0.00     0.026 A 
HETATM   22  C11 UNK     1      19.205   9.667  34.295  1.00  0.00     0.067 A 
HETATM   23 Cl1  UNK     1      20.924   9.613  34.413  1.00  0.00    -0.081 Cl
ENDBRANCH  16  17
ENDBRANCH  13  16
ENDBRANCH   4   5
ENDBRANCH   2   4
TORSDOF 4
ENDMDL
MODEL 3
REMARK VINA RESULT:      -7.6     23.080     24.777
REMARK  4 active torsions:
REMARK  status: ('A' for Active; 'I' for Inactive)
REMARK    1  A    between atoms: C10_16  and  O2_3 
REMARK    2  A    between atoms: C5_11  and  O2_3 
REMARK    3  A    between atoms: C16_22  and  O3_4 
REMARK    4  A    between atoms: C7_13  and  O3_4 
ROOT
HETATM    1  N1  UNK     1      21.298  -2.504  33.272  1.00  0.00    -0.195 NA
HETATM    2  C16 UNK     1      19.964  -1.469  31.264  1.00  0.00     0.299 C 
HETATM    3  C17 UNK     1      20.707  -2.045  32.385  1.00  0.00     0.085 C 
ENDROOT
BRANCH   2   4
HETATM    4  O3  UNK     1      18.809  -0.776  31.736  1.00  0.00    -0.337 OA
BRANCH   4   5
HETATM    5  C7  UNK     1      18.764   0.568  31.523  1.00  0.00     0.072 A 
HETATM    6  C6  UNK     1      18.462   1.431  32.577  1.00  0.00     0.075 A 
HETATM    7  C2  UNK     1      18.418   2.807  32.356  1.00  0.00     0.092 A 
HETATM    8  C1  UNK     1      18.674   3.318  31.081  1.00  0.00     0.051 A 
HETATM    9  O1  UNK     1      18.115   3.606  33.431  1.00  0.00    -0.319 OA
HETATM   10  C3  UNK     1      18.622   4.777  30.869  1.00  0.00     0.220 A 
HETATM   11  C4  UNK     1      18.976   2.456  30.024  1.00  0.00     0.021 A 
HETATM   12  O4  UNK     1      18.835   5.284  29.777  1.00  0.00    -0.284 OA
HETATM   13  C5  UNK     1      18.290   5.591  32.060  1.00  0.00     0.149 A 
HETATM   14  C9  UNK     1      18.068   4.963  33.219  1.00  0.00     0.184 A 
HETATM   15  C8  UNK     1      19.020   1.079  30.249  1.00  0.00     0.038 A 
BRANCH  13  16
HETATM   16  O2  UNK     1      18.220   6.959  31.947  1.00  0.00    -0.303 OA
BRANCH  16  17
HETATM   17  C10 UNK     1      17.101   7.569  32.446  1.00  0.00     0.098 A 
HETATM   18  C12 UNK     1      15.856   7.167  31.970  1.00  0.00     0.039 A 
HETATM   19  C14 UNK     1      14.698   7.772  32.459  1.00  0.00     0.003 A 
HETATM   20  C15 UNK     1      14.789   8.775  33.424  1.00  0.00     0.002 A 
HETATM   21  C13 UNK     1      16.039   9.175  33.898  1.00  0.00     0.026 A 
HETATM   22  C11 UNK     1      17.197   8.570  33.409  1.00  0.00     0.067 A 
HETATM   23 Cl1  UNK     1      18.729   9.082  34.014  1.00  0.00    -0.081 Cl
ENDBRANCH  16  17
ENDBRANCH  13  16
ENDBRANCH   4   5
ENDBRANCH   2   4
TORSDOF 4
ENDMDL
MODEL 4
REMARK VINA RESULT:      -7.6      4.295      8.263
REMARK  4 active torsions:
REMARK  status: ('A' for Active; 'I' for Inactive)
REMARK    1  A    between atoms: C10_16  and  O2_3 
REMARK    2  A    between atoms: C5_11  and  O2_3 
REMARK    3  A    between atoms: C16_22  and  O3_4 
REMARK    4  A    between atoms: C7_13  and  O3_4 
ROOT
HETATM    1  N1  UNK     1       5.331   4.356  10.668  1.00  0.00    -0.195 NA
HETATM    2  C16 UNK     1       6.086   6.867  10.569  1.00  0.00     0.299 C 
HETATM    3  C17 UNK     1       5.665   5.467  10.623  1.00  0.00     0.085 C 
ENDROOT
BRANCH   2   4
HETATM    4  O3  UNK     1       6.320   7.265   9.219  1.00  0.00    -0.337 OA
BRANCH   4   5
HETATM    5  C7  UNK     1       7.614   7.287   8.795  1.00  0.00     0.072 A 
HETATM    6  C6  UNK     1       8.571   8.000   9.517  1.00  0.00     0.075 A 
HETATM    7  C2  UNK     1       9.896   8.019   9.081  1.00  0.00     0.092 A 
HETATM    8  C1  UNK     1      10.260   7.325   7.924  1.00  0.00     0.051 A 
HETATM    9  O1  UNK     1      10.794   8.739   9.831  1.00  0.00    -0.319 OA
HETATM   10  C3  UNK     1      11.667   7.359   7.481  1.00  0.00     0.220 A 
HETATM   11  C4  UNK     1       9.303   6.610   7.200  1.00  0.00     0.021 A 
HETATM   12  O4  UNK     1      12.047   6.773   6.478  1.00  0.00    -0.284 OA
HETATM   13  C5  UNK     1      12.592   8.150   8.324  1.00  0.00     0.149 A 
HETATM   14  C9  UNK     1      12.100   8.763   9.406  1.00  0.00     0.184 A 
HETATM   15  C8  UNK     1       7.979   6.593   7.640  1.00  0.00     0.038 A 
BRANCH  13  16
HETATM   16  O2  UNK     1      13.920   8.232   7.980  1.00  0.00    -0.303 OA
BRANCH  16  17
HETATM   17  C10 UNK     1      14.835   8.019   8.975  1.00  0.00     0.098 A 
HETATM   18  C12 UNK     1      15.439   9.123   9.572  1.00  0.00     0.039 A 
HETATM   19  C14 UNK     1      16.376   8.936  10.588  1.00  0.00     0.003 A 
HETATM   20  C15 UNK     1      16.707   7.646  11.003  1.00  0.00     0.002 A 
HETATM   21  C13 UNK     1      16.100   6.543  10.401  1.00  0.00     0.026 A 
HETATM   22  C11 UNK     1      15.162   6.730   9.386  1.00  0.00     0.067 A 
HETATM   23 Cl1  UNK     1      14.427   5.349   8.661  1.00  0.00    -0.081 Cl
ENDBRANCH  16  17
ENDBRANCH  13  16
ENDBRANCH   4   5
ENDBRANCH   2   4
TORSDOF 4
ENDMDL
MODEL 5
REMARK VINA RESULT:      -7.5     23.025     24.767
REMARK  4 active torsions:
REMARK  status: ('A' for Active; 'I' for Inactive)
REMARK    1  A    between atoms: C10_16  and  O2_3 
REMARK    2  A    between atoms: C5_11  and  O2_3 
REMARK    3  A    between atoms: C16_22  and  O3_4 
REMARK    4  A    between atoms: C7_13  and  O3_4 
ROOT
HETATM    1  N1  UNK     1      15.635   9.056  32.376  1.00  0.00    -0.195 NA
HETATM    2  C16 UNK     1      17.587   8.235  33.924  1.00  0.00     0.299 C 
HETATM    3  C17 UNK     1      16.500   8.693  33.060  1.00  0.00     0.085 C 
ENDROOT
BRANCH   2   4
HETATM    4  O3  UNK     1      18.736   7.903  33.146  1.00  0.00    -0.337 OA
BRANCH   4   5
HETATM    5  C7  UNK     1      18.749   6.678  32.552  1.00  0.00     0.072 A 
HETATM    6  C6  UNK     1      18.408   5.543  33.289  1.00  0.00     0.075 A 
HETATM    7  C2  UNK     1      18.421   4.290  32.677  1.00  0.00     0.092 A 
HETATM    8  C1  UNK     1      18.776   4.173  31.331  1.00  0.00     0.051 A 
HETATM    9  O1  UNK     1      18.077   3.210  33.453  1.00  0.00    -0.319 OA
HETATM   10  C3  UNK     1      18.783   2.838  30.705  1.00  0.00     0.220 A 
HETATM   11  C4  UNK     1      19.118   5.308  30.591  1.00  0.00     0.021 A 
HETATM   12  O4  UNK     1      19.085   2.671  29.532  1.00  0.00    -0.284 OA
HETATM   13  C5  UNK     1      18.405   1.709  31.585  1.00  0.00     0.149 A 
HETATM   14  C9  UNK     1      18.089   1.972  32.857  1.00  0.00     0.184 A 
HETATM   15  C8  UNK     1      19.103   6.560  31.207  1.00  0.00     0.038 A 
BRANCH  13  16
HETATM   16  O2  UNK     1      18.388   0.431  31.078  1.00  0.00    -0.303 OA
BRANCH  16  17
HETATM   17  C10 UNK     1      19.133  -0.509  31.736  1.00  0.00     0.098 A 
HETATM   18  C12 UNK     1      18.728  -0.910  33.007  1.00  0.00     0.039 A 
HETATM   19  C14 UNK     1      19.469  -1.866  33.702  1.00  0.00     0.003 A 
HETATM   20  C15 UNK     1      20.612  -2.419  33.124  1.00  0.00     0.002 A 
HETATM   21  C13 UNK     1      21.013  -2.014  31.850  1.00  0.00     0.026 A 
HETATM   22  C11 UNK     1      20.272  -1.058  31.155  1.00  0.00     0.067 A 
HETATM   23 Cl1  UNK     1      20.791  -0.579  29.582  1.00  0.00    -0.081 Cl
ENDBRANCH  16  17
ENDBRANCH  13  16
ENDBRANCH   4   5
ENDBRANCH   2   4
TORSDOF 4
ENDMDL
MODEL 6
REMARK VINA RESULT:      -7.5      4.190      6.602
REMARK  4 active torsions:
REMARK  status: ('A' for Active; 'I' for Inactive)
REMARK    1  A    between atoms: C10_16  and  O2_3 
REMARK    2  A    between atoms: C5_11  and  O2_3 
REMARK    3  A    between atoms: C16_22  and  O3_4 
REMARK    4  A    between atoms: C7_13  and  O3_4 
ROOT
HETATM    1  N1  UNK     1      15.399   6.668  10.859  1.00  0.00    -0.195 NA
HETATM    2  C16 UNK     1      14.552   5.330   8.767  1.00  0.00     0.299 C 
HETATM    3  C17 UNK     1      15.024   6.077   9.933  1.00  0.00     0.085 C 
ENDROOT
BRANCH   2   4
HETATM    4  O3  UNK     1      13.796   6.179   7.904  1.00  0.00    -0.337 OA
BRANCH   4   5
HETATM    5  C7  UNK     1      12.440   6.124   8.014  1.00  0.00     0.072 A 
HETATM    6  C6  UNK     1      11.852   5.297   8.972  1.00  0.00     0.075 A 
HETATM    7  C2  UNK     1      10.462   5.245   9.082  1.00  0.00     0.092 A 
HETATM    8  C1  UNK     1       9.664   6.018   8.235  1.00  0.00     0.051 A 
HETATM    9  O1  UNK     1       9.940   4.412  10.042  1.00  0.00    -0.319 OA
HETATM   10  C3  UNK     1       8.197   5.946   8.370  1.00  0.00     0.220 A 
HETATM   11  C4  UNK     1      10.251   6.846   7.276  1.00  0.00     0.021 A 
HETATM   12  O4  UNK     1       7.446   6.597   7.658  1.00  0.00    -0.284 OA
HETATM   13  C5  UNK     1       7.688   5.033   9.418  1.00  0.00     0.149 A 
HETATM   14  C9  UNK     1       8.573   4.354  10.155  1.00  0.00     0.184 A 
HETATM   15  C8  UNK     1      11.642   6.897   7.169  1.00  0.00     0.038 A 
BRANCH  13  16
HETATM   16  O2  UNK     1       6.332   4.909   9.608  1.00  0.00    -0.303 OA
BRANCH  16  17
HETATM   17  C10 UNK     1       5.879   4.934  10.899  1.00  0.00     0.098 A 
HETATM   18  C12 UNK     1       5.858   6.153  11.573  1.00  0.00     0.039 A 
HETATM   19  C14 UNK     1       5.403   6.209  12.891  1.00  0.00     0.003 A 
HETATM   20  C15 UNK     1       4.971   5.046  13.529  1.00  0.00     0.002 A 
HETATM   21  C13 UNK     1       4.995   3.828  12.851  1.00  0.00     0.026 A 
HETATM   22  C11 UNK     1       5.449   3.772  11.532  1.00  0.00     0.067 A 
HETATM   23 Cl1  UNK     1       5.466   2.252  10.717  1.00  0.00    -0.081 Cl
ENDBRANCH  16  17
ENDBRANCH  13  16
ENDBRANCH   4   5
ENDBRANCH   2   4
TORSDOF 4
ENDMDL
MODEL 7
REMARK VINA RESULT:      -7.5      4.535      8.612
REMARK  4 active torsions:
REMARK  status: ('A' for Active; 'I' for Inactive)
REMARK    1  A    between atoms: C10_16  and  O2_3 
REMARK    2  A    between atoms: C5_11  and  O2_3 
REMARK    3  A    between atoms: C16_22  and  O3_4 
REMARK    4  A    between atoms: C7_13  and  O3_4 
ROOT
HETATM    1  N1  UNK     1       5.309   4.359  12.237  1.00  0.00    -0.195 NA
HETATM    2  C16 UNK     1       6.518   3.755   9.988  1.00  0.00     0.299 C 
HETATM    3  C17 UNK     1       5.844   4.093  11.242  1.00  0.00     0.085 C 
ENDROOT
BRANCH   2   4
HETATM    4  O3  UNK     1       6.606   4.903   9.145  1.00  0.00    -0.337 OA
BRANCH   4   5
HETATM    5  C7  UNK     1       7.849   5.279   8.739  1.00  0.00     0.072 A 
HETATM    6  C6  UNK     1       8.945   5.085   9.581  1.00  0.00     0.075 A 
HETATM    7  C2  UNK     1      10.218   5.471   9.162  1.00  0.00     0.092 A 
HETATM    8  C1  UNK     1      10.393   6.051   7.903  1.00  0.00     0.051 A 
HETATM    9  O1  UNK     1      11.258   5.256  10.034  1.00  0.00    -0.319 OA
HETATM   10  C3  UNK     1      11.749   6.451   7.481  1.00  0.00     0.220 A 
HETATM   11  C4  UNK     1       9.298   6.246   7.059  1.00  0.00     0.021 A 
HETATM   12  O4  UNK     1      11.966   6.964   6.393  1.00  0.00    -0.284 OA
HETATM   13  C5  UNK     1      12.832   6.198   8.458  1.00  0.00     0.149 A 
HETATM   14  C9  UNK     1      12.514   5.635   9.628  1.00  0.00     0.184 A 
HETATM   15  C8  UNK     1       8.026   5.858   7.481  1.00  0.00     0.038 A 
BRANCH  13  16
HETATM   16  O2  UNK     1      14.124   6.543   8.141  1.00  0.00    -0.303 OA
BRANCH  16  17
HETATM   17  C10 UNK     1      14.790   7.342   9.031  1.00  0.00     0.098 A 
HETATM   18  C12 UNK     1      14.431   8.685   9.119  1.00  0.00     0.039 A 
HETATM   19  C14 UNK     1      15.094   9.522  10.016  1.00  0.00     0.003 A 
HETATM   20  C15 UNK     1      16.114   9.015  10.822  1.00  0.00     0.002 A 
HETATM   21  C13 UNK     1      16.471   7.669  10.729  1.00  0.00     0.026 A 
HETATM   22  C11 UNK     1      15.807   6.831   9.832  1.00  0.00     0.067 A 
HETATM   23 Cl1  UNK     1      16.269   5.172   9.740  1.00  0.00    -0.081 Cl
ENDBRANCH  16  17
ENDBRANCH  13  16
ENDBRANCH   4   5
ENDBRANCH   2   4
TORSDOF 4
ENDMDL
MODEL 8
REMARK VINA RESULT:      -7.5      3.910      6.002
REMARK  4 active torsions:
REMARK  status: ('A' for Active; 'I' for Inactive)
REMARK    1  A    between atoms: C10_16  and  O2_3 
REMARK    2  A    between atoms: C5_11  and  O2_3 
REMARK    3  A    between atoms: C16_22  and  O3_4 
REMARK    4  A    between atoms: C7_13  and  O3_4 
ROOT
HETATM    1  N1  UNK     1      15.738   5.129   9.443  1.00  0.00    -0.195 NA
HETATM    2  C16 UNK     1      14.608   7.470   9.089  1.00  0.00     0.299 C 
HETATM    3  C17 UNK     1      15.237   6.164   9.285  1.00  0.00     0.085 C 
ENDROOT
BRANCH   2   4
HETATM    4  O3  UNK     1      13.850   7.482   7.879  1.00  0.00    -0.337 OA
BRANCH   4   5
HETATM    5  C7  UNK     1      12.523   7.198   7.978  1.00  0.00     0.072 A 
HETATM    6  C6  UNK     1      11.706   7.967   8.808  1.00  0.00     0.075 A 
HETATM    7  C2  UNK     1      10.346   7.674   8.906  1.00  0.00     0.092 A 
HETATM    8  C1  UNK     1       9.806   6.613   8.175  1.00  0.00     0.051 A 
HETATM    9  O1  UNK     1       9.592   8.464   9.738  1.00  0.00    -0.319 OA
HETATM   10  C3  UNK     1       8.365   6.321   8.293  1.00  0.00     0.220 A 
HETATM   11  C4  UNK     1      10.621   5.842   7.343  1.00  0.00     0.021 A 
HETATM   12  O4  UNK     1       7.834   5.406   7.680  1.00  0.00    -0.284 OA
HETATM   13  C5  UNK     1       7.599   7.202   9.204  1.00  0.00     0.149 A 
HETATM   14  C9  UNK     1       8.252   8.180   9.841  1.00  0.00     0.184 A 
HETATM   15  C8  UNK     1      11.982   6.139   7.247  1.00  0.00     0.038 A 
BRANCH  13  16
HETATM   16  O2  UNK     1       6.251   6.996   9.372  1.00  0.00    -0.303 OA
BRANCH  16  17
HETATM   17  C10 UNK     1       5.843   6.493  10.577  1.00  0.00     0.098 A 
HETATM   18  C12 UNK     1       6.120   5.160  10.871  1.00  0.00     0.039 A 
HETATM   19  C14 UNK     1       5.714   4.620  12.091  1.00  0.00     0.003 A 
HETATM   20  C15 UNK     1       5.034   5.414  13.015  1.00  0.00     0.002 A 
HETATM   21  C13 UNK     1       4.758   6.749  12.716  1.00  0.00     0.026 A 
HETATM   22  C11 UNK     1       5.164   7.289  11.495  1.00  0.00     0.067 A 
HETATM   23 Cl1  UNK     1       4.811   8.943  11.153  1.00  0.00    -0.081 Cl
ENDBRANCH  16  17
ENDBRANCH  13  16
ENDBRANCH   4   5
ENDBRANCH   2   4
TORSDOF 4
ENDMDL
MODEL 9
REMARK VINA RESULT:      -7.3     25.443     27.380
REMARK  4 active torsions:
REMARK  status: ('A' for Active; 'I' for Inactive)
REMARK    1  A    between atoms: C10_16  and  O2_3 
REMARK    2  A    between atoms: C5_11  and  O2_3 
REMARK    3  A    between atoms: C16_22  and  O3_4 
REMARK    4  A    between atoms: C7_13  and  O3_4 
ROOT
HETATM    1  N1  UNK     1      21.701  -6.059  37.553  1.00  0.00    -0.195 NA
HETATM    2  C16 UNK     1      19.841  -4.523  36.521  1.00  0.00     0.299 C 
HETATM    3  C17 UNK     1      20.879  -5.378  37.097  1.00  0.00     0.085 C 
ENDROOT
BRANCH   2   4
HETATM    4  O3  UNK     1      20.145  -3.147  36.751  1.00  0.00    -0.337 OA
BRANCH   4   5
HETATM    5  C7  UNK     1      19.761  -2.260  35.793  1.00  0.00     0.072 A 
HETATM    6  C6  UNK     1      19.204  -1.035  36.161  1.00  0.00     0.075 A 
HETATM    7  C2  UNK     1      18.813  -0.127  35.177  1.00  0.00     0.092 A 
HETATM    8  C1  UNK     1      18.977  -0.447  33.827  1.00  0.00     0.051 A 
HETATM    9  O1  UNK     1      18.271   1.062  35.600  1.00  0.00    -0.319 OA
HETATM   10  C3  UNK     1      18.555   0.528  32.803  1.00  0.00     0.220 A 
HETATM   11  C4  UNK     1      19.533  -1.673  33.456  1.00  0.00     0.021 A 
HETATM   12  O4  UNK     1      18.672   0.305  31.607  1.00  0.00    -0.284 OA
HETATM   13  C5  UNK     1      17.977   1.791  33.313  1.00  0.00     0.149 A 
HETATM   14  C9  UNK     1      17.881   1.960  34.636  1.00  0.00     0.184 A 
HETATM   15  C8  UNK     1      19.925  -2.578  34.444  1.00  0.00     0.038 A 
BRANCH  13  16
HETATM   16  O2  UNK     1      17.559   2.752  32.423  1.00  0.00    -0.303 OA
BRANCH  16  17
HETATM   17  C10 UNK     1      18.334   3.874  32.308  1.00  0.00     0.098 A 
HETATM   18  C12 UNK     1      18.487   4.695  33.423  1.00  0.00     0.039 A 
HETATM   19  C14 UNK     1      19.271   5.846  33.334  1.00  0.00     0.003 A 
HETATM   20  C15 UNK     1      19.900   6.171  32.132  1.00  0.00     0.002 A 
HETATM   21  C13 UNK     1      19.743   5.346  31.018  1.00  0.00     0.026 A 
HETATM   22  C11 UNK     1      18.960   4.194  31.107  1.00  0.00     0.067 A 
HETATM   23 Cl1  UNK     1      18.786   3.192  29.715  1.00  0.00    -0.081 Cl
ENDBRANCH  16  17
ENDBRANCH  13  16
ENDBRANCH   4   5
ENDBRANCH   2   4
TORSDOF 4
ENDMDL
MODEL 10
REMARK VINA RESULT:      -7.3     23.027     24.533
REMARK  4 active torsions:
REMARK  status: ('A' for Active; 'I' for Inactive)
REMARK    1  A    between atoms: C10_16  and  O2_3 
REMARK    2  A    between atoms: C5_11  and  O2_3 
REMARK    3  A    between atoms: C16_22  and  O3_4 
REMARK    4  A    between atoms: C7_13  and  O3_4 
ROOT
HETATM    1  N1  UNK     1      17.890   2.480  31.722  1.00  0.00    -0.195 NA
HETATM    2  C16 UNK     1      18.979   4.207  30.074  1.00  0.00     0.299 C 
HETATM    3  C17 UNK     1      18.372   3.245  30.994  1.00  0.00     0.085 C 
ENDROOT
BRANCH   2   4
HETATM    4  O3  UNK     1      19.636   5.245  30.801  1.00  0.00    -0.337 OA
BRANCH   4   5
HETATM    5  C7  UNK     1      18.858   6.039  31.585  1.00  0.00     0.072 A 
HETATM    6  C6  UNK     1      17.818   6.776  31.017  1.00  0.00     0.075 A 
HETATM    7  C2  UNK     1      17.021   7.588  31.824  1.00  0.00     0.092 A 
HETATM    8  C1  UNK     1      17.266   7.663  33.197  1.00  0.00     0.051 A 
HETATM    9  O1  UNK     1      16.014   8.290  31.209  1.00  0.00    -0.319 OA
HETATM   10  C3  UNK     1      16.412   8.528  34.032  1.00  0.00     0.220 A 
HETATM   11  C4  UNK     1      18.307   6.926  33.769  1.00  0.00     0.021 A 
HETATM   12  O4  UNK     1      16.577   8.635  35.239  1.00  0.00    -0.284 OA
HETATM   13  C5  UNK     1      15.343   9.262  33.319  1.00  0.00     0.149 A 
HETATM   14  C9  UNK     1      15.227   9.093  31.997  1.00  0.00     0.184 A 
HETATM   15  C8  UNK     1      19.101   6.114  32.958  1.00  0.00     0.038 A 
BRANCH  13  16
HETATM   16  O2  UNK     1      14.503  10.091  34.024  1.00  0.00    -0.303 OA
BRANCH  16  17
HETATM   17  C10 UNK     1      14.583  11.431  33.758  1.00  0.00     0.098 A 
HETATM   18  C12 UNK     1      15.726  12.121  34.155  1.00  0.00     0.039 A 
HETATM   19  C14 UNK     1      15.833  13.488  33.898  1.00  0.00     0.003 A 
HETATM   20  C15 UNK     1      14.799  14.160  33.246  1.00  0.00     0.002 A 
HETATM   21  C13 UNK     1      13.656  13.464  32.851  1.00  0.00     0.026 A 
HETATM   22  C11 UNK     1      13.548  12.097  33.107  1.00  0.00     0.067 A 
HETATM   23 Cl1  UNK     1      12.125  11.262  32.606  1.00  0.00    -0.081 Cl
ENDBRANCH  16  17
ENDBRANCH  13  16
ENDBRANCH   4   5
ENDBRANCH   2   4
TORSDOF 4
ENDMDL
