MODEL 1
REMARK VINA RESULT:      -9.9      0.000      0.000
REMARK  2 active torsions:
REMARK  status: ('A' for Active; 'I' for Inactive)
REMARK    1  A    between atoms: C17_20  and  O3_3 
REMARK    2  A    between atoms: C11_14  and  C5_8 
ROOT
HETATM    1  O1  UNK     1      18.763   0.426  33.378  1.00  0.00    -0.308 OA
HETATM    2  O2  UNK     1      17.722   4.203  32.290  1.00  0.00    -0.287 OA
HETATM    3  C1  UNK     1      18.932   0.819  32.069  1.00  0.00     0.101 A 
HETATM    4  C2  UNK     1      19.470  -0.124  31.164  1.00  0.00     0.009 A 
HETATM    5  C3  UNK     1      18.591   2.103  31.640  1.00  0.00     0.049 A 
HETATM    6  C4  UNK     1      19.653   0.258  29.812  1.00  0.00    -0.023 A 
HETATM    7  C5  UNK     1      18.235   1.324  34.291  1.00  0.00     0.090 A 
HETATM    8  C6  UNK     1      18.772   2.474  30.309  1.00  0.00     0.019 A 
HETATM    9  C7  UNK     1      19.301   1.555  29.403  1.00  0.00     0.013 A 
HETATM   10  C8  UNK     1      18.036   3.064  32.606  1.00  0.00     0.187 A 
HETATM   11  C9  UNK     1      19.834  -1.434  31.544  1.00  0.00     0.015 A 
HETATM   12  C10 UNK     1      17.879   2.582  33.991  1.00  0.00     0.093 A 
HETATM   13  C12 UNK     1      20.186  -0.661  28.894  1.00  0.00     0.012 A 
HETATM   14  C13 UNK     1      20.363  -2.335  30.617  1.00  0.00     0.001 A 
HETATM   15  C14 UNK     1      20.538  -1.950  29.295  1.00  0.00     0.001 A 
ENDROOT
BRANCH   7  16
HETATM   16  C11 UNK     1      18.111   0.784  35.659  1.00  0.00     0.001 A 
HETATM   17  C15 UNK     1      18.333  -0.575  35.901  1.00  0.00     0.050 A 
HETATM   18  C17 UNK     1      18.215  -1.084  37.194  1.00  0.00     0.066 A 
HETATM   19  C19 UNK     1      17.873  -0.238  38.249  1.00  0.00     0.036 A 
HETATM   20  C18 UNK     1      17.649   1.118  38.011  1.00  0.00     0.004 A 
HETATM   21  C16 UNK     1      17.768   1.628  36.717  1.00  0.00     0.014 A 
BRANCH  18  22
HETATM   22  O3  UNK     1      18.434  -2.408  37.427  1.00  0.00    -0.361 OA
HETATM   23  H12 UNK     1      18.393  -2.569  38.386  1.00  0.00     0.217 HD
ENDBRANCH  18  22
ENDBRANCH   7  16
TORSDOF 2
ENDMDL
MODEL 2
REMARK VINA RESULT:      -9.5      0.956      1.398
REMARK  2 active torsions:
REMARK  status: ('A' for Active; 'I' for Inactive)
REMARK    1  A    between atoms: C17_20  and  O3_3 
REMARK    2  A    between atoms: C11_14  and  C5_8 
ROOT
HETATM    1  O1  UNK     1      18.787   0.241  33.367  1.00  0.00    -0.308 OA
HETATM    2  O2  UNK     1      17.701   4.059  32.482  1.00  0.00    -0.287 OA
HETATM    3  C1  UNK     1      18.947   0.705  32.080  1.00  0.00     0.101 A 
HETATM    4  C2  UNK     1      19.494  -0.183  31.125  1.00  0.00     0.009 A 
HETATM    5  C3  UNK     1      18.591   2.005  31.719  1.00  0.00     0.049 A 
HETATM    6  C4  UNK     1      19.668   0.272  29.795  1.00  0.00    -0.023 A 
HETATM    7  C5  UNK     1      18.252   1.085  34.327  1.00  0.00     0.090 A 
HETATM    8  C6  UNK     1      18.764   2.448  30.410  1.00  0.00     0.019 A 
HETATM    9  C7  UNK     1      19.300   1.584  29.455  1.00  0.00     0.013 A 
HETATM   10  C8  UNK     1      18.029   2.908  32.737  1.00  0.00     0.187 A 
HETATM   11  C9  UNK     1      19.874  -1.507  31.434  1.00  0.00     0.015 A 
HETATM   12  C10 UNK     1      17.881   2.353  34.095  1.00  0.00     0.093 A 
HETATM   13  C12 UNK     1      20.208  -0.592  28.829  1.00  0.00     0.012 A 
HETATM   14  C13 UNK     1      20.409  -2.352  30.461  1.00  0.00     0.001 A 
HETATM   15  C14 UNK     1      20.577  -1.896  29.160  1.00  0.00     0.001 A 
ENDROOT
BRANCH   7  16
HETATM   16  C11 UNK     1      18.138   0.471  35.665  1.00  0.00     0.001 A 
HETATM   17  C15 UNK     1      18.020   1.278  36.800  1.00  0.00     0.050 A 
HETATM   18  C17 UNK     1      17.913   0.696  38.064  1.00  0.00     0.066 A 
HETATM   19  C19 UNK     1      17.924  -0.692  38.197  1.00  0.00     0.036 A 
HETATM   20  C18 UNK     1      18.042  -1.500  37.066  1.00  0.00     0.004 A 
HETATM   21  C16 UNK     1      18.148  -0.919  35.802  1.00  0.00     0.014 A 
BRANCH  18  22
HETATM   22  O3  UNK     1      17.797   1.485  39.168  1.00  0.00    -0.361 OA
HETATM   23  H12 UNK     1      18.213   1.033  39.923  1.00  0.00     0.217 HD
ENDBRANCH  18  22
ENDBRANCH   7  16
TORSDOF 2
ENDMDL
MODEL 3
REMARK VINA RESULT:      -9.3      2.109      5.402
REMARK  2 active torsions:
REMARK  status: ('A' for Active; 'I' for Inactive)
REMARK    1  A    between atoms: C17_20  and  O3_3 
REMARK    2  A    between atoms: C11_14  and  C5_8 
ROOT
HETATM    1  O1  UNK     1      18.835   2.174  31.709  1.00  0.00    -0.308 OA
HETATM    2  O2  UNK     1      17.713   1.129  35.475  1.00  0.00    -0.287 OA
HETATM    3  C1  UNK     1      18.983   0.867  32.116  1.00  0.00     0.101 A 
HETATM    4  C2  UNK     1      19.520  -0.053  31.187  1.00  0.00     0.009 A 
HETATM    5  C3  UNK     1      18.616   0.452  33.398  1.00  0.00     0.049 A 
HETATM    6  C4  UNK     1      19.681  -1.404  31.585  1.00  0.00    -0.023 A 
HETATM    7  C5  UNK     1      18.314   3.103  32.596  1.00  0.00     0.090 A 
HETATM    8  C6  UNK     1      18.777  -0.876  33.783  1.00  0.00     0.019 A 
HETATM    9  C7  UNK     1      19.306  -1.797  32.879  1.00  0.00     0.013 A 
HETATM   10  C8  UNK     1      18.055   1.433  34.342  1.00  0.00     0.187 A 
HETATM   11  C9  UNK     1      19.906   0.310  29.879  1.00  0.00     0.015 A 
HETATM   12  C10 UNK     1      17.923   2.816  33.846  1.00  0.00     0.093 A 
HETATM   13  C12 UNK     1      20.213  -2.337  30.679  1.00  0.00     0.012 A 
HETATM   14  C13 UNK     1      20.433  -0.631  28.993  1.00  0.00     0.001 A 
HETATM   15  C14 UNK     1      20.586  -1.952  29.392  1.00  0.00     0.001 A 
ENDROOT
BRANCH   7  16
HETATM   16  C11 UNK     1      18.201   4.465  32.037  1.00  0.00     0.001 A 
HETATM   17  C15 UNK     1      18.885   4.804  30.866  1.00  0.00     0.050 A 
HETATM   18  C17 UNK     1      18.777   6.091  30.340  1.00  0.00     0.066 A 
HETATM   19  C19 UNK     1      17.986   7.044  30.982  1.00  0.00     0.036 A 
HETATM   20  C18 UNK     1      17.303   6.709  32.151  1.00  0.00     0.004 A 
HETATM   21  C16 UNK     1      17.410   5.421  32.677  1.00  0.00     0.014 A 
BRANCH  18  22
HETATM   22  O3  UNK     1      19.443   6.417  29.198  1.00  0.00    -0.361 OA
HETATM   23  H12 UNK     1      20.395   6.270  29.336  1.00  0.00     0.217 HD
ENDBRANCH  18  22
ENDBRANCH   7  16
TORSDOF 2
ENDMDL
MODEL 4
REMARK VINA RESULT:      -9.3      2.602      6.420
REMARK  2 active torsions:
REMARK  status: ('A' for Active; 'I' for Inactive)
REMARK    1  A    between atoms: C17_20  and  O3_3 
REMARK    2  A    between atoms: C11_14  and  C5_8 
ROOT
HETATM    1  O1  UNK     1      18.044   3.319  33.568  1.00  0.00    -0.308 OA
HETATM    2  O2  UNK     1      18.941   1.525  30.031  1.00  0.00    -0.287 OA
HETATM    3  C1  UNK     1      18.244   1.957  33.536  1.00  0.00     0.101 A 
HETATM    4  C2  UNK     1      18.131   1.249  34.755  1.00  0.00     0.009 A 
HETATM    5  C3  UNK     1      18.553   1.289  32.351  1.00  0.00     0.049 A 
HETATM    6  C4  UNK     1      18.333  -0.154  34.747  1.00  0.00    -0.023 A 
HETATM    7  C5  UNK     1      18.145   4.044  32.391  1.00  0.00     0.090 A 
HETATM    8  C6  UNK     1      18.751  -0.090  32.348  1.00  0.00     0.019 A 
HETATM    9  C7  UNK     1      18.641  -0.805  33.541  1.00  0.00     0.013 A 
HETATM   10  C8  UNK     1      18.669   2.054  31.099  1.00  0.00     0.187 A 
HETATM   11  C9  UNK     1      17.823   1.873  35.983  1.00  0.00     0.015 A 
HETATM   12  C10 UNK     1      18.442   3.508  31.198  1.00  0.00     0.093 A 
HETATM   13  C12 UNK     1      18.225  -0.879  35.944  1.00  0.00     0.012 A 
HETATM   14  C13 UNK     1      17.719   1.136  37.163  1.00  0.00     0.001 A 
HETATM   15  C14 UNK     1      17.920  -0.238  37.145  1.00  0.00     0.001 A 
ENDROOT
BRANCH   7  16
HETATM   16  C11 UNK     1      17.915   5.492  32.560  1.00  0.00     0.001 A 
HETATM   17  C15 UNK     1      17.314   6.233  31.537  1.00  0.00     0.050 A 
HETATM   18  C17 UNK     1      17.098   7.601  31.698  1.00  0.00     0.066 A 
HETATM   19  C19 UNK     1      17.482   8.235  32.880  1.00  0.00     0.036 A 
HETATM   20  C18 UNK     1      18.082   7.499  33.902  1.00  0.00     0.004 A 
HETATM   21  C16 UNK     1      18.298   6.130  33.742  1.00  0.00     0.014 A 
BRANCH  18  22
HETATM   22  O3  UNK     1      16.511   8.319  30.701  1.00  0.00    -0.361 OA
HETATM   23  H12 UNK     1      15.660   7.905  30.474  1.00  0.00     0.217 HD
ENDBRANCH  18  22
ENDBRANCH   7  16
TORSDOF 2
ENDMDL
MODEL 5
REMARK VINA RESULT:      -9.2     24.197     26.557
REMARK  2 active torsions:
REMARK  status: ('A' for Active; 'I' for Inactive)
REMARK    1  A    between atoms: C17_20  and  O3_3 
REMARK    2  A    between atoms: C11_14  and  C5_8 
ROOT
HETATM    1  O1  UNK     1      13.470   7.424   8.530  1.00  0.00    -0.308 OA
HETATM    2  O2  UNK     1      15.420   4.080   9.776  1.00  0.00    -0.287 OA
HETATM    3  C1  UNK     1      14.711   7.547   9.114  1.00  0.00     0.101 A 
HETATM    4  C2  UNK     1      15.249   8.848   9.244  1.00  0.00     0.009 A 
HETATM    5  C3  UNK     1      15.425   6.434   9.561  1.00  0.00     0.049 A 
HETATM    6  C4  UNK     1      16.525   8.999   9.841  1.00  0.00    -0.023 A 
HETATM    7  C5  UNK     1      12.912   6.164   8.389  1.00  0.00     0.090 A 
HETATM    8  C6  UNK     1      16.679   6.588  10.147  1.00  0.00     0.019 A 
HETATM    9  C7  UNK     1      17.224   7.865  10.285  1.00  0.00     0.013 A 
HETATM   10  C8  UNK     1      14.841   5.092   9.407  1.00  0.00     0.187 A 
HETATM   11  C9  UNK     1      14.573  10.008   8.808  1.00  0.00     0.015 A 
HETATM   12  C10 UNK     1      13.510   5.027   8.777  1.00  0.00     0.093 A 
HETATM   13  C12 UNK     1      17.080  10.282   9.982  1.00  0.00     0.012 A 
HETATM   14  C13 UNK     1      15.140  11.275   8.956  1.00  0.00     0.001 A 
HETATM   15  C14 UNK     1      16.392  11.412   9.542  1.00  0.00     0.001 A 
ENDROOT
BRANCH   7  16
HETATM   16  C11 UNK     1      11.584   6.166   7.745  1.00  0.00     0.001 A 
HETATM   17  C15 UNK     1      10.425   6.115   8.523  1.00  0.00     0.050 A 
HETATM   18  C17 UNK     1       9.170   6.117   7.912  1.00  0.00     0.066 A 
HETATM   19  C19 UNK     1       9.071   6.169   6.522  1.00  0.00     0.036 A 
HETATM   20  C18 UNK     1      10.227   6.220   5.742  1.00  0.00     0.004 A 
HETATM   21  C16 UNK     1      11.481   6.219   6.353  1.00  0.00     0.014 A 
BRANCH  18  22
HETATM   22  O3  UNK     1       8.043   6.068   8.674  1.00  0.00    -0.361 OA
HETATM   23  H12 UNK     1       7.393   5.491   8.237  1.00  0.00     0.217 HD
ENDBRANCH  18  22
ENDBRANCH   7  16
TORSDOF 2
ENDMDL
MODEL 6
REMARK VINA RESULT:      -9.1      1.735      7.313
REMARK  2 active torsions:
REMARK  status: ('A' for Active; 'I' for Inactive)
REMARK    1  A    between atoms: C17_20  and  O3_3 
REMARK    2  A    between atoms: C11_14  and  C5_8 
ROOT
HETATM    1  O1  UNK     1      19.143  -0.752  33.820  1.00  0.00    -0.308 OA
HETATM    2  O2  UNK     1      20.444  -4.263  35.407  1.00  0.00    -0.287 OA
HETATM    3  C1  UNK     1      18.932  -1.004  35.157  1.00  0.00     0.101 A 
HETATM    4  C2  UNK     1      18.271  -0.012  35.916  1.00  0.00     0.009 A 
HETATM    5  C3  UNK     1      19.356  -2.193  35.755  1.00  0.00     0.049 A 
HETATM    6  C4  UNK     1      18.043  -0.250  37.294  1.00  0.00    -0.023 A 
HETATM    7  C5  UNK     1      19.786  -1.704  33.046  1.00  0.00     0.090 A 
HETATM    8  C6  UNK     1      19.130  -2.422  37.110  1.00  0.00     0.019 A 
HETATM    9  C7  UNK     1      18.477  -1.453  37.873  1.00  0.00     0.013 A 
HETATM   10  C8  UNK     1      20.047  -3.205  34.939  1.00  0.00     0.187 A 
HETATM   11  C9  UNK     1      17.822   1.208  35.365  1.00  0.00     0.015 A 
HETATM   12  C10 UNK     1      20.240  -2.876  33.515  1.00  0.00     0.093 A 
HETATM   13  C12 UNK     1      17.388   0.720  38.069  1.00  0.00     0.012 A 
HETATM   14  C13 UNK     1      17.172   2.161  36.151  1.00  0.00     0.001 A 
HETATM   15  C14 UNK     1      16.955   1.918  37.501  1.00  0.00     0.001 A 
ENDROOT
BRANCH   7  16
HETATM   16  C11 UNK     1      19.955  -1.311  31.633  1.00  0.00     0.001 A 
HETATM   17  C15 UNK     1      19.666  -0.006  31.226  1.00  0.00     0.050 A 
HETATM   18  C17 UNK     1      19.826   0.363  29.891  1.00  0.00     0.066 A 
HETATM   19  C19 UNK     1      20.275  -0.571  28.957  1.00  0.00     0.036 A 
HETATM   20  C18 UNK     1      20.563  -1.875  29.359  1.00  0.00     0.004 A 
HETATM   21  C16 UNK     1      20.404  -2.244  30.695  1.00  0.00     0.014 A 
BRANCH  18  22
HETATM   22  O3  UNK     1      19.545   1.637  29.498  1.00  0.00    -0.361 OA
HETATM   23  H12 UNK     1      18.654   1.656  29.107  1.00  0.00     0.217 HD
ENDBRANCH  18  22
ENDBRANCH   7  16
TORSDOF 2
ENDMDL
MODEL 7
REMARK VINA RESULT:      -8.9      1.937      4.375
REMARK  2 active torsions:
REMARK  status: ('A' for Active; 'I' for Inactive)
REMARK    1  A    between atoms: C17_20  and  O3_3 
REMARK    2  A    between atoms: C11_14  and  C5_8 
ROOT
HETATM    1  O1  UNK     1      18.179   2.400  33.708  1.00  0.00    -0.308 OA
HETATM    2  O2  UNK     1      19.237   0.228  30.437  1.00  0.00    -0.287 OA
HETATM    3  C1  UNK     1      18.386   3.046  32.510  1.00  0.00     0.101 A 
HETATM    4  C2  UNK     1      18.211   4.449  32.482  1.00  0.00     0.009 A 
HETATM    5  C3  UNK     1      18.751   2.352  31.356  1.00  0.00     0.049 A 
HETATM    6  C4  UNK     1      18.418   5.135  31.260  1.00  0.00    -0.023 A 
HETATM    7  C5  UNK     1      18.345   1.026  33.772  1.00  0.00     0.090 A 
HETATM    8  C6  UNK     1      18.953   3.031  30.157  1.00  0.00     0.019 A 
HETATM    9  C7  UNK     1      18.786   4.415  30.112  1.00  0.00     0.013 A 
HETATM   10  C8  UNK     1      18.921   0.891  31.415  1.00  0.00     0.187 A 
HETATM   11  C9  UNK     1      17.840   5.202  33.618  1.00  0.00     0.015 A 
HETATM   12  C10 UNK     1      18.687   0.258  32.727  1.00  0.00     0.093 A 
HETATM   13  C12 UNK     1      18.250   6.529  31.207  1.00  0.00     0.012 A 
HETATM   14  C13 UNK     1      17.679   6.586  33.547  1.00  0.00     0.001 A 
HETATM   15  C14 UNK     1      17.883   7.249  32.343  1.00  0.00     0.001 A 
ENDROOT
BRANCH   7  16
HETATM   16  C11 UNK     1      18.089   0.454  35.109  1.00  0.00     0.001 A 
HETATM   17  C15 UNK     1      18.041  -0.932  35.283  1.00  0.00     0.050 A 
HETATM   18  C17 UNK     1      17.798  -1.470  36.547  1.00  0.00     0.066 A 
HETATM   19  C19 UNK     1      17.601  -0.626  37.640  1.00  0.00     0.036 A 
HETATM   20  C18 UNK     1      17.648   0.757  37.469  1.00  0.00     0.004 A 
HETATM   21  C16 UNK     1      17.891   1.296  36.205  1.00  0.00     0.014 A 
BRANCH  18  22
HETATM   22  O3  UNK     1      17.753  -2.821  36.713  1.00  0.00    -0.361 OA
HETATM   23  H12 UNK     1      17.010  -3.178  36.196  1.00  0.00     0.217 HD
ENDBRANCH  18  22
ENDBRANCH   7  16
TORSDOF 2
ENDMDL
MODEL 8
REMARK VINA RESULT:      -8.9      2.469      4.941
REMARK  2 active torsions:
REMARK  status: ('A' for Active; 'I' for Inactive)
REMARK    1  A    between atoms: C17_20  and  O3_3 
REMARK    2  A    between atoms: C11_14  and  C5_8 
ROOT
HETATM    1  O1  UNK     1      18.005   2.936  33.583  1.00  0.00    -0.308 OA
HETATM    2  O2  UNK     1      19.253   1.160  30.145  1.00  0.00    -0.287 OA
HETATM    3  C1  UNK     1      18.236   3.713  32.471  1.00  0.00     0.101 A 
HETATM    4  C2  UNK     1      18.019   5.106  32.586  1.00  0.00     0.009 A 
HETATM    5  C3  UNK     1      18.667   3.158  31.265  1.00  0.00     0.049 A 
HETATM    6  C4  UNK     1      18.250   5.925  31.454  1.00  0.00    -0.023 A 
HETATM    7  C5  UNK     1      18.211   1.568  33.506  1.00  0.00     0.090 A 
HETATM    8  C6  UNK     1      18.893   3.968  30.155  1.00  0.00     0.019 A 
HETATM    9  C7  UNK     1      18.684   5.344  30.252  1.00  0.00     0.013 A 
HETATM   10  C8  UNK     1      18.880   1.704  31.174  1.00  0.00     0.187 A 
HETATM   11  C9  UNK     1      17.582   5.721  33.779  1.00  0.00     0.015 A 
HETATM   12  C10 UNK     1      18.616   0.927  32.400  1.00  0.00     0.093 A 
HETATM   13  C12 UNK     1      18.042   7.311  31.543  1.00  0.00     0.012 A 
HETATM   14  C13 UNK     1      17.381   7.100  33.850  1.00  0.00     0.001 A 
HETATM   15  C14 UNK     1      17.610   7.895  32.734  1.00  0.00     0.001 A 
ENDROOT
BRANCH   7  16
HETATM   16  C11 UNK     1      17.922   0.848  34.762  1.00  0.00     0.001 A 
HETATM   17  C15 UNK     1      18.103   1.482  35.994  1.00  0.00     0.050 A 
HETATM   18  C17 UNK     1      17.830   0.800  37.180  1.00  0.00     0.066 A 
HETATM   19  C19 UNK     1      17.377  -0.518  37.139  1.00  0.00     0.036 A 
HETATM   20  C18 UNK     1      17.196  -1.155  35.911  1.00  0.00     0.004 A 
HETATM   21  C16 UNK     1      17.468  -0.472  34.725  1.00  0.00     0.014 A 
BRANCH  18  22
HETATM   22  O3  UNK     1      18.006   1.422  38.379  1.00  0.00    -0.361 OA
HETATM   23  H12 UNK     1      17.141   1.717  38.710  1.00  0.00     0.217 HD
ENDBRANCH  18  22
ENDBRANCH   7  16
TORSDOF 2
ENDMDL
MODEL 9
REMARK VINA RESULT:      -8.8     13.755     16.631
REMARK  2 active torsions:
REMARK  status: ('A' for Active; 'I' for Inactive)
REMARK    1  A    between atoms: C17_20  and  O3_3 
REMARK    2  A    between atoms: C11_14  and  C5_8 
ROOT
HETATM    1  O1  UNK     1      20.438  -1.714  17.663  1.00  0.00    -0.308 OA
HETATM    2  O2  UNK     1      17.890  -3.147  14.837  1.00  0.00    -0.287 OA
HETATM    3  C1  UNK     1      20.782  -2.847  16.960  1.00  0.00     0.101 A 
HETATM    4  C2  UNK     1      22.022  -3.455  17.260  1.00  0.00     0.009 A 
HETATM    5  C3  UNK     1      19.945  -3.384  15.979  1.00  0.00     0.049 A 
HETATM    6  C4  UNK     1      22.397  -4.622  16.549  1.00  0.00    -0.023 A 
HETATM    7  C5  UNK     1      19.228  -1.095  17.396  1.00  0.00     0.090 A 
HETATM    8  C6  UNK     1      20.319  -4.531  15.283  1.00  0.00     0.019 A 
HETATM    9  C7  UNK     1      21.539  -5.144  15.568  1.00  0.00     0.013 A 
HETATM   10  C8  UNK     1      18.662  -2.726  15.686  1.00  0.00     0.187 A 
HETATM   11  C9  UNK     1      22.908  -2.955  18.239  1.00  0.00     0.015 A 
HETATM   12  C10 UNK     1      18.351  -1.519  16.473  1.00  0.00     0.093 A 
HETATM   13  C12 UNK     1      23.625  -5.244  16.830  1.00  0.00     0.012 A 
HETATM   14  C13 UNK     1      24.124  -3.586  18.505  1.00  0.00     0.001 A 
HETATM   15  C14 UNK     1      24.483  -4.729  17.801  1.00  0.00     0.001 A 
ENDROOT
BRANCH   7  16
HETATM   16  C11 UNK     1      18.980   0.111  18.211  1.00  0.00     0.001 A 
HETATM   17  C15 UNK     1      19.067   1.380  17.634  1.00  0.00     0.050 A 
HETATM   18  C17 UNK     1      18.833   2.518  18.406  1.00  0.00     0.066 A 
HETATM   19  C19 UNK     1      18.513   2.391  19.758  1.00  0.00     0.036 A 
HETATM   20  C18 UNK     1      18.426   1.126  20.337  1.00  0.00     0.004 A 
HETATM   21  C16 UNK     1      18.659  -0.013  19.565  1.00  0.00     0.014 A 
BRANCH  18  22
HETATM   22  O3  UNK     1      18.917   3.754  17.839  1.00  0.00    -0.361 OA
HETATM   23  H12 UNK     1      19.727   4.190  18.155  1.00  0.00     0.217 HD
ENDBRANCH  18  22
ENDBRANCH   7  16
TORSDOF 2
ENDMDL
MODEL 10
REMARK VINA RESULT:      -8.7      1.379      6.148
REMARK  2 active torsions:
REMARK  status: ('A' for Active; 'I' for Inactive)
REMARK    1  A    between atoms: C17_20  and  O3_3 
REMARK    2  A    between atoms: C11_14  and  C5_8 
ROOT
HETATM    1  O1  UNK     1      18.891   0.048  33.329  1.00  0.00    -0.308 OA
HETATM    2  O2  UNK     1      17.830   3.972  33.377  1.00  0.00    -0.287 OA
HETATM    3  C1  UNK     1      18.483   0.619  34.513  1.00  0.00     0.101 A 
HETATM    4  C2  UNK     1      18.450  -0.204  35.662  1.00  0.00     0.009 A 
HETATM    5  C3  UNK     1      18.109   1.962  34.588  1.00  0.00     0.049 A 
HETATM    6  C4  UNK     1      18.033   0.363  36.892  1.00  0.00    -0.023 A 
HETATM    7  C5  UNK     1      18.938   0.826  32.184  1.00  0.00     0.090 A 
HETATM    8  C6  UNK     1      17.699   2.514  35.800  1.00  0.00     0.019 A 
HETATM    9  C7  UNK     1      17.662   1.716  36.944  1.00  0.00     0.013 A 
HETATM   10  C8  UNK     1      18.149   2.792  33.374  1.00  0.00     0.187 A 
HETATM   11  C9  UNK     1      18.816  -1.567  35.644  1.00  0.00     0.015 A 
HETATM   12  C10 UNK     1      18.596   2.122  32.138  1.00  0.00     0.093 A 
HETATM   13  C12 UNK     1      17.992  -0.434  38.047  1.00  0.00     0.012 A 
HETATM   14  C13 UNK     1      18.769  -2.345  36.802  1.00  0.00     0.001 A 
HETATM   15  C14 UNK     1      18.358  -1.780  38.002  1.00  0.00     0.001 A 
ENDROOT
BRANCH   7  16
HETATM   16  C11 UNK     1      19.386   0.095  30.982  1.00  0.00     0.001 A 
HETATM   17  C15 UNK     1      19.939  -1.183  31.100  1.00  0.00     0.050 A 
HETATM   18  C17 UNK     1      20.361  -1.872  29.963  1.00  0.00     0.066 A 
HETATM   19  C19 UNK     1      20.234  -1.285  28.704  1.00  0.00     0.036 A 
HETATM   20  C18 UNK     1      19.683  -0.010  28.582  1.00  0.00     0.004 A 
HETATM   21  C16 UNK     1      19.259   0.679  29.719  1.00  0.00     0.014 A 
BRANCH  18  22
HETATM   22  O3  UNK     1      20.898  -3.117  30.083  1.00  0.00    -0.361 OA
HETATM   23  H12 UNK     1      20.231  -3.774  29.820  1.00  0.00     0.217 HD
ENDBRANCH  18  22
ENDBRANCH   7  16
TORSDOF 2
ENDMDL
