MODEL 1
REMARK VINA RESULT:      -9.9      0.000      0.000
REMARK  5 active torsions:
REMARK  status: ('A' for Active; 'I' for Inactive)
REMARK    1  A    between atoms: C12_21  and  O1_2 
REMARK    2  A    between atoms: C9_18  and  O1_2 
REMARK    3  A    between atoms: C17_26  and  N1_8 
REMARK    4  A    between atoms: C20_29  and  N2_9 
REMARK    5  A    between atoms: C5_14  and  C6_15 
ROOT
HETATM    1  C5  UNK     1      18.693   5.122  32.034  1.00  0.00    -0.035 A 
HETATM    2  C9  UNK     1      18.515   2.622  30.855  1.00  0.00     0.076 A 
HETATM    3  C10 UNK     1      18.218   4.054  32.778  1.00  0.00     0.014 A 
HETATM    4  C11 UNK     1      19.080   4.967  30.714  1.00  0.00     0.014 A 
HETATM    5  C13 UNK     1      18.129   2.796  32.184  1.00  0.00     0.038 A 
HETATM    6  C14 UNK     1      18.991   3.708  30.119  1.00  0.00     0.038 A 
ENDROOT
BRANCH   2   7
HETATM    7  O1  UNK     1      18.429   1.394  30.275  1.00  0.00    -0.308 OA
BRANCH   7   8
HETATM    8  C12 UNK     1      19.005   0.326  30.942  1.00  0.00     0.109 A 
HETATM    9  C17 UNK     1      19.866  -0.530  30.278  1.00  0.00     0.139 A 
HETATM   10  C19 UNK     1      20.434  -1.598  30.973  1.00  0.00     0.075 A 
HETATM   11  C20 UNK     1      20.131  -1.795  32.320  1.00  0.00     0.105 A 
HETATM   12  C21 UNK     1      19.261  -0.923  32.973  1.00  0.00     0.039 A 
HETATM   13  C18 UNK     1      18.693   0.146  32.280  1.00  0.00     0.042 A 
BRANCH   9  14
HETATM   14  N1  UNK     1      20.186  -0.345  28.906  1.00  0.00    -0.113 N 
HETATM   15  O3  UNK     1      21.391  -0.308  28.563  1.00  0.00    -0.532 OA
HETATM   16  O4  UNK     1      19.252  -0.224  28.077  1.00  0.00    -0.532 OA
ENDBRANCH   9  14
BRANCH  11  17
HETATM   17  N2  UNK     1      20.709  -2.882  33.027  1.00  0.00    -0.116 N 
HETATM   18  O5  UNK     1      20.536  -2.961  34.267  1.00  0.00    -0.532 OA
HETATM   19  O6  UNK     1      21.377  -3.734  32.393  1.00  0.00    -0.532 OA
ENDBRANCH  11  17
ENDBRANCH   7   8
ENDBRANCH   2   7
BRANCH   1  20
HETATM   20  C6  UNK     1      18.788   6.453  32.661  1.00  0.00     0.034 C 
HETATM   21  C2  UNK     1      17.771   7.288  32.882  1.00  0.00     0.057 A 
HETATM   22  S1  UNK     1      16.118   6.972  32.469  1.00  0.00    -0.086 SA
HETATM   23  C4  UNK     1      17.950   8.618  33.523  1.00  0.00     0.200 A 
HETATM   24  C3  UNK     1      15.606   8.544  33.110  1.00  0.00     0.020 A 
HETATM   25  C1  UNK     1      16.654   9.301  33.629  1.00  0.00     0.032 A 
HETATM   26  C8  UNK     1      14.311   9.043  33.132  1.00  0.00     0.020 A 
HETATM   27  C7  UNK     1      16.451  10.559  34.177  1.00  0.00     0.017 A 
HETATM   28  C15 UNK     1      15.150  11.062  34.200  1.00  0.00     0.001 A 
HETATM   29  C16 UNK     1      14.087  10.309  33.681  1.00  0.00     0.001 A 
HETATM   30  O2  UNK     1      19.004   9.090  33.909  1.00  0.00    -0.286 OA
ENDBRANCH   1  20
TORSDOF 5
ENDMDL
MODEL 2
REMARK VINA RESULT:      -9.8      6.621      9.870
REMARK  5 active torsions:
REMARK  status: ('A' for Active; 'I' for Inactive)
REMARK    1  A    between atoms: C12_21  and  O1_2 
REMARK    2  A    between atoms: C9_18  and  O1_2 
REMARK    3  A    between atoms: C17_26  and  N1_8 
REMARK    4  A    between atoms: C20_29  and  N2_9 
REMARK    5  A    between atoms: C5_14  and  C6_15 
ROOT
HETATM    1  C5  UNK     1      19.321  -2.201  35.722  1.00  0.00    -0.035 A 
HETATM    2  C9  UNK     1      20.020  -4.365  37.303  1.00  0.00     0.076 A 
HETATM    3  C10 UNK     1      20.654  -2.406  36.039  1.00  0.00     0.014 A 
HETATM    4  C11 UNK     1      18.330  -3.054  36.178  1.00  0.00     0.014 A 
HETATM    5  C13 UNK     1      21.005  -3.495  36.835  1.00  0.00     0.038 A 
HETATM    6  C14 UNK     1      18.681  -4.143  36.974  1.00  0.00     0.038 A 
ENDROOT
BRANCH   2   7
HETATM    7  O1  UNK     1      20.362  -5.428  38.080  1.00  0.00    -0.308 OA
BRANCH   7   8
HETATM    8  C12 UNK     1      20.841  -6.561  37.444  1.00  0.00     0.109 A 
HETATM    9  C17 UNK     1      22.017  -7.155  37.867  1.00  0.00     0.139 A 
HETATM   10  C19 UNK     1      22.478  -8.296  37.210  1.00  0.00     0.075 A 
HETATM   11  C20 UNK     1      21.758  -8.824  36.139  1.00  0.00     0.105 A 
HETATM   12  C21 UNK     1      20.574  -8.212  35.726  1.00  0.00     0.039 A 
HETATM   13  C18 UNK     1      20.112  -7.072  36.383  1.00  0.00     0.042 A 
BRANCH   9  14
HETATM   14  N1  UNK     1      22.765  -6.631  38.956  1.00  0.00    -0.113 N 
HETATM   15  O3  UNK     1      22.686  -7.194  40.073  1.00  0.00    -0.532 OA
HETATM   16  O4  UNK     1      23.481  -5.619  38.767  1.00  0.00    -0.532 OA
ENDBRANCH   9  14
BRANCH  11  17
HETATM   17  N2  UNK     1      22.226  -9.986  35.470  1.00  0.00    -0.116 N 
HETATM   18  O5  UNK     1      21.781 -10.251  34.327  1.00  0.00    -0.532 OA
HETATM   19  O6  UNK     1      23.073 -10.715  36.039  1.00  0.00    -0.532 OA
ENDBRANCH  11  17
ENDBRANCH   7   8
ENDBRANCH   2   7
BRANCH   1  20
HETATM   20  C6  UNK     1      18.949  -1.049  34.879  1.00  0.00     0.034 C 
HETATM   21  C2  UNK     1      19.204  -0.918  33.577  1.00  0.00     0.057 A 
HETATM   22  S1  UNK     1      20.033  -2.087  32.603  1.00  0.00    -0.086 SA
HETATM   23  C4  UNK     1      18.794   0.280  32.796  1.00  0.00     0.200 A 
HETATM   24  C3  UNK     1      19.877  -1.069  31.159  1.00  0.00     0.020 A 
HETATM   25  C1  UNK     1      19.213   0.133  31.396  1.00  0.00     0.032 A 
HETATM   26  C8  UNK     1      20.340  -1.369  29.886  1.00  0.00     0.020 A 
HETATM   27  C7  UNK     1      18.992   1.060  30.389  1.00  0.00     0.017 A 
HETATM   28  C15 UNK     1      19.457   0.762  29.108  1.00  0.00     0.001 A 
HETATM   29  C16 UNK     1      20.127  -0.445  28.858  1.00  0.00     0.001 A 
HETATM   30  O2  UNK     1      18.200   1.249  33.232  1.00  0.00    -0.286 OA
ENDBRANCH   1  20
TORSDOF 5
ENDMDL
MODEL 3
REMARK VINA RESULT:      -9.7      1.986      3.358
REMARK  5 active torsions:
REMARK  status: ('A' for Active; 'I' for Inactive)
REMARK    1  A    between atoms: C12_21  and  O1_2 
REMARK    2  A    between atoms: C9_18  and  O1_2 
REMARK    3  A    between atoms: C17_26  and  N1_8 
REMARK    4  A    between atoms: C20_29  and  N2_9 
REMARK    5  A    between atoms: C5_14  and  C6_15 
ROOT
HETATM    1  C5  UNK     1      19.131   6.111  33.200  1.00  0.00    -0.035 A 
HETATM    2  C9  UNK     1      18.061   3.680  32.418  1.00  0.00     0.076 A 
HETATM    3  C10 UNK     1      18.959   5.850  31.851  1.00  0.00     0.014 A 
HETATM    4  C11 UNK     1      18.780   5.184  34.167  1.00  0.00     0.014 A 
HETATM    5  C13 UNK     1      18.420   4.625  31.458  1.00  0.00     0.038 A 
HETATM    6  C14 UNK     1      18.241   3.959  33.774  1.00  0.00     0.038 A 
ENDROOT
BRANCH   2   7
HETATM    7  O1  UNK     1      17.533   2.485  32.035  1.00  0.00    -0.308 OA
BRANCH   7   8
HETATM    8  C12 UNK     1      18.366   1.596  31.377  1.00  0.00     0.109 A 
HETATM    9  C17 UNK     1      18.814   0.454  32.017  1.00  0.00     0.139 A 
HETATM   10  C19 UNK     1      19.652  -0.427  31.333  1.00  0.00     0.075 A 
HETATM   11  C20 UNK     1      20.030  -0.151  30.019  1.00  0.00     0.105 A 
HETATM   12  C21 UNK     1      19.569   1.005  29.389  1.00  0.00     0.039 A 
HETATM   13  C18 UNK     1      18.731   1.885  30.072  1.00  0.00     0.042 A 
BRANCH   9  14
HETATM   14  N1  UNK     1      18.439   0.157  33.356  1.00  0.00    -0.113 N 
HETATM   15  O3  UNK     1      17.515  -0.664  33.559  1.00  0.00    -0.532 OA
HETATM   16  O4  UNK     1      19.045   0.727  34.295  1.00  0.00    -0.532 OA
ENDBRANCH   9  14
BRANCH  11  17
HETATM   17  N2  UNK     1      20.882  -1.047  29.321  1.00  0.00    -0.116 N 
HETATM   18  O5  UNK     1      21.581  -0.610  28.375  1.00  0.00    -0.532 OA
HETATM   19  O6  UNK     1      20.915  -2.252  29.670  1.00  0.00    -0.532 OA
ENDBRANCH  11  17
ENDBRANCH   7   8
ENDBRANCH   2   7
BRANCH   1  20
HETATM   20  C6  UNK     1      19.702   7.405  33.617  1.00  0.00     0.034 C 
HETATM   21  C2  UNK     1      19.021   8.538  33.801  1.00  0.00     0.057 A 
HETATM   22  S1  UNK     1      17.311   8.715  33.582  1.00  0.00    -0.086 SA
HETATM   23  C4  UNK     1      19.673   9.806  34.223  1.00  0.00     0.200 A 
HETATM   24  C3  UNK     1      17.383  10.431  34.029  1.00  0.00     0.020 A 
HETATM   25  C1  UNK     1      18.668  10.871  34.340  1.00  0.00     0.032 A 
HETATM   26  C8  UNK     1      16.312  11.311  34.090  1.00  0.00     0.020 A 
HETATM   27  C7  UNK     1      18.925  12.181  34.715  1.00  0.00     0.017 A 
HETATM   28  C15 UNK     1      17.850  13.069  34.776  1.00  0.00     0.001 A 
HETATM   29  C16 UNK     1      16.552  12.637  34.466  1.00  0.00     0.001 A 
HETATM   30  O2  UNK     1      20.860   9.961  34.444  1.00  0.00    -0.286 OA
ENDBRANCH   1  20
TORSDOF 5
ENDMDL
MODEL 4
REMARK VINA RESULT:      -9.6     15.631     17.738
REMARK  5 active torsions:
REMARK  status: ('A' for Active; 'I' for Inactive)
REMARK    1  A    between atoms: C12_21  and  O1_2 
REMARK    2  A    between atoms: C9_18  and  O1_2 
REMARK    3  A    between atoms: C17_26  and  N1_8 
REMARK    4  A    between atoms: C20_29  and  N2_9 
REMARK    5  A    between atoms: C5_14  and  C6_15 
ROOT
HETATM    1  C5  UNK     1      28.964  -9.219  33.919  1.00  0.00    -0.035 A 
HETATM    2  C9  UNK     1      30.414 -10.102  31.731  1.00  0.00     0.076 A 
HETATM    3  C10 UNK     1      29.890 -10.235  34.086  1.00  0.00     0.014 A 
HETATM    4  C11 UNK     1      28.747  -8.634  32.683  1.00  0.00     0.014 A 
HETATM    5  C13 UNK     1      30.619 -10.680  32.984  1.00  0.00     0.038 A 
HETATM    6  C14 UNK     1      29.477  -9.079  31.581  1.00  0.00     0.038 A 
ENDROOT
BRANCH   2   7
HETATM    7  O1  UNK     1      31.127 -10.535  30.656  1.00  0.00    -0.308 OA
BRANCH   7   8
HETATM    8  C12 UNK     1      32.159  -9.732  30.203  1.00  0.00     0.109 A 
HETATM    9  C17 UNK     1      32.034  -9.038  29.013  1.00  0.00     0.139 A 
HETATM   10  C19 UNK     1      33.089  -8.234  28.578  1.00  0.00     0.075 A 
HETATM   11  C20 UNK     1      34.254  -8.139  29.340  1.00  0.00     0.105 A 
HETATM   12  C21 UNK     1      34.363  -8.847  30.537  1.00  0.00     0.039 A 
HETATM   13  C18 UNK     1      33.309  -9.649  30.972  1.00  0.00     0.042 A 
BRANCH   9  14
HETATM   14  N1  UNK     1      30.855  -9.123  28.223  1.00  0.00    -0.113 N 
HETATM   15  O3  UNK     1      30.778 -10.010  27.341  1.00  0.00    -0.532 OA
HETATM   16  O4  UNK     1      29.926  -8.306  28.432  1.00  0.00    -0.532 OA
ENDBRANCH   9  14
BRANCH  11  17
HETATM   17  N2  UNK     1      35.327  -7.322  28.899  1.00  0.00    -0.116 N 
HETATM   18  O5  UNK     1      36.093  -7.754  28.005  1.00  0.00    -0.532 OA
HETATM   19  O6  UNK     1      35.480  -6.189  29.415  1.00  0.00    -0.532 OA
ENDBRANCH  11  17
ENDBRANCH   7   8
ENDBRANCH   2   7
BRANCH   1  20
HETATM   20  C6  UNK     1      28.192  -8.748  35.084  1.00  0.00     0.034 C 
HETATM   21  C2  UNK     1      28.526  -7.737  35.888  1.00  0.00     0.057 A 
HETATM   22  S1  UNK     1      29.950  -6.765  35.721  1.00  0.00    -0.086 SA
HETATM   23  C4  UNK     1      27.690  -7.323  37.046  1.00  0.00     0.200 A 
HETATM   24  C3  UNK     1      29.513  -5.794  37.140  1.00  0.00     0.020 A 
HETATM   25  C1  UNK     1      28.316  -6.187  37.735  1.00  0.00     0.032 A 
HETATM   26  C8  UNK     1      30.235  -4.732  37.666  1.00  0.00     0.020 A 
HETATM   27  C7  UNK     1      27.807  -5.546  38.854  1.00  0.00     0.017 A 
HETATM   28  C15 UNK     1      28.531  -4.478  39.385  1.00  0.00     0.001 A 
HETATM   29  C16 UNK     1      29.737  -4.074  38.795  1.00  0.00     0.001 A 
HETATM   30  O2  UNK     1      26.641  -7.836  37.390  1.00  0.00    -0.286 OA
ENDBRANCH   1  20
TORSDOF 5
ENDMDL
MODEL 5
REMARK VINA RESULT:      -9.5     14.603     16.558
REMARK  5 active torsions:
REMARK  status: ('A' for Active; 'I' for Inactive)
REMARK    1  A    between atoms: C12_21  and  O1_2 
REMARK    2  A    between atoms: C9_18  and  O1_2 
REMARK    3  A    between atoms: C17_26  and  N1_8 
REMARK    4  A    between atoms: C20_29  and  N2_9 
REMARK    5  A    between atoms: C5_14  and  C6_15 
ROOT
HETATM    1  C5  UNK     1      26.214  -8.757  37.507  1.00  0.00    -0.035 A 
HETATM    2  C9  UNK     1      28.433  -7.534  38.626  1.00  0.00     0.076 A 
HETATM    3  C10 UNK     1      26.515  -8.987  38.839  1.00  0.00     0.014 A 
HETATM    4  C11 UNK     1      26.999  -7.929  36.722  1.00  0.00     0.014 A 
HETATM    5  C13 UNK     1      27.632  -8.371  39.402  1.00  0.00     0.038 A 
HETATM    6  C14 UNK     1      28.116  -7.313  37.284  1.00  0.00     0.038 A 
ENDROOT
BRANCH   2   7
HETATM    7  O1  UNK     1      29.523  -6.932  39.175  1.00  0.00    -0.308 OA
BRANCH   7   8
HETATM    8  C12 UNK     1      30.300  -6.133  38.352  1.00  0.00     0.109 A 
HETATM    9  C17 UNK     1      30.127  -4.761  38.346  1.00  0.00     0.139 A 
HETATM   10  C19 UNK     1      30.922  -3.978  37.509  1.00  0.00     0.075 A 
HETATM   11  C20 UNK     1      31.877  -4.580  36.689  1.00  0.00     0.105 A 
HETATM   12  C21 UNK     1      32.037  -5.966  36.708  1.00  0.00     0.039 A 
HETATM   13  C18 UNK     1      31.243  -6.749  37.546  1.00  0.00     0.042 A 
BRANCH   9  14
HETATM   14  N1  UNK     1      29.159  -4.130  39.174  1.00  0.00    -0.113 N 
HETATM   15  O3  UNK     1      27.952  -4.171  38.836  1.00  0.00    -0.532 OA
HETATM   16  O4  UNK     1      29.540  -3.549  40.218  1.00  0.00    -0.532 OA
ENDBRANCH   9  14
BRANCH  11  17
HETATM   17  N2  UNK     1      32.687  -3.784  35.837  1.00  0.00    -0.116 N 
HETATM   18  O5  UNK     1      33.206  -4.312  34.824  1.00  0.00    -0.532 OA
HETATM   19  O6  UNK     1      32.861  -2.574  36.120  1.00  0.00    -0.532 OA
ENDBRANCH  11  17
ENDBRANCH   7   8
ENDBRANCH   2   7
BRANCH   1  20
HETATM   20  C6  UNK     1      25.033  -9.408  36.911  1.00  0.00     0.034 C 
HETATM   21  C2  UNK     1      23.761  -9.171  37.238  1.00  0.00     0.057 A 
HETATM   22  S1  UNK     1      23.238  -8.039  38.441  1.00  0.00    -0.086 SA
HETATM   23  C4  UNK     1      22.622  -9.873  36.587  1.00  0.00     0.200 A 
HETATM   24  C3  UNK     1      21.535  -8.435  38.143  1.00  0.00     0.020 A 
HETATM   25  C1  UNK     1      21.353  -9.401  37.155  1.00  0.00     0.032 A 
HETATM   26  C8  UNK     1      20.436  -7.881  38.784  1.00  0.00     0.020 A 
HETATM   27  C7  UNK     1      20.092  -9.840  36.780  1.00  0.00     0.017 A 
HETATM   28  C15 UNK     1      18.986  -9.284  37.424  1.00  0.00     0.001 A 
HETATM   29  C16 UNK     1      19.157  -8.311  38.419  1.00  0.00     0.001 A 
HETATM   30  O2  UNK     1      22.707 -10.716  35.713  1.00  0.00    -0.286 OA
ENDBRANCH   1  20
TORSDOF 5
ENDMDL
MODEL 6
REMARK VINA RESULT:      -9.5      4.264     10.531
REMARK  5 active torsions:
REMARK  status: ('A' for Active; 'I' for Inactive)
REMARK    1  A    between atoms: C12_21  and  O1_2 
REMARK    2  A    between atoms: C9_18  and  O1_2 
REMARK    3  A    between atoms: C17_26  and  N1_8 
REMARK    4  A    between atoms: C20_29  and  N2_9 
REMARK    5  A    between atoms: C5_14  and  C6_15 
ROOT
HETATM    1  C5  UNK     1      18.073   4.604  33.096  1.00  0.00    -0.035 A 
HETATM    2  C9  UNK     1      17.668   7.318  32.718  1.00  0.00     0.076 A 
HETATM    3  C10 UNK     1      17.152   5.027  32.151  1.00  0.00     0.014 A 
HETATM    4  C11 UNK     1      18.795   5.509  33.856  1.00  0.00     0.014 A 
HETATM    5  C13 UNK     1      16.949   6.393  31.962  1.00  0.00     0.038 A 
HETATM    6  C14 UNK     1      18.592   6.875  33.666  1.00  0.00     0.038 A 
ENDROOT
BRANCH   2   7
HETATM    7  O1  UNK     1      17.471   8.652  32.532  1.00  0.00    -0.308 OA
BRANCH   7   8
HETATM    8  C12 UNK     1      16.632   9.308  33.417  1.00  0.00     0.109 A 
HETATM    9  C17 UNK     1      17.069  10.435  34.089  1.00  0.00     0.139 A 
HETATM   10  C19 UNK     1      16.204  11.078  34.975  1.00  0.00     0.075 A 
HETATM   11  C20 UNK     1      14.916  10.582  35.177  1.00  0.00     0.105 A 
HETATM   12  C21 UNK     1      14.492   9.444  34.490  1.00  0.00     0.039 A 
HETATM   13  C18 UNK     1      15.356   8.802  33.604  1.00  0.00     0.042 A 
BRANCH   9  14
HETATM   14  N1  UNK     1      18.379  10.954  33.897  1.00  0.00    -0.113 N 
HETATM   15  O3  UNK     1      19.360  10.291  34.308  1.00  0.00    -0.532 OA
HETATM   16  O4  UNK     1      18.513  12.061  33.323  1.00  0.00    -0.532 OA
ENDBRANCH   9  14
BRANCH  11  17
HETATM   17  N2  UNK     1      14.035  11.236  36.078  1.00  0.00    -0.116 N 
HETATM   18  O5  UNK     1      14.140  11.005  37.306  1.00  0.00    -0.532 OA
HETATM   19  O6  UNK     1      13.176  12.029  35.621  1.00  0.00    -0.532 OA
ENDBRANCH  11  17
ENDBRANCH   7   8
ENDBRANCH   2   7
BRANCH   1  20
HETATM   20  C6  UNK     1      18.288   3.160  33.298  1.00  0.00     0.034 C 
HETATM   21  C2  UNK     1      18.669   2.287  32.363  1.00  0.00     0.057 A 
HETATM   22  S1  UNK     1      18.989   2.683  30.707  1.00  0.00    -0.086 SA
HETATM   23  C4  UNK     1      18.865   0.841  32.648  1.00  0.00     0.200 A 
HETATM   24  C3  UNK     1      19.386   0.995  30.329  1.00  0.00     0.020 A 
HETATM   25  C1  UNK     1      19.282   0.142  31.426  1.00  0.00     0.032 A 
HETATM   26  C8  UNK     1      19.771   0.496  29.093  1.00  0.00     0.020 A 
HETATM   27  C7  UNK     1      19.555  -1.215  31.329  1.00  0.00     0.017 A 
HETATM   28  C15 UNK     1      19.942  -1.719  30.087  1.00  0.00     0.001 A 
HETATM   29  C16 UNK     1      20.050  -0.869  28.976  1.00  0.00     0.001 A 
HETATM   30  O2  UNK     1      18.707   0.296  33.725  1.00  0.00    -0.286 OA
ENDBRANCH   1  20
TORSDOF 5
ENDMDL
MODEL 7
REMARK VINA RESULT:      -9.5      7.362     11.049
REMARK  5 active torsions:
REMARK  status: ('A' for Active; 'I' for Inactive)
REMARK    1  A    between atoms: C12_21  and  O1_2 
REMARK    2  A    between atoms: C9_18  and  O1_2 
REMARK    3  A    between atoms: C17_26  and  N1_8 
REMARK    4  A    between atoms: C20_29  and  N2_9 
REMARK    5  A    between atoms: C5_14  and  C6_15 
ROOT
HETATM    1  C5  UNK     1      20.113  -4.614  36.062  1.00  0.00    -0.035 A 
HETATM    2  C9  UNK     1      20.549  -6.997  37.404  1.00  0.00     0.076 A 
HETATM    3  C10 UNK     1      19.707  -5.803  35.480  1.00  0.00     0.014 A 
HETATM    4  C11 UNK     1      20.733  -4.590  37.301  1.00  0.00     0.014 A 
HETATM    5  C13 UNK     1      19.927  -7.003  36.156  1.00  0.00     0.038 A 
HETATM    6  C14 UNK     1      20.952  -5.790  37.977  1.00  0.00     0.038 A 
ENDROOT
BRANCH   2   7
HETATM    7  O1  UNK     1      20.762  -8.168  38.064  1.00  0.00    -0.308 OA
BRANCH   7   8
HETATM    8  C12 UNK     1      21.616  -9.090  37.481  1.00  0.00     0.109 A 
HETATM    9  C17 UNK     1      21.155 -10.346  37.133  1.00  0.00     0.139 A 
HETATM   10  C19 UNK     1      22.034 -11.256  36.546  1.00  0.00     0.075 A 
HETATM   11  C20 UNK     1      23.362 -10.896  36.318  1.00  0.00     0.105 A 
HETATM   12  C21 UNK     1      23.810  -9.624  36.676  1.00  0.00     0.039 A 
HETATM   13  C18 UNK     1      22.931  -8.714  37.262  1.00  0.00     0.042 A 
BRANCH   9  14
HETATM   14  N1  UNK     1      19.805 -10.732  37.358  1.00  0.00    -0.113 N 
HETATM   15  O3  UNK     1      18.900 -10.201  36.672  1.00  0.00    -0.532 OA
HETATM   16  O4  UNK     1      19.559 -11.591  38.238  1.00  0.00    -0.532 OA
ENDBRANCH   9  14
BRANCH  11  17
HETATM   17  N2  UNK     1      24.259 -11.821  35.721  1.00  0.00    -0.116 N 
HETATM   18  O5  UNK     1      23.809 -12.667  34.911  1.00  0.00    -0.532 OA
HETATM   19  O6  UNK     1      25.476 -11.766  36.018  1.00  0.00    -0.532 OA
ENDBRANCH  11  17
ENDBRANCH   7   8
ENDBRANCH   2   7
BRANCH   1  20
HETATM   20  C6  UNK     1      19.882  -3.345  35.348  1.00  0.00     0.034 C 
HETATM   21  C2  UNK     1      19.298  -2.257  35.855  1.00  0.00     0.057 A 
HETATM   22  S1  UNK     1      18.689  -2.118  37.471  1.00  0.00    -0.086 SA
HETATM   23  C4  UNK     1      19.102  -1.011  35.066  1.00  0.00     0.200 A 
HETATM   24  C3  UNK     1      18.161  -0.450  37.180  1.00  0.00     0.020 A 
HETATM   25  C1  UNK     1      18.435   0.004  35.892  1.00  0.00     0.032 A 
HETATM   26  C8  UNK     1      17.533   0.386  38.093  1.00  0.00     0.020 A 
HETATM   27  C7  UNK     1      18.100   1.284  35.476  1.00  0.00     0.017 A 
HETATM   28  C15 UNK     1      17.468   2.126  36.392  1.00  0.00     0.001 A 
HETATM   29  C16 UNK     1      17.187   1.681  37.692  1.00  0.00     0.001 A 
HETATM   30  O2  UNK     1      19.435  -0.838  33.908  1.00  0.00    -0.286 OA
ENDBRANCH   1  20
TORSDOF 5
ENDMDL
MODEL 8
REMARK VINA RESULT:      -9.4      5.456     11.195
REMARK  5 active torsions:
REMARK  status: ('A' for Active; 'I' for Inactive)
REMARK    1  A    between atoms: C12_21  and  O1_2 
REMARK    2  A    between atoms: C9_18  and  O1_2 
REMARK    3  A    between atoms: C17_26  and  N1_8 
REMARK    4  A    between atoms: C20_29  and  N2_9 
REMARK    5  A    between atoms: C5_14  and  C6_15 
ROOT
HETATM    1  C5  UNK     1      20.109  -2.506  35.609  1.00  0.00    -0.035 A 
HETATM    2  C9  UNK     1      18.688  -0.888  33.868  1.00  0.00     0.076 A 
HETATM    3  C10 UNK     1      20.439  -2.504  34.264  1.00  0.00     0.014 A 
HETATM    4  C11 UNK     1      19.083  -1.717  36.103  1.00  0.00     0.014 A 
HETATM    5  C13 UNK     1      19.724  -1.689  33.388  1.00  0.00     0.038 A 
HETATM    6  C14 UNK     1      18.367  -0.902  35.226  1.00  0.00     0.038 A 
ENDROOT
BRANCH   2   7
HETATM    7  O1  UNK     1      17.990  -0.091  33.013  1.00  0.00    -0.308 OA
BRANCH   7   8
HETATM    8  C12 UNK     1      18.122   1.279  33.158  1.00  0.00     0.109 A 
HETATM    9  C17 UNK     1      18.354   2.079  32.053  1.00  0.00     0.139 A 
HETATM   10  C19 UNK     1      18.482   3.458  32.226  1.00  0.00     0.075 A 
HETATM   11  C20 UNK     1      18.379   4.015  33.500  1.00  0.00     0.105 A 
HETATM   12  C21 UNK     1      18.145   3.193  34.603  1.00  0.00     0.039 A 
HETATM   13  C18 UNK     1      18.015   1.815  34.431  1.00  0.00     0.042 A 
BRANCH   9  14
HETATM   14  N1  UNK     1      18.463   1.530  30.747  1.00  0.00    -0.113 N 
HETATM   15  O3  UNK     1      19.449   0.806  30.474  1.00  0.00    -0.532 OA
HETATM   16  O4  UNK     1      17.569   1.786  29.905  1.00  0.00    -0.532 OA
ENDBRANCH   9  14
BRANCH  11  17
HETATM   17  N2  UNK     1      18.509   5.418  33.677  1.00  0.00    -0.116 N 
HETATM   18  O5  UNK     1      17.493   6.143  33.553  1.00  0.00    -0.532 OA
HETATM   19  O6  UNK     1      19.637   5.893  33.952  1.00  0.00    -0.532 OA
ENDBRANCH  11  17
ENDBRANCH   7   8
ENDBRANCH   2   7
BRANCH   1  20
HETATM   20  C6  UNK     1      20.865  -3.368  36.537  1.00  0.00     0.034 C 
HETATM   21  C2  UNK     1      20.494  -4.578  36.958  1.00  0.00     0.057 A 
HETATM   22  S1  UNK     1      19.034  -5.387  36.495  1.00  0.00    -0.086 SA
HETATM   23  C4  UNK     1      21.317  -5.387  37.897  1.00  0.00     0.200 A 
HETATM   24  C3  UNK     1      19.437  -6.794  37.498  1.00  0.00     0.020 A 
HETATM   25  C1  UNK     1      20.649  -6.665  38.173  1.00  0.00     0.032 A 
HETATM   26  C8  UNK     1      18.677  -7.945  37.647  1.00  0.00     0.020 A 
HETATM   27  C7  UNK     1      21.136  -7.663  39.005  1.00  0.00     0.017 A 
HETATM   28  C15 UNK     1      20.373  -8.821  39.156  1.00  0.00     0.001 A 
HETATM   29  C16 UNK     1      19.151  -8.961  38.482  1.00  0.00     0.001 A 
HETATM   30  O2  UNK     1      22.385  -5.057  38.378  1.00  0.00    -0.286 OA
ENDBRANCH   1  20
TORSDOF 5
ENDMDL
MODEL 9
REMARK VINA RESULT:      -9.4     10.631     15.677
REMARK  5 active torsions:
REMARK  status: ('A' for Active; 'I' for Inactive)
REMARK    1  A    between atoms: C12_21  and  O1_2 
REMARK    2  A    between atoms: C9_18  and  O1_2 
REMARK    3  A    between atoms: C17_26  and  N1_8 
REMARK    4  A    between atoms: C20_29  and  N2_9 
REMARK    5  A    between atoms: C5_14  and  C6_15 
ROOT
HETATM    1  C5  UNK     1      25.539  -8.752  38.091  1.00  0.00    -0.035 A 
HETATM    2  C9  UNK     1      22.821  -8.220  38.100  1.00  0.00     0.076 A 
HETATM    3  C10 UNK     1      24.759  -9.195  37.036  1.00  0.00     0.014 A 
HETATM    4  C11 UNK     1      24.991  -8.050  39.151  1.00  0.00     0.014 A 
HETATM    5  C13 UNK     1      23.390  -8.927  37.041  1.00  0.00     0.038 A 
HETATM    6  C14 UNK     1      23.622  -7.782  39.156  1.00  0.00     0.038 A 
ENDROOT
BRANCH   2   7
HETATM    7  O1  UNK     1      21.486  -7.958  38.105  1.00  0.00    -0.308 OA
BRANCH   7   8
HETATM    8  C12 UNK     1      21.060  -6.777  37.521  1.00  0.00     0.109 A 
HETATM    9  C17 UNK     1      20.319  -6.802  36.354  1.00  0.00     0.139 A 
HETATM   10  C19 UNK     1      19.902  -5.598  35.786  1.00  0.00     0.075 A 
HETATM   11  C20 UNK     1      20.234  -4.387  36.393  1.00  0.00     0.105 A 
HETATM   12  C21 UNK     1      20.983  -4.381  37.570  1.00  0.00     0.039 A 
HETATM   13  C18 UNK     1      21.399  -5.584  38.139  1.00  0.00     0.042 A 
BRANCH   9  14
HETATM   14  N1  UNK     1      19.972  -8.026  35.720  1.00  0.00    -0.113 N 
HETATM   15  O3  UNK     1      18.931  -8.623  36.084  1.00  0.00    -0.532 OA
HETATM   16  O4  UNK     1      20.717  -8.473  34.816  1.00  0.00    -0.532 OA
ENDBRANCH   9  14
BRANCH  11  17
HETATM   17  N2  UNK     1      19.809  -3.161  35.816  1.00  0.00    -0.116 N 
HETATM   18  O5  UNK     1      18.944  -2.476  36.412  1.00  0.00    -0.532 OA
HETATM   19  O6  UNK     1      20.312  -2.796  34.726  1.00  0.00    -0.532 OA
ENDBRANCH  11  17
ENDBRANCH   7   8
ENDBRANCH   2   7
BRANCH   1  20
HETATM   20  C6  UNK     1      26.986  -9.035  38.086  1.00  0.00     0.034 C 
HETATM   21  C2  UNK     1      27.961  -8.128  38.158  1.00  0.00     0.057 A 
HETATM   22  S1  UNK     1      27.719  -6.416  38.272  1.00  0.00    -0.086 SA
HETATM   23  C4  UNK     1      29.402  -8.496  38.148  1.00  0.00     0.200 A 
HETATM   24  C3  UNK     1      29.468  -6.121  38.309  1.00  0.00     0.020 A 
HETATM   25  C1  UNK     1      30.229  -7.286  38.239  1.00  0.00     0.032 A 
HETATM   26  C8  UNK     1      30.093  -4.886  38.401  1.00  0.00     0.020 A 
HETATM   27  C7  UNK     1      31.616  -7.259  38.257  1.00  0.00     0.017 A 
HETATM   28  C15 UNK     1      32.247  -6.018  38.349  1.00  0.00     0.001 A 
HETATM   29  C16 UNK     1      31.491  -4.839  38.420  1.00  0.00     0.001 A 
HETATM   30  O2  UNK     1      29.851  -9.625  38.074  1.00  0.00    -0.286 OA
ENDBRANCH   1  20
TORSDOF 5
ENDMDL
MODEL 10
REMARK VINA RESULT:      -9.3     23.015     24.994
REMARK  5 active torsions:
REMARK  status: ('A' for Active; 'I' for Inactive)
REMARK    1  A    between atoms: C12_21  and  O1_2 
REMARK    2  A    between atoms: C9_18  and  O1_2 
REMARK    3  A    between atoms: C17_26  and  N1_8 
REMARK    4  A    between atoms: C20_29  and  N2_9 
REMARK    5  A    between atoms: C5_14  and  C6_15 
ROOT
HETATM    1  C5  UNK     1      17.248  10.785  10.175  1.00  0.00    -0.035 A 
HETATM    2  C9  UNK     1      15.521   8.677  10.669  1.00  0.00     0.076 A 
HETATM    3  C10 UNK     1      17.525   9.541   9.631  1.00  0.00     0.014 A 
HETATM    4  C11 UNK     1      16.128  10.998  10.960  1.00  0.00     0.014 A 
HETATM    5  C13 UNK     1      16.655   8.480   9.881  1.00  0.00     0.038 A 
HETATM    6  C14 UNK     1      15.258   9.936  11.209  1.00  0.00     0.038 A 
ENDROOT
BRANCH   2   7
HETATM    7  O1  UNK     1      14.671   7.642  10.911  1.00  0.00    -0.308 OA
BRANCH   7   8
HETATM    8  C12 UNK     1      13.847   7.230   9.877  1.00  0.00     0.109 A 
HETATM    9  C17 UNK     1      14.060   6.012   9.258  1.00  0.00     0.139 A 
HETATM   10  C19 UNK     1      13.215   5.620   8.219  1.00  0.00     0.075 A 
HETATM   11  C20 UNK     1      12.172   6.453   7.815  1.00  0.00     0.105 A 
HETATM   12  C21 UNK     1      11.973   7.679   8.451  1.00  0.00     0.039 A 
HETATM   13  C18 UNK     1      12.817   8.070   9.489  1.00  0.00     0.042 A 
BRANCH   9  14
HETATM   14  N1  UNK     1      15.117   5.149   9.656  1.00  0.00    -0.113 N 
HETATM   15  O3  UNK     1      16.231   5.255   9.091  1.00  0.00    -0.532 OA
HETATM   16  O4  UNK     1      14.904   4.307  10.560  1.00  0.00    -0.532 OA
ENDBRANCH   9  14
BRANCH  11  17
HETATM   17  N2  UNK     1      11.312   6.055   6.758  1.00  0.00    -0.116 N 
HETATM   18  O5  UNK     1      10.182   5.587   7.037  1.00  0.00    -0.532 OA
HETATM   19  O6  UNK     1      11.705   6.182   5.573  1.00  0.00    -0.532 OA
ENDBRANCH  11  17
ENDBRANCH   7   8
ENDBRANCH   2   7
BRANCH   1  20
HETATM   20  C6  UNK     1      18.168  11.907   9.912  1.00  0.00     0.034 C 
HETATM   21  C2  UNK     1      18.074  12.776   8.904  1.00  0.00     0.057 A 
HETATM   22  S1  UNK     1      16.839  12.758   7.688  1.00  0.00    -0.086 SA
HETATM   23  C4  UNK     1      19.045  13.885   8.708  1.00  0.00     0.200 A 
HETATM   24  C3  UNK     1      17.536  14.180   6.889  1.00  0.00     0.020 A 
HETATM   25  C1  UNK     1      18.679  14.667   7.520  1.00  0.00     0.032 A 
HETATM   26  C8  UNK     1      17.051  14.804   5.749  1.00  0.00     0.020 A 
HETATM   27  C7  UNK     1      19.365  15.774   7.044  1.00  0.00     0.017 A 
HETATM   28  C15 UNK     1      18.880  16.404   5.897  1.00  0.00     0.001 A 
HETATM   29  C16 UNK     1      17.730  15.922   5.254  1.00  0.00     0.001 A 
HETATM   30  O2  UNK     1      20.008  14.126   9.413  1.00  0.00    -0.286 OA
ENDBRANCH   1  20
TORSDOF 5
ENDMDL
