MODEL 1
REMARK VINA RESULT:      -8.3      0.000      0.000
REMARK  4 active torsions:
REMARK  status: ('A' for Active; 'I' for Inactive)
REMARK    1  A    between atoms: C11_16  and  O3_3 
REMARK    2  A    between atoms: C13_18  and  O4_4 
REMARK    3  A    between atoms: C15_20  and  O5_5 
REMARK    4  A    between atoms: C2_7  and  C4_9 
ROOT
HETATM    1  O1  UNK     1      18.014   3.013  33.134  1.00  0.00    -0.309 OA
HETATM    2  O2  UNK     1      19.298   1.641  29.518  1.00  0.00    -0.287 OA
HETATM    3  C1  UNK     1      18.745   1.147  31.762  1.00  0.00     0.048 A 
HETATM    4  C2  UNK     1      18.182   3.863  32.051  1.00  0.00     0.090 A 
HETATM    5  C3  UNK     1      18.301   1.682  32.970  1.00  0.00     0.093 A 
HETATM    6  C5  UNK     1      18.915   2.044  30.608  1.00  0.00     0.187 A 
HETATM    7  C6  UNK     1      18.596   3.468  30.836  1.00  0.00     0.093 A 
HETATM    8  C7  UNK     1      19.021  -0.218  31.653  1.00  0.00     0.021 A 
HETATM    9  C8  UNK     1      18.129   0.852  34.079  1.00  0.00     0.074 A 
HETATM   10  C11 UNK     1      18.404  -0.512  33.973  1.00  0.00     0.068 A 
HETATM   11  C12 UNK     1      18.850  -1.045  32.764  1.00  0.00     0.037 A 
ENDROOT
BRANCH   4  12
HETATM   12  C4  UNK     1      17.840   5.271  32.334  1.00  0.00     0.001 A 
HETATM   13  C10 UNK     1      17.962   5.775  33.631  1.00  0.00     0.017 A 
HETATM   14  C14 UNK     1      17.640   7.106  33.900  1.00  0.00     0.040 A 
HETATM   15  C15 UNK     1      17.193   7.935  32.871  1.00  0.00     0.098 A 
HETATM   16  C13 UNK     1      17.070   7.436  31.575  1.00  0.00     0.099 A 
HETATM   17  C9  UNK     1      17.392   6.105  31.307  1.00  0.00     0.053 A 
BRANCH  15  18
HETATM   18  O5  UNK     1      16.880   9.233  33.147  1.00  0.00    -0.358 OA
HETATM   19  H10 UNK     1      16.088   9.255  33.711  1.00  0.00     0.217 HD
ENDBRANCH  15  18
BRANCH  16  20
HETATM   20  O4  UNK     1      16.634   8.238  30.563  1.00  0.00    -0.358 OA
HETATM   21  H9  UNK     1      16.997   7.900  29.727  1.00  0.00     0.217 HD
ENDBRANCH  16  20
ENDBRANCH   4  12
BRANCH  10  22
HETATM   22  O3  UNK     1      18.237  -1.324  35.053  1.00  0.00    -0.361 OA
HETATM   23  H8  UNK     1      17.341  -1.700  35.028  1.00  0.00     0.217 HD
ENDBRANCH  10  22
TORSDOF 4
ENDMDL
MODEL 2
REMARK VINA RESULT:      -8.2      2.155      3.016
REMARK  4 active torsions:
REMARK  status: ('A' for Active; 'I' for Inactive)
REMARK    1  A    between atoms: C11_16  and  O3_3 
REMARK    2  A    between atoms: C13_18  and  O4_4 
REMARK    3  A    between atoms: C15_20  and  O5_5 
REMARK    4  A    between atoms: C2_7  and  C4_9 
ROOT
HETATM    1  O1  UNK     1      19.583   1.007  31.438  1.00  0.00    -0.309 OA
HETATM    2  O2  UNK     1      19.260  -0.347  27.608  1.00  0.00    -0.287 OA
HETATM    3  C1  UNK     1      19.861  -0.808  29.847  1.00  0.00     0.048 A 
HETATM    4  C2  UNK     1      19.122   1.822  30.414  1.00  0.00     0.090 A 
HETATM    5  C3  UNK     1      19.944  -0.281  31.135  1.00  0.00     0.093 A 
HETATM    6  C5  UNK     1      19.363   0.051  28.760  1.00  0.00     0.187 A 
HETATM    7  C6  UNK     1      18.989   1.429  29.137  1.00  0.00     0.093 A 
HETATM    8  C7  UNK     1      20.242  -2.127  29.597  1.00  0.00     0.021 A 
HETATM    9  C8  UNK     1      20.412  -1.075  32.183  1.00  0.00     0.074 A 
HETATM   10  C11 UNK     1      20.793  -2.394  31.937  1.00  0.00     0.068 A 
HETATM   11  C12 UNK     1      20.710  -2.919  30.647  1.00  0.00     0.037 A 
ENDROOT
BRANCH   4  12
HETATM   12  C4  UNK     1      18.755   3.183  30.850  1.00  0.00     0.001 A 
HETATM   13  C10 UNK     1      18.201   3.390  32.116  1.00  0.00     0.017 A 
HETATM   14  C14 UNK     1      17.855   4.676  32.529  1.00  0.00     0.040 A 
HETATM   15  C15 UNK     1      18.063   5.761  31.677  1.00  0.00     0.098 A 
HETATM   16  C13 UNK     1      18.617   5.560  30.413  1.00  0.00     0.099 A 
HETATM   17  C9  UNK     1      18.962   4.272  30.000  1.00  0.00     0.053 A 
BRANCH  15  18
HETATM   18  O5  UNK     1      17.720   7.012  32.092  1.00  0.00    -0.358 OA
HETATM   19  H10 UNK     1      18.022   7.137  33.007  1.00  0.00     0.217 HD
ENDBRANCH  15  18
BRANCH  16  20
HETATM   20  O4  UNK     1      18.823   6.612  29.572  1.00  0.00    -0.358 OA
HETATM   21  H9  UNK     1      19.642   6.451  29.075  1.00  0.00     0.217 HD
ENDBRANCH  16  20
ENDBRANCH   4  12
BRANCH  10  22
HETATM   22  O3  UNK     1      21.249  -3.171  32.958  1.00  0.00    -0.361 OA
HETATM   23  H8  UNK     1      21.705  -3.945  32.586  1.00  0.00     0.217 HD
ENDBRANCH  10  22
TORSDOF 4
ENDMDL
MODEL 3
REMARK VINA RESULT:      -8.1     14.015     16.347
REMARK  4 active torsions:
REMARK  status: ('A' for Active; 'I' for Inactive)
REMARK    1  A    between atoms: C11_16  and  O3_3 
REMARK    2  A    between atoms: C13_18  and  O4_4 
REMARK    3  A    between atoms: C15_20  and  O5_5 
REMARK    4  A    between atoms: C2_7  and  C4_9 
ROOT
HETATM    1  O1  UNK     1      20.289  -2.220  17.332  1.00  0.00    -0.309 OA
HETATM    2  O2  UNK     1      17.992  -2.115  13.968  1.00  0.00    -0.287 OA
HETATM    3  C1  UNK     1      19.688  -3.210  15.197  1.00  0.00     0.048 A 
HETATM    4  C2  UNK     1      19.353  -1.218  17.120  1.00  0.00     0.090 A 
HETATM    5  C3  UNK     1      20.439  -3.187  16.371  1.00  0.00     0.093 A 
HETATM    6  C5  UNK     1      18.688  -2.154  14.973  1.00  0.00     0.187 A 
HETATM    7  C6  UNK     1      18.566  -1.135  16.035  1.00  0.00     0.093 A 
HETATM    8  C7  UNK     1      19.883  -4.220  14.253  1.00  0.00     0.021 A 
HETATM    9  C8  UNK     1      21.392  -4.178  16.607  1.00  0.00     0.074 A 
HETATM   10  C11 UNK     1      21.590  -5.189  15.667  1.00  0.00     0.068 A 
HETATM   11  C12 UNK     1      20.838  -5.210  14.492  1.00  0.00     0.037 A 
ENDROOT
BRANCH   4  12
HETATM   12  C4  UNK     1      19.270  -0.234  18.217  1.00  0.00     0.001 A 
HETATM   13  C10 UNK     1      18.943   1.096  17.944  1.00  0.00     0.017 A 
HETATM   14  C14 UNK     1      18.862   2.026  18.981  1.00  0.00     0.040 A 
HETATM   15  C15 UNK     1      19.109   1.628  20.294  1.00  0.00     0.098 A 
HETATM   16  C13 UNK     1      19.435   0.301  20.572  1.00  0.00     0.099 A 
HETATM   17  C9  UNK     1      19.516  -0.629  19.535  1.00  0.00     0.053 A 
BRANCH  15  18
HETATM   18  O5  UNK     1      19.029   2.546  21.298  1.00  0.00    -0.358 OA
HETATM   19  H10 UNK     1      18.201   3.046  21.206  1.00  0.00     0.217 HD
ENDBRANCH  15  18
BRANCH  16  20
HETATM   20  O4  UNK     1      19.680  -0.099  21.852  1.00  0.00    -0.358 OA
HETATM   21  H9  UNK     1      18.960   0.227  22.417  1.00  0.00     0.217 HD
ENDBRANCH  16  20
ENDBRANCH   4  12
BRANCH  10  22
HETATM   22  O3  UNK     1      22.519  -6.158  15.896  1.00  0.00    -0.361 OA
HETATM   23  H8  UNK     1      23.353  -5.737  16.164  1.00  0.00     0.217 HD
ENDBRANCH  10  22
TORSDOF 4
ENDMDL
MODEL 4
REMARK VINA RESULT:      -8.1      3.646      5.288
REMARK  4 active torsions:
REMARK  status: ('A' for Active; 'I' for Inactive)
REMARK    1  A    between atoms: C11_16  and  O3_3 
REMARK    2  A    between atoms: C13_18  and  O4_4 
REMARK    3  A    between atoms: C15_20  and  O5_5 
REMARK    4  A    between atoms: C2_7  and  C4_9 
ROOT
HETATM    1  O1  UNK     1      19.017  -0.172  32.723  1.00  0.00    -0.309 OA
HETATM    2  O2  UNK     1      18.813   2.760  29.901  1.00  0.00    -0.287 OA
HETATM    3  C1  UNK     1      19.450   0.550  30.444  1.00  0.00     0.048 A 
HETATM    4  C2  UNK     1      18.488   1.079  33.009  1.00  0.00     0.090 A 
HETATM    5  C3  UNK     1      19.487  -0.408  31.456  1.00  0.00     0.093 A 
HETATM    6  C5  UNK     1      18.881   1.874  30.742  1.00  0.00     0.187 A 
HETATM    7  C6  UNK     1      18.391   2.080  32.119  1.00  0.00     0.093 A 
HETATM    8  C7  UNK     1      19.943   0.254  29.172  1.00  0.00     0.021 A 
HETATM    9  C8  UNK     1      20.020  -1.671  31.200  1.00  0.00     0.074 A 
HETATM   10  C11 UNK     1      20.513  -1.971  29.930  1.00  0.00     0.068 A 
HETATM   11  C12 UNK     1      20.476  -1.011  28.918  1.00  0.00     0.037 A 
ENDROOT
BRANCH   4  12
HETATM   12  C4  UNK     1      18.007   1.223  34.397  1.00  0.00     0.001 A 
HETATM   13  C10 UNK     1      18.843   1.762  35.377  1.00  0.00     0.017 A 
HETATM   14  C14 UNK     1      18.388   1.899  36.689  1.00  0.00     0.040 A 
HETATM   15  C15 UNK     1      17.095   1.497  37.024  1.00  0.00     0.098 A 
HETATM   16  C13 UNK     1      16.257   0.959  36.048  1.00  0.00     0.099 A 
HETATM   17  C9  UNK     1      16.712   0.821  34.736  1.00  0.00     0.053 A 
BRANCH  15  18
HETATM   18  O5  UNK     1      16.663   1.635  38.309  1.00  0.00    -0.358 OA
HETATM   19  H10 UNK     1      17.208   1.076  38.888  1.00  0.00     0.217 HD
ENDBRANCH  15  18
BRANCH  16  20
HETATM   20  O4  UNK     1      14.992   0.562  36.364  1.00  0.00    -0.358 OA
HETATM   21  H9  UNK     1      14.778   0.898  37.251  1.00  0.00     0.217 HD
ENDBRANCH  16  20
ENDBRANCH   4  12
BRANCH  10  22
HETATM   22  O3  UNK     1      21.033  -3.204  29.676  1.00  0.00    -0.361 OA
HETATM   23  H8  UNK     1      20.715  -3.825  30.354  1.00  0.00     0.217 HD
ENDBRANCH  10  22
TORSDOF 4
ENDMDL
MODEL 5
REMARK VINA RESULT:      -7.9     14.368     17.570
REMARK  4 active torsions:
REMARK  status: ('A' for Active; 'I' for Inactive)
REMARK    1  A    between atoms: C11_16  and  O3_3 
REMARK    2  A    between atoms: C13_18  and  O4_4 
REMARK    3  A    between atoms: C15_20  and  O5_5 
REMARK    4  A    between atoms: C2_7  and  C4_9 
ROOT
HETATM    1  O1  UNK     1      19.148  -1.059  17.605  1.00  0.00    -0.309 OA
HETATM    2  O2  UNK     1      19.189   2.360  15.389  1.00  0.00    -0.287 OA
HETATM    3  C1  UNK     1      19.156   1.369  17.534  1.00  0.00     0.048 A 
HETATM    4  C2  UNK     1      19.157  -1.091  16.218  1.00  0.00     0.090 A 
HETATM    5  C3  UNK     1      19.144   0.162  18.231  1.00  0.00     0.093 A 
HETATM    6  C5  UNK     1      19.175   1.340  16.063  1.00  0.00     0.187 A 
HETATM    7  C6  UNK     1      19.176   0.002  15.437  1.00  0.00     0.093 A 
HETATM    8  C7  UNK     1      19.152   2.583  18.224  1.00  0.00     0.021 A 
HETATM    9  C8  UNK     1      19.128   0.163  19.626  1.00  0.00     0.074 A 
HETATM   10  C11 UNK     1      19.124   1.374  20.319  1.00  0.00     0.068 A 
HETATM   11  C12 UNK     1      19.135   2.581  19.619  1.00  0.00     0.037 A 
ENDROOT
BRANCH   4  12
HETATM   12  C4  UNK     1      19.166  -2.452  15.650  1.00  0.00     0.001 A 
HETATM   13  C10 UNK     1      17.977  -3.037  15.207  1.00  0.00     0.017 A 
HETATM   14  C14 UNK     1      17.985  -4.324  14.669  1.00  0.00     0.040 A 
HETATM   15  C15 UNK     1      19.184  -5.030  14.572  1.00  0.00     0.098 A 
HETATM   16  C13 UNK     1      20.374  -4.451  15.012  1.00  0.00     0.099 A 
HETATM   17  C9  UNK     1      20.365  -3.163  15.551  1.00  0.00     0.053 A 
BRANCH  15  18
HETATM   18  O5  UNK     1      19.179  -6.287  14.046  1.00  0.00    -0.358 OA
HETATM   19  H10 UNK     1      18.747  -6.891  14.673  1.00  0.00     0.217 HD
ENDBRANCH  15  18
BRANCH  16  20
HETATM   20  O4  UNK     1      21.551  -5.132  14.922  1.00  0.00    -0.358 OA
HETATM   21  H9  UNK     1      22.270  -4.488  14.811  1.00  0.00     0.217 HD
ENDBRANCH  16  20
ENDBRANCH   4  12
BRANCH  10  22
HETATM   22  O3  UNK     1      19.110   1.377  21.680  1.00  0.00    -0.361 OA
HETATM   23  H8  UNK     1      18.187   1.421  21.985  1.00  0.00     0.217 HD
ENDBRANCH  10  22
TORSDOF 4
ENDMDL
MODEL 6
REMARK VINA RESULT:      -7.9     15.047     17.567
REMARK  4 active torsions:
REMARK  status: ('A' for Active; 'I' for Inactive)
REMARK    1  A    between atoms: C11_16  and  O3_3 
REMARK    2  A    between atoms: C13_18  and  O4_4 
REMARK    3  A    between atoms: C15_20  and  O5_5 
REMARK    4  A    between atoms: C2_7  and  C4_9 
ROOT
HETATM    1  O1  UNK     1      19.421  -0.680  15.240  1.00  0.00    -0.309 OA
HETATM    2  O2  UNK     1      17.566  -4.301  15.456  1.00  0.00    -0.287 OA
HETATM    3  C1  UNK     1      18.762  -2.744  14.142  1.00  0.00     0.048 A 
HETATM    4  C2  UNK     1      18.812  -1.117  16.407  1.00  0.00     0.090 A 
HETATM    5  C3  UNK     1      19.381  -1.494  14.137  1.00  0.00     0.093 A 
HETATM    6  C5  UNK     1      18.123  -3.215  15.380  1.00  0.00     0.187 A 
HETATM    7  C6  UNK     1      18.191  -2.300  16.538  1.00  0.00     0.093 A 
HETATM    8  C7  UNK     1      18.753  -3.531  12.989  1.00  0.00     0.021 A 
HETATM    9  C8  UNK     1      19.996  -1.025  12.976  1.00  0.00     0.074 A 
HETATM   10  C11 UNK     1      19.989  -1.810  11.822  1.00  0.00     0.068 A 
HETATM   11  C12 UNK     1      19.368  -3.059  11.828  1.00  0.00     0.037 A 
ENDROOT
BRANCH   4  12
HETATM   12  C4  UNK     1      18.919  -0.167  17.532  1.00  0.00     0.001 A 
HETATM   13  C10 UNK     1      18.951   1.208  17.289  1.00  0.00     0.017 A 
HETATM   14  C14 UNK     1      19.052   2.107  18.351  1.00  0.00     0.040 A 
HETATM   15  C15 UNK     1      19.121   1.631  19.661  1.00  0.00     0.098 A 
HETATM   16  C13 UNK     1      19.088   0.259  19.908  1.00  0.00     0.099 A 
HETATM   17  C9  UNK     1      18.988  -0.639  18.845  1.00  0.00     0.053 A 
BRANCH  15  18
HETATM   18  O5  UNK     1      19.220   2.519  20.690  1.00  0.00    -0.358 OA
HETATM   19  H10 UNK     1      19.799   2.144  21.376  1.00  0.00     0.217 HD
ENDBRANCH  15  18
BRANCH  16  20
HETATM   20  O4  UNK     1      19.156  -0.216  21.184  1.00  0.00    -0.358 OA
HETATM   21  H9  UNK     1      19.717   0.383  21.704  1.00  0.00     0.217 HD
ENDBRANCH  16  20
ENDBRANCH   4  12
BRANCH  10  22
HETATM   22  O3  UNK     1      20.589  -1.355  10.688  1.00  0.00    -0.361 OA
HETATM   23  H8  UNK     1      20.163  -1.769   9.918  1.00  0.00     0.217 HD
ENDBRANCH  10  22
TORSDOF 4
ENDMDL
MODEL 7
REMARK VINA RESULT:      -7.9      1.925      6.726
REMARK  4 active torsions:
REMARK  status: ('A' for Active; 'I' for Inactive)
REMARK    1  A    between atoms: C11_16  and  O3_3 
REMARK    2  A    between atoms: C13_18  and  O4_4 
REMARK    3  A    between atoms: C15_20  and  O5_5 
REMARK    4  A    between atoms: C2_7  and  C4_9 
ROOT
HETATM    1  O1  UNK     1      18.255   3.498  34.268  1.00  0.00    -0.309 OA
HETATM    2  O2  UNK     1      18.363   2.572  30.302  1.00  0.00    -0.287 OA
HETATM    3  C1  UNK     1      18.388   4.252  31.964  1.00  0.00     0.048 A 
HETATM    4  C2  UNK     1      18.190   2.184  33.826  1.00  0.00     0.090 A 
HETATM    5  C3  UNK     1      18.349   4.498  33.335  1.00  0.00     0.093 A 
HETATM    6  C5  UNK     1      18.329   2.860  31.490  1.00  0.00     0.187 A 
HETATM    7  C6  UNK     1      18.227   1.820  32.534  1.00  0.00     0.093 A 
HETATM    8  C7  UNK     1      18.484   5.311  31.058  1.00  0.00     0.021 A 
HETATM    9  C8  UNK     1      18.405   5.809  33.809  1.00  0.00     0.074 A 
HETATM   10  C11 UNK     1      18.501   6.869  32.908  1.00  0.00     0.068 A 
HETATM   11  C12 UNK     1      18.540   6.621  31.536  1.00  0.00     0.037 A 
ENDROOT
BRANCH   4  12
HETATM   12  C4  UNK     1      18.098   1.189  34.912  1.00  0.00     0.001 A 
HETATM   13  C10 UNK     1      18.080  -0.175  34.613  1.00  0.00     0.017 A 
HETATM   14  C14 UNK     1      17.994  -1.117  35.639  1.00  0.00     0.040 A 
HETATM   15  C15 UNK     1      17.926  -0.696  36.967  1.00  0.00     0.098 A 
HETATM   16  C13 UNK     1      17.944   0.665  37.269  1.00  0.00     0.099 A 
HETATM   17  C9  UNK     1      18.029   1.607  36.243  1.00  0.00     0.053 A 
BRANCH  15  18
HETATM   18  O5  UNK     1      17.840  -1.625  37.960  1.00  0.00    -0.358 OA
HETATM   19  H10 UNK     1      17.053  -1.440  38.500  1.00  0.00     0.217 HD
ENDBRANCH  15  18
BRANCH  16  20
HETATM   20  O4  UNK     1      17.876   1.088  38.563  1.00  0.00    -0.358 OA
HETATM   21  H9  UNK     1      17.004   0.849  38.918  1.00  0.00     0.217 HD
ENDBRANCH  16  20
ENDBRANCH   4  12
BRANCH  10  22
HETATM   22  O3  UNK     1      18.558   8.149  33.369  1.00  0.00    -0.361 OA
HETATM   23  H8  UNK     1      17.796   8.643  33.020  1.00  0.00     0.217 HD
ENDBRANCH  10  22
TORSDOF 4
ENDMDL
MODEL 8
REMARK VINA RESULT:      -7.9      1.281      2.798
REMARK  4 active torsions:
REMARK  status: ('A' for Active; 'I' for Inactive)
REMARK    1  A    between atoms: C11_16  and  O3_3 
REMARK    2  A    between atoms: C13_18  and  O4_4 
REMARK    3  A    between atoms: C15_20  and  O5_5 
REMARK    4  A    between atoms: C2_7  and  C4_9 
ROOT
HETATM    1  O1  UNK     1      18.158   3.930  31.344  1.00  0.00    -0.309 OA
HETATM    2  O2  UNK     1      18.654   1.384  34.486  1.00  0.00    -0.287 OA
HETATM    3  C1  UNK     1      18.682   1.697  32.144  1.00  0.00     0.048 A 
HETATM    4  C2  UNK     1      17.982   4.349  32.654  1.00  0.00     0.090 A 
HETATM    5  C3  UNK     1      18.499   2.621  31.116  1.00  0.00     0.093 A 
HETATM    6  C5  UNK     1      18.505   2.140  33.536  1.00  0.00     0.187 A 
HETATM    7  C6  UNK     1      18.137   3.557  33.728  1.00  0.00     0.093 A 
HETATM    8  C7  UNK     1      19.029   0.376  31.853  1.00  0.00     0.021 A 
HETATM    9  C8  UNK     1      18.662   2.226  29.788  1.00  0.00     0.074 A 
HETATM   10  C11 UNK     1      19.009   0.908  29.494  1.00  0.00     0.068 A 
HETATM   11  C12 UNK     1      19.191  -0.016  30.524  1.00  0.00     0.037 A 
ENDROOT
BRANCH   4  12
HETATM   12  C4  UNK     1      17.624   5.774  32.786  1.00  0.00     0.001 A 
HETATM   13  C10 UNK     1      17.920   6.467  33.962  1.00  0.00     0.017 A 
HETATM   14  C14 UNK     1      17.583   7.815  34.086  1.00  0.00     0.040 A 
HETATM   15  C15 UNK     1      16.947   8.474  33.034  1.00  0.00     0.098 A 
HETATM   16  C13 UNK     1      16.650   7.786  31.857  1.00  0.00     0.099 A 
HETATM   17  C9  UNK     1      16.987   6.438  31.733  1.00  0.00     0.053 A 
BRANCH  15  18
HETATM   18  O5  UNK     1      16.621   9.790  33.168  1.00  0.00    -0.358 OA
HETATM   19  H10 UNK     1      17.380  10.334  32.896  1.00  0.00     0.217 HD
ENDBRANCH  15  18
BRANCH  16  20
HETATM   20  O4  UNK     1      16.029   8.420  30.823  1.00  0.00    -0.358 OA
HETATM   21  H9  UNK     1      16.434   9.297  30.713  1.00  0.00     0.217 HD
ENDBRANCH  16  20
ENDBRANCH   4  12
BRANCH  10  22
HETATM   22  O3  UNK     1      19.170   0.521  28.198  1.00  0.00    -0.361 OA
HETATM   23  H8  UNK     1      18.810   1.211  27.616  1.00  0.00     0.217 HD
ENDBRANCH  10  22
TORSDOF 4
ENDMDL
MODEL 9
REMARK VINA RESULT:      -7.8      1.899      7.090
REMARK  4 active torsions:
REMARK  status: ('A' for Active; 'I' for Inactive)
REMARK    1  A    between atoms: C11_16  and  O3_3 
REMARK    2  A    between atoms: C13_18  and  O4_4 
REMARK    3  A    between atoms: C15_20  and  O5_5 
REMARK    4  A    between atoms: C2_7  and  C4_9 
ROOT
HETATM    1  O1  UNK     1      16.860   5.446  31.967  1.00  0.00    -0.309 OA
HETATM    2  O2  UNK     1      19.721   7.833  33.617  1.00  0.00    -0.287 OA
HETATM    3  C1  UNK     1      17.454   7.559  33.007  1.00  0.00     0.048 A 
HETATM    4  C2  UNK     1      18.182   5.036  32.065  1.00  0.00     0.090 A 
HETATM    5  C3  UNK     1      16.526   6.692  32.433  1.00  0.00     0.093 A 
HETATM    6  C5  UNK     1      18.855   7.124  33.121  1.00  0.00     0.187 A 
HETATM    7  C6  UNK     1      19.165   5.777  32.603  1.00  0.00     0.093 A 
HETATM    8  C7  UNK     1      17.056   8.816  33.465  1.00  0.00     0.021 A 
HETATM    9  C8  UNK     1      15.191   7.079  32.314  1.00  0.00     0.074 A 
HETATM   10  C11 UNK     1      14.790   8.334  32.771  1.00  0.00     0.068 A 
HETATM   11  C12 UNK     1      15.720   9.202  33.345  1.00  0.00     0.037 A 
ENDROOT
BRANCH   4  12
HETATM   12  C4  UNK     1      18.430   3.679  31.540  1.00  0.00     0.001 A 
HETATM   13  C10 UNK     1      18.645   3.484  30.174  1.00  0.00     0.017 A 
HETATM   14  C14 UNK     1      18.881   2.202  29.676  1.00  0.00     0.040 A 
HETATM   15  C15 UNK     1      18.902   1.111  30.545  1.00  0.00     0.098 A 
HETATM   16  C13 UNK     1      18.689   1.302  31.910  1.00  0.00     0.099 A 
HETATM   17  C9  UNK     1      18.453   2.584  32.407  1.00  0.00     0.053 A 
BRANCH  15  18
HETATM   18  O5  UNK     1      19.131  -0.136  30.048  1.00  0.00    -0.358 OA
HETATM   19  H10 UNK     1      18.544  -0.769  30.495  1.00  0.00     0.217 HD
ENDBRANCH  15  18
BRANCH  16  20
HETATM   20  O4  UNK     1      18.706   0.243  32.768  1.00  0.00    -0.358 OA
HETATM   21  H9  UNK     1      18.466   0.563  33.654  1.00  0.00     0.217 HD
ENDBRANCH  16  20
ENDBRANCH   4  12
BRANCH  10  22
HETATM   22  O3  UNK     1      13.487   8.715  32.657  1.00  0.00    -0.361 OA
HETATM   23  H8  UNK     1      12.953   8.198  33.284  1.00  0.00     0.217 HD
ENDBRANCH  10  22
TORSDOF 4
ENDMDL
MODEL 10
REMARK VINA RESULT:      -7.8      2.271      6.699
REMARK  4 active torsions:
REMARK  status: ('A' for Active; 'I' for Inactive)
REMARK    1  A    between atoms: C11_16  and  O3_3 
REMARK    2  A    between atoms: C13_18  and  O4_4 
REMARK    3  A    between atoms: C15_20  and  O5_5 
REMARK    4  A    between atoms: C2_7  and  C4_9 
ROOT
HETATM    1  O1  UNK     1      18.232   1.618  32.878  1.00  0.00    -0.309 OA
HETATM    2  O2  UNK     1      18.557   5.617  33.591  1.00  0.00    -0.287 OA
HETATM    3  C1  UNK     1      18.421   3.875  32.000  1.00  0.00     0.048 A 
HETATM    4  C2  UNK     1      18.279   2.126  34.168  1.00  0.00     0.090 A 
HETATM    5  C3  UNK     1      18.308   2.496  31.827  1.00  0.00     0.093 A 
HETATM    6  C5  UNK     1      18.462   4.418  33.367  1.00  0.00     0.187 A 
HETATM    7  C6  UNK     1      18.380   3.432  34.463  1.00  0.00     0.093 A 
HETATM    8  C7  UNK     1      18.494   4.722  30.892  1.00  0.00     0.021 A 
HETATM    9  C8  UNK     1      18.265   1.957  30.541  1.00  0.00     0.074 A 
HETATM   10  C11 UNK     1      18.337   2.800  29.432  1.00  0.00     0.068 A 
HETATM   11  C12 UNK     1      18.452   4.179  29.607  1.00  0.00     0.037 A 
ENDROOT
BRANCH   4  12
HETATM   12  C4  UNK     1      18.184   1.096  35.222  1.00  0.00     0.001 A 
HETATM   13  C10 UNK     1      17.747   1.441  36.502  1.00  0.00     0.017 A 
HETATM   14  C14 UNK     1      17.656   0.468  37.498  1.00  0.00     0.040 A 
HETATM   15  C15 UNK     1      18.004  -0.852  37.216  1.00  0.00     0.098 A 
HETATM   16  C13 UNK     1      18.441  -1.201  35.938  1.00  0.00     0.099 A 
HETATM   17  C9  UNK     1      18.532  -0.228  34.942  1.00  0.00     0.053 A 
BRANCH  15  18
HETATM   18  O5  UNK     1      17.912  -1.793  38.197  1.00  0.00    -0.358 OA
HETATM   19  H10 UNK     1      18.241  -2.641  37.855  1.00  0.00     0.217 HD
ENDBRANCH  15  18
BRANCH  16  20
HETATM   20  O4  UNK     1      18.784  -2.488  35.651  1.00  0.00    -0.358 OA
HETATM   21  H9  UNK     1      18.221  -3.080  36.178  1.00  0.00     0.217 HD
ENDBRANCH  16  20
ENDBRANCH   4  12
BRANCH  10  22
HETATM   22  O3  UNK     1      18.295   2.275  28.176  1.00  0.00    -0.361 OA
HETATM   23  H8  UNK     1      17.518   2.631  27.713  1.00  0.00     0.217 HD
ENDBRANCH  10  22
TORSDOF 4
ENDMDL
