MODEL 1
REMARK VINA RESULT:      -7.1      0.000      0.000
REMARK  2 active torsions:
REMARK  status: ('A' for Active; 'I' for Inactive)
REMARK    1  A    between atoms: C10_14  and  O2_2 
REMARK    2  A    between atoms: C5_9  and  O2_2 
ROOT
HETATM    1  O1  UNK     1      19.913  -0.516  31.879  1.00  0.00    -0.275 OA
HETATM    2  O3  UNK     1      21.006  -2.521  32.063  1.00  0.00    -0.260 OA
HETATM    3  C1  UNK     1      19.438   0.373  29.665  1.00  0.00    -0.002 A 
HETATM    4  C2  UNK     1      19.370   0.486  31.050  1.00  0.00     0.092 A 
HETATM    5  C3  UNK     1      18.769   1.581  31.669  1.00  0.00     0.075 A 
HETATM    6  C4  UNK     1      18.888   1.388  28.877  1.00  0.00     0.017 A 
HETATM    7  C5  UNK     1      18.223   2.589  30.875  1.00  0.00     0.081 A 
HETATM    8  C6  UNK     1      18.282   2.492  29.483  1.00  0.00     0.038 A 
HETATM    9  C7  UNK     1      20.080  -0.795  29.087  1.00  0.00     0.020 A 
HETATM   10  C8  UNK     1      20.591  -1.740  29.878  1.00  0.00     0.083 A 
HETATM   11  C9  UNK     1      20.531  -1.644  31.349  1.00  0.00     0.288 A 
ENDROOT
BRANCH   7  12
HETATM   12  O2  UNK     1      17.631   3.667  31.457  1.00  0.00    -0.279 OA
BRANCH  12  13
HETATM   13  C10 UNK     1      18.535   4.615  31.964  1.00  0.00     0.260 C 
HETATM   14  O4  UNK     1      19.431   5.158  31.331  1.00  0.00    -0.265 OA
HETATM   15  C11 UNK     1      18.249   4.874  33.413  1.00  0.00     0.126 C 
ENDBRANCH  12  13
ENDBRANCH   7  12
TORSDOF 2
ENDMDL
MODEL 2
REMARK VINA RESULT:      -7.0     22.720     24.482
REMARK  2 active torsions:
REMARK  status: ('A' for Active; 'I' for Inactive)
REMARK    1  A    between atoms: C10_14  and  O2_2 
REMARK    2  A    between atoms: C5_9  and  O2_2 
ROOT
HETATM    1  O1  UNK     1       9.790   5.465   8.549  1.00  0.00    -0.275 OA
HETATM    2  O3  UNK     1       7.687   5.247   7.669  1.00  0.00    -0.260 OA
HETATM    3  C1  UNK     1      11.568   6.371   7.156  1.00  0.00    -0.002 A 
HETATM    4  C2  UNK     1      11.134   5.854   8.374  1.00  0.00     0.092 A 
HETATM    5  C3  UNK     1      11.998   5.701   9.456  1.00  0.00     0.075 A 
HETATM    6  C4  UNK     1      12.907   6.745   7.022  1.00  0.00     0.017 A 
HETATM    7  C5  UNK     1      13.332   6.077   9.313  1.00  0.00     0.081 A 
HETATM    8  C6  UNK     1      13.785   6.598   8.098  1.00  0.00     0.038 A 
HETATM    9  C7  UNK     1      10.612   6.501   6.069  1.00  0.00     0.020 A 
HETATM   10  C8  UNK     1       9.342   6.131   6.244  1.00  0.00     0.083 A 
HETATM   11  C9  UNK     1       8.857   5.582   7.524  1.00  0.00     0.288 A 
ENDROOT
BRANCH   7  12
HETATM   12  O2  UNK     1      14.195   5.938  10.356  1.00  0.00    -0.279 OA
BRANCH  12  13
HETATM   13  C10 UNK     1      15.482   5.514   9.984  1.00  0.00     0.260 C 
HETATM   14  O4  UNK     1      15.781   4.393   9.598  1.00  0.00    -0.265 OA
HETATM   15  C11 UNK     1      16.456   6.645  10.130  1.00  0.00     0.126 C 
ENDBRANCH  12  13
ENDBRANCH   7  12
TORSDOF 2
ENDMDL
MODEL 3
REMARK VINA RESULT:      -6.8      1.464      2.187
REMARK  2 active torsions:
REMARK  status: ('A' for Active; 'I' for Inactive)
REMARK    1  A    between atoms: C10_14  and  O2_2 
REMARK    2  A    between atoms: C5_9  and  O2_2 
ROOT
HETATM    1  O1  UNK     1      19.993  -1.047  32.521  1.00  0.00    -0.275 OA
HETATM    2  O3  UNK     1      20.693  -2.683  33.963  1.00  0.00    -0.260 OA
HETATM    3  C1  UNK     1      20.196  -1.416  30.124  1.00  0.00    -0.002 A 
HETATM    4  C2  UNK     1      19.819  -0.607  31.193  1.00  0.00     0.092 A 
HETATM    5  C3  UNK     1      19.262   0.655  30.998  1.00  0.00     0.075 A 
HETATM    6  C4  UNK     1      20.009  -0.944  28.823  1.00  0.00     0.017 A 
HETATM    7  C5  UNK     1      19.079   1.117  29.695  1.00  0.00     0.081 A 
HETATM    8  C6  UNK     1      19.451   0.320  28.611  1.00  0.00     0.038 A 
HETATM    9  C7  UNK     1      20.772  -2.721  30.401  1.00  0.00     0.020 A 
HETATM   10  C8  UNK     1      20.932  -3.130  31.662  1.00  0.00     0.083 A 
HETATM   11  C9  UNK     1      20.540  -2.293  32.810  1.00  0.00     0.288 A 
ENDROOT
BRANCH   7  12
HETATM   12  O2  UNK     1      18.536   2.347  29.480  1.00  0.00    -0.279 OA
BRANCH  12  13
HETATM   13  C10 UNK     1      18.245   3.060  30.655  1.00  0.00     0.260 C 
HETATM   14  O4  UNK     1      17.410   2.746  31.493  1.00  0.00    -0.265 OA
HETATM   15  C11 UNK     1      19.111   4.281  30.742  1.00  0.00     0.126 C 
ENDBRANCH  12  13
ENDBRANCH   7  12
TORSDOF 2
ENDMDL
MODEL 4
REMARK VINA RESULT:      -6.8      3.584      6.108
REMARK  2 active torsions:
REMARK  status: ('A' for Active; 'I' for Inactive)
REMARK    1  A    between atoms: C10_14  and  O2_2 
REMARK    2  A    between atoms: C5_9  and  O2_2 
ROOT
HETATM    1  O1  UNK     1      16.827  -0.269  34.166  1.00  0.00    -0.275 OA
HETATM    2  O3  UNK     1      15.265   0.600  35.598  1.00  0.00    -0.260 OA
HETATM    3  C1  UNK     1      18.763  -1.422  35.084  1.00  0.00    -0.002 A 
HETATM    4  C2  UNK     1      18.038  -0.969  33.986  1.00  0.00     0.092 A 
HETATM    5  C3  UNK     1      18.471  -1.185  32.680  1.00  0.00     0.075 A 
HETATM    6  C4  UNK     1      19.958  -2.111  34.865  1.00  0.00     0.017 A 
HETATM    7  C5  UNK     1      19.665  -1.874  32.471  1.00  0.00     0.081 A 
HETATM    8  C6  UNK     1      20.406  -2.336  33.560  1.00  0.00     0.038 A 
HETATM    9  C7  UNK     1      18.252  -1.160  36.419  1.00  0.00     0.020 A 
HETATM   10  C8  UNK     1      17.105  -0.497  36.581  1.00  0.00     0.083 A 
HETATM   11  C9  UNK     1      16.317  -0.008  35.434  1.00  0.00     0.288 A 
ENDROOT
BRANCH   7  12
HETATM   12  O2  UNK     1      20.108  -2.098  31.204  1.00  0.00    -0.279 OA
BRANCH  12  13
HETATM   13  C10 UNK     1      20.573  -0.946  30.547  1.00  0.00     0.260 C 
HETATM   14  O4  UNK     1      21.117   0.011  31.081  1.00  0.00    -0.265 OA
HETATM   15  C11 UNK     1      20.305  -1.052  29.075  1.00  0.00     0.126 C 
ENDBRANCH  12  13
ENDBRANCH   7  12
TORSDOF 2
ENDMDL
MODEL 5
REMARK VINA RESULT:      -6.8     22.697     24.466
REMARK  2 active torsions:
REMARK  status: ('A' for Active; 'I' for Inactive)
REMARK    1  A    between atoms: C10_14  and  O2_2 
REMARK    2  A    between atoms: C5_9  and  O2_2 
ROOT
HETATM    1  O1  UNK     1       9.689   5.423   8.751  1.00  0.00    -0.275 OA
HETATM    2  O3  UNK     1       7.457   5.500   8.239  1.00  0.00    -0.260 OA
HETATM    3  C1  UNK     1      11.304   6.234   7.122  1.00  0.00    -0.002 A 
HETATM    4  C2  UNK     1      11.021   5.677   8.366  1.00  0.00     0.092 A 
HETATM    5  C3  UNK     1      12.028   5.352   9.272  1.00  0.00     0.075 A 
HETATM    6  C4  UNK     1      12.637   6.470   6.777  1.00  0.00     0.017 A 
HETATM    7  C5  UNK     1      13.355   5.591   8.919  1.00  0.00     0.081 A 
HETATM    8  C6  UNK     1      13.659   6.149   7.675  1.00  0.00     0.038 A 
HETATM    9  C7  UNK     1      10.204   6.547   6.226  1.00  0.00     0.020 A 
HETATM   10  C8  UNK     1       8.945   6.305   6.598  1.00  0.00     0.083 A 
HETATM   11  C9  UNK     1       8.619   5.717   7.911  1.00  0.00     0.288 A 
ENDROOT
BRANCH   7  12
HETATM   12  O2  UNK     1      14.356   5.282   9.787  1.00  0.00    -0.279 OA
BRANCH  12  13
HETATM   13  C10 UNK     1      15.027   6.400  10.312  1.00  0.00     0.260 C 
HETATM   14  O4  UNK     1      14.524   7.277  11.000  1.00  0.00    -0.265 OA
HETATM   15  C11 UNK     1      16.470   6.369   9.905  1.00  0.00     0.126 C 
ENDBRANCH  12  13
ENDBRANCH   7  12
TORSDOF 2
ENDMDL
MODEL 6
REMARK VINA RESULT:      -6.8      2.420      3.905
REMARK  2 active torsions:
REMARK  status: ('A' for Active; 'I' for Inactive)
REMARK    1  A    between atoms: C10_14  and  O2_2 
REMARK    2  A    between atoms: C5_9  and  O2_2 
ROOT
HETATM    1  O1  UNK     1      18.048   2.777  32.732  1.00  0.00    -0.275 OA
HETATM    2  O3  UNK     1      18.195   0.501  32.945  1.00  0.00    -0.260 OA
HETATM    3  C1  UNK     1      18.806   3.824  30.671  1.00  0.00    -0.002 A 
HETATM    4  C2  UNK     1      18.259   3.928  31.946  1.00  0.00     0.092 A 
HETATM    5  C3  UNK     1      17.900   5.158  32.493  1.00  0.00     0.075 A 
HETATM    6  C4  UNK     1      18.999   4.988  29.923  1.00  0.00     0.017 A 
HETATM    7  C5  UNK     1      18.096   6.314  31.739  1.00  0.00     0.081 A 
HETATM    8  C6  UNK     1      18.644   6.229  30.458  1.00  0.00     0.038 A 
HETATM    9  C7  UNK     1      19.158   2.508  30.164  1.00  0.00     0.020 A 
HETATM   10  C8  UNK     1      18.955   1.423  30.914  1.00  0.00     0.083 A 
HETATM   11  C9  UNK     1      18.376   1.507  32.267  1.00  0.00     0.288 A 
ENDROOT
BRANCH   7  12
HETATM   12  O2  UNK     1      17.753   7.527  32.252  1.00  0.00    -0.279 OA
BRANCH  12  13
HETATM   13  C10 UNK     1      16.460   7.953  31.905  1.00  0.00     0.260 C 
HETATM   14  O4  UNK     1      16.141   8.477  30.846  1.00  0.00    -0.265 OA
HETATM   15  C11 UNK     1      15.508   7.672  33.029  1.00  0.00     0.126 C 
ENDBRANCH  12  13
ENDBRANCH   7  12
TORSDOF 2
ENDMDL
MODEL 7
REMARK VINA RESULT:      -6.7      2.819      4.502
REMARK  2 active torsions:
REMARK  status: ('A' for Active; 'I' for Inactive)
REMARK    1  A    between atoms: C10_14  and  O2_2 
REMARK    2  A    between atoms: C5_9  and  O2_2 
ROOT
HETATM    1  O1  UNK     1      18.720   0.627  30.645  1.00  0.00    -0.275 OA
HETATM    2  O3  UNK     1      18.721   1.595  28.570  1.00  0.00    -0.260 OA
HETATM    3  C1  UNK     1      20.228  -1.231  31.085  1.00  0.00    -0.002 A 
HETATM    4  C2  UNK     1      19.241  -0.350  31.518  1.00  0.00     0.092 A 
HETATM    5  C3  UNK     1      18.731  -0.397  32.814  1.00  0.00     0.075 A 
HETATM    6  C4  UNK     1      20.719  -2.185  31.980  1.00  0.00     0.017 A 
HETATM    7  C5  UNK     1      19.227  -1.353  33.699  1.00  0.00     0.081 A 
HETATM    8  C6  UNK     1      20.219  -2.244  33.283  1.00  0.00     0.038 A 
HETATM    9  C7  UNK     1      20.713  -1.126  29.720  1.00  0.00     0.020 A 
HETATM   10  C8  UNK     1      20.215  -0.197  28.900  1.00  0.00     0.083 A 
HETATM   11  C9  UNK     1      19.169   0.747  29.334  1.00  0.00     0.288 A 
ENDROOT
BRANCH   7  12
HETATM   12  O2  UNK     1      18.745  -1.418  34.970  1.00  0.00    -0.279 OA
BRANCH  12  13
HETATM   13  C10 UNK     1      18.630  -0.170  35.605  1.00  0.00     0.260 C 
HETATM   14  O4  UNK     1      19.522   0.661  35.714  1.00  0.00    -0.265 OA
HETATM   15  C11 UNK     1      17.241   0.007  36.141  1.00  0.00     0.126 C 
ENDBRANCH  12  13
ENDBRANCH   7  12
TORSDOF 2
ENDMDL
MODEL 8
REMARK VINA RESULT:      -6.7      1.727      5.792
REMARK  2 active torsions:
REMARK  status: ('A' for Active; 'I' for Inactive)
REMARK    1  A    between atoms: C10_14  and  O2_2 
REMARK    2  A    between atoms: C5_9  and  O2_2 
ROOT
HETATM    1  O1  UNK     1      17.910   4.609  33.213  1.00  0.00    -0.275 OA
HETATM    2  O3  UNK     1      17.575   6.470  34.505  1.00  0.00    -0.260 OA
HETATM    3  C1  UNK     1      18.590   4.885  30.893  1.00  0.00    -0.002 A 
HETATM    4  C2  UNK     1      18.262   4.058  31.963  1.00  0.00     0.092 A 
HETATM    5  C3  UNK     1      18.267   2.670  31.847  1.00  0.00     0.075 A 
HETATM    6  C4  UNK     1      18.933   4.302  29.671  1.00  0.00     0.017 A 
HETATM    7  C5  UNK     1      18.611   2.097  30.624  1.00  0.00     0.081 A 
HETATM    8  C6  UNK     1      18.944   2.911  29.539  1.00  0.00     0.038 A 
HETATM    9  C7  UNK     1      18.563   6.325  31.085  1.00  0.00     0.020 A 
HETATM   10  C8  UNK     1      18.230   6.839  32.272  1.00  0.00     0.083 A 
HETATM   11  C9  UNK     1      17.879   5.984  33.421  1.00  0.00     0.288 A 
ENDROOT
BRANCH   7  12
HETATM   12  O2  UNK     1      18.623   0.743  30.486  1.00  0.00    -0.279 OA
BRANCH  12  13
HETATM   13  C10 UNK     1      19.905   0.195  30.308  1.00  0.00     0.260 C 
HETATM   14  O4  UNK     1      20.806   0.204  31.135  1.00  0.00    -0.265 OA
HETATM   15  C11 UNK     1      20.019  -0.410  28.941  1.00  0.00     0.126 C 
ENDBRANCH  12  13
ENDBRANCH   7  12
TORSDOF 2
ENDMDL
MODEL 9
REMARK VINA RESULT:      -6.6      2.881      6.816
REMARK  2 active torsions:
REMARK  status: ('A' for Active; 'I' for Inactive)
REMARK    1  A    between atoms: C10_14  and  O2_2 
REMARK    2  A    between atoms: C5_9  and  O2_2 
ROOT
HETATM    1  O1  UNK     1      17.287   6.385  33.520  1.00  0.00    -0.275 OA
HETATM    2  O3  UNK     1      16.650   7.558  35.381  1.00  0.00    -0.260 OA
HETATM    3  C1  UNK     1      19.578   6.580  32.725  1.00  0.00    -0.002 A 
HETATM    4  C2  UNK     1      18.300   6.044  32.601  1.00  0.00     0.092 A 
HETATM    5  C3  UNK     1      17.970   5.161  31.574  1.00  0.00     0.075 A 
HETATM    6  C4  UNK     1      20.554   6.219  31.794  1.00  0.00     0.017 A 
HETATM    7  C5  UNK     1      18.951   4.806  30.649  1.00  0.00     0.081 A 
HETATM    8  C6  UNK     1      20.240   5.333  30.759  1.00  0.00     0.038 A 
HETATM    9  C7  UNK     1      19.851   7.496  33.820  1.00  0.00     0.020 A 
HETATM   10  C8  UNK     1      18.887   7.812  34.687  1.00  0.00     0.083 A 
HETATM   11  C9  UNK     1      17.525   7.258  34.577  1.00  0.00     0.288 A 
ENDROOT
BRANCH   7  12
HETATM   12  O2  UNK     1      18.653   3.945  29.639  1.00  0.00    -0.279 OA
BRANCH  12  13
HETATM   13  C10 UNK     1      18.373   2.636  30.064  1.00  0.00     0.260 C 
HETATM   14  O4  UNK     1      18.484   2.217  31.208  1.00  0.00    -0.265 OA
HETATM   15  C11 UNK     1      17.914   1.806  28.902  1.00  0.00     0.126 C 
ENDBRANCH  12  13
ENDBRANCH   7  12
TORSDOF 2
ENDMDL
MODEL 10
REMARK VINA RESULT:      -6.6     22.601     24.230
REMARK  2 active torsions:
REMARK  status: ('A' for Active; 'I' for Inactive)
REMARK    1  A    between atoms: C10_14  and  O2_2 
REMARK    2  A    between atoms: C5_9  and  O2_2 
ROOT
HETATM    1  O1  UNK     1      14.034   4.844   9.038  1.00  0.00    -0.275 OA
HETATM    2  O3  UNK     1      16.256   4.534   9.500  1.00  0.00    -0.260 OA
HETATM    3  C1  UNK     1      13.069   7.062   9.302  1.00  0.00    -0.002 A 
HETATM    4  C2  UNK     1      12.930   5.718   8.968  1.00  0.00     0.092 A 
HETATM    5  C3  UNK     1      11.710   5.186   8.557  1.00  0.00     0.075 A 
HETATM    6  C4  UNK     1      11.952   7.896   9.220  1.00  0.00     0.017 A 
HETATM    7  C5  UNK     1      10.600   6.026   8.478  1.00  0.00     0.081 A 
HETATM    8  C6  UNK     1      10.721   7.378   8.808  1.00  0.00     0.038 A 
HETATM    9  C7  UNK     1      14.371   7.549   9.724  1.00  0.00     0.020 A 
HETATM   10  C8  UNK     1      15.412   6.716   9.787  1.00  0.00     0.083 A 
HETATM   11  C9  UNK     1      15.291   5.288   9.438  1.00  0.00     0.288 A 
ENDROOT
BRANCH   7  12
HETATM   12  O2  UNK     1       9.398   5.530   8.078  1.00  0.00    -0.279 OA
BRANCH  12  13
HETATM   13  C10 UNK     1       8.755   6.302   7.097  1.00  0.00     0.260 C 
HETATM   14  O4  UNK     1       7.729   6.949   7.255  1.00  0.00    -0.265 OA
HETATM   15  C11 UNK     1       9.511   6.223   5.804  1.00  0.00     0.126 C 
ENDBRANCH  12  13
ENDBRANCH   7  12
TORSDOF 2
ENDMDL
