MODEL 1
REMARK VINA RESULT:     -10.7      0.000      0.000
REMARK  5 active torsions:
REMARK  status: ('A' for Active; 'I' for Inactive)
REMARK    1  A    between atoms: C5_13  and  N1_6 
REMARK    2  A    between atoms: C6_14  and  N2_7 
REMARK    3  A    between atoms: C17_25  and  N3_8 
REMARK       I    between atoms: C9_17  and  N3_8 
REMARK    4  A    between atoms: C5_13  and  C7_15 
REMARK    5  A    between atoms: C6_14  and  C9_17 
ROOT
HETATM    1  N1  UNK     1      19.270  -3.121  36.266  1.00  0.00     0.096 N 
HETATM    2  N2  UNK     1      18.298  -0.499  35.529  1.00  0.00     0.100 N 
HETATM    3  C1  UNK     1      18.513  -2.294  37.214  1.00  0.00     0.303 C 
HETATM    4  C2  UNK     1      20.005  -2.272  35.320  1.00  0.00     0.303 C 
HETATM    5  C3  UNK     1      17.562  -1.347  36.475  1.00  0.00     0.303 C 
HETATM    6  C4  UNK     1      19.053  -1.326  34.580  1.00  0.00     0.303 C 
ENDROOT
BRANCH   1   7
HETATM    7  C5  UNK     1      20.180  -4.020  36.973  1.00  0.00     0.312 C 
BRANCH   7   8
HETATM    8  C7  UNK     1      20.166  -5.395  36.402  1.00  0.00    -0.011 A 
HETATM    9  C10 UNK     1      20.255  -5.597  35.079  1.00  0.00     0.092 A 
HETATM   10  C13 UNK     1      20.246  -6.937  34.468  1.00  0.00     0.288 A 
HETATM   11  O1  UNK     1      20.140  -8.015  35.334  1.00  0.00    -0.275 OA
HETATM   12  O3  UNK     1      20.329  -7.083  33.254  1.00  0.00    -0.260 OA
HETATM   13  C11 UNK     1      20.045  -7.834  36.728  1.00  0.00     0.090 A 
HETATM   14  C8  UNK     1      20.055  -6.558  37.293  1.00  0.00     0.006 A 
HETATM   15  C14 UNK     1      19.942  -8.991  37.503  1.00  0.00     0.045 A 
HETATM   16  C12 UNK     1      19.956  -6.463  38.687  1.00  0.00     0.015 A 
HETATM   17  C16 UNK     1      19.852  -7.614  39.477  1.00  0.00     0.007 A 
HETATM   18  C15 UNK     1      19.845  -8.875  38.886  1.00  0.00    -0.059 A 
HETATM   19  C18 UNK     1      19.735 -10.097  39.733  1.00  0.00     0.048 C 
ENDBRANCH   7   8
ENDBRANCH   1   7
BRANCH   2  20
HETATM   20  C6  UNK     1      17.389   0.402  34.824  1.00  0.00     0.375 C 
BRANCH  20  21
HETATM   21  C9  UNK     1      18.160   1.616  34.335  1.00  0.00     0.250 C 
HETATM   22  O2  UNK     1      19.065   2.131  34.984  1.00  0.00    -0.271 OA
HETATM   23  N3  UNK     1      17.689   2.015  33.085  1.00  0.00    -0.326 N 
HETATM   24  H15 UNK     1      16.924   1.482  32.676  1.00  0.00     0.169 HD
BRANCH  23  25
HETATM   25  C17 UNK     1      18.143   3.099  32.297  1.00  0.00     0.036 A 
HETATM   26  C19 UNK     1      18.261   4.370  32.861  1.00  0.00     0.056 A 
HETATM   27  C21 UNK     1      18.707   5.439  32.084  1.00  0.00     0.074 A 
HETATM   28 Cl1  UNK     1      18.850   7.005  32.785  1.00  0.00    -0.081 Cl
HETATM   29  C23 UNK     1      19.036   5.237  30.743  1.00  0.00     0.138 A 
HETATM   30  C22 UNK     1      18.917   3.967  30.179  1.00  0.00     0.046 A 
HETATM   31  F1  UNK     1      19.465   6.255  29.983  1.00  0.00    -0.204 F 
HETATM   32  C20 UNK     1      18.471   2.897  30.957  1.00  0.00     0.032 A 
ENDBRANCH  23  25
ENDBRANCH  20  21
ENDBRANCH   2  20
TORSDOF 5
ENDMDL
MODEL 2
REMARK VINA RESULT:     -10.2      6.764     12.418
REMARK  5 active torsions:
REMARK  status: ('A' for Active; 'I' for Inactive)
REMARK    1  A    between atoms: C5_13  and  N1_6 
REMARK    2  A    between atoms: C6_14  and  N2_7 
REMARK    3  A    between atoms: C17_25  and  N3_8 
REMARK       I    between atoms: C9_17  and  N3_8 
REMARK    4  A    between atoms: C5_13  and  C7_15 
REMARK    5  A    between atoms: C6_14  and  C9_17 
ROOT
HETATM    1  N1  UNK     1      18.277   5.572  32.890  1.00  0.00     0.096 N 
HETATM    2  N2  UNK     1      18.851   3.950  30.567  1.00  0.00     0.100 N 
HETATM    3  C1  UNK     1      19.271   5.991  31.894  1.00  0.00     0.303 C 
HETATM    4  C2  UNK     1      18.191   4.107  32.942  1.00  0.00     0.303 C 
HETATM    5  C3  UNK     1      18.938   5.414  30.514  1.00  0.00     0.303 C 
HETATM    6  C4  UNK     1      17.856   3.531  31.562  1.00  0.00     0.303 C 
ENDROOT
BRANCH   1   7
HETATM    7  C5  UNK     1      18.599   6.120  34.207  1.00  0.00     0.312 C 
BRANCH   7   8
HETATM    8  C7  UNK     1      18.578   7.609  34.216  1.00  0.00    -0.011 A 
HETATM    9  C10 UNK     1      19.707   8.316  34.377  1.00  0.00     0.092 A 
HETATM   10  C13 UNK     1      19.737   9.789  34.392  1.00  0.00     0.288 A 
HETATM   11  O1  UNK     1      18.522  10.437  34.230  1.00  0.00    -0.275 OA
HETATM   12  O3  UNK     1      20.787  10.401  34.541  1.00  0.00    -0.260 OA
HETATM   13  C11 UNK     1      17.320   9.721  34.058  1.00  0.00     0.090 A 
HETATM   14  C8  UNK     1      17.308   8.326  34.046  1.00  0.00     0.006 A 
HETATM   15  C14 UNK     1      16.158  10.478  33.904  1.00  0.00     0.045 A 
HETATM   16  C12 UNK     1      16.072   7.688  33.871  1.00  0.00     0.015 A 
HETATM   17  C16 UNK     1      14.898   8.435  33.716  1.00  0.00     0.007 A 
HETATM   18  C15 UNK     1      14.941   9.827  33.731  1.00  0.00    -0.059 A 
HETATM   19  C18 UNK     1      13.687  10.616  33.564  1.00  0.00     0.048 C 
ENDBRANCH   7   8
ENDBRANCH   1   7
BRANCH   2  20
HETATM   20  C6  UNK     1      18.532   3.401  29.250  1.00  0.00     0.375 C 
BRANCH  20  21
HETATM   21  C9  UNK     1      18.512   1.884  29.328  1.00  0.00     0.250 C 
HETATM   22  O2  UNK     1      17.581   1.212  28.895  1.00  0.00    -0.271 OA
HETATM   23  N3  UNK     1      19.676   1.416  29.936  1.00  0.00    -0.326 N 
HETATM   24  H15 UNK     1      20.357   2.107  30.246  1.00  0.00     0.169 HD
BRANCH  23  25
HETATM   25  C17 UNK     1      20.035   0.072  30.195  1.00  0.00     0.036 A 
HETATM   26  C19 UNK     1      19.959  -0.433  31.493  1.00  0.00     0.056 A 
HETATM   27  C21 UNK     1      20.314  -1.758  31.747  1.00  0.00     0.074 A 
HETATM   28 Cl1  UNK     1      20.218  -2.376  33.351  1.00  0.00    -0.081 Cl
HETATM   29  C23 UNK     1      20.746  -2.576  30.703  1.00  0.00     0.138 A 
HETATM   30  C22 UNK     1      20.823  -2.071  29.406  1.00  0.00     0.046 A 
HETATM   31  F1  UNK     1      21.093  -3.852  30.933  1.00  0.00    -0.204 F 
HETATM   32  C20 UNK     1      20.467  -0.746  29.151  1.00  0.00     0.032 A 
ENDBRANCH  23  25
ENDBRANCH  20  21
ENDBRANCH   2  20
TORSDOF 5
ENDMDL
MODEL 3
REMARK VINA RESULT:     -10.1      6.754     12.882
REMARK  5 active torsions:
REMARK  status: ('A' for Active; 'I' for Inactive)
REMARK    1  A    between atoms: C5_13  and  N1_6 
REMARK    2  A    between atoms: C6_14  and  N2_7 
REMARK    3  A    between atoms: C17_25  and  N3_8 
REMARK       I    between atoms: C9_17  and  N3_8 
REMARK    4  A    between atoms: C5_13  and  C7_15 
REMARK    5  A    between atoms: C6_14  and  C9_17 
ROOT
HETATM    1  N1  UNK     1      18.266   6.208  32.017  1.00  0.00     0.096 N 
HETATM    2  N2  UNK     1      18.943   4.125  30.130  1.00  0.00     0.100 N 
HETATM    3  C1  UNK     1      19.324   6.399  31.018  1.00  0.00     0.303 C 
HETATM    4  C2  UNK     1      18.149   4.789  32.373  1.00  0.00     0.303 C 
HETATM    5  C3  UNK     1      19.061   5.544  29.774  1.00  0.00     0.303 C 
HETATM    6  C4  UNK     1      17.884   3.934  31.129  1.00  0.00     0.303 C 
ENDROOT
BRANCH   1   7
HETATM    7  C5  UNK     1      18.521   7.022  33.205  1.00  0.00     0.312 C 
BRANCH   7   8
HETATM    8  C7  UNK     1      17.347   7.859  33.575  1.00  0.00    -0.011 A 
HETATM    9  C10 UNK     1      16.115   7.332  33.648  1.00  0.00     0.092 A 
HETATM   10  C13 UNK     1      14.925   8.119  34.010  1.00  0.00     0.288 A 
HETATM   11  O1  UNK     1      15.126   9.464  34.280  1.00  0.00    -0.275 OA
HETATM   12  O3  UNK     1      13.815   7.603  34.067  1.00  0.00    -0.260 OA
HETATM   13  C11 UNK     1      16.408  10.046  34.212  1.00  0.00     0.090 A 
HETATM   14  C8  UNK     1      17.528   9.287  33.867  1.00  0.00     0.006 A 
HETATM   15  C14 UNK     1      16.493  11.408  34.504  1.00  0.00     0.045 A 
HETATM   16  C12 UNK     1      18.766   9.940  33.821  1.00  0.00     0.015 A 
HETATM   17  C16 UNK     1      18.866  11.306  34.111  1.00  0.00     0.007 A 
HETATM   18  C15 UNK     1      17.732  12.038  34.452  1.00  0.00    -0.059 A 
HETATM   19  C18 UNK     1      17.845  13.492  34.762  1.00  0.00     0.048 C 
ENDBRANCH   7   8
ENDBRANCH   1   7
BRANCH   2  20
HETATM   20  C6  UNK     1      18.690   3.310  28.943  1.00  0.00     0.375 C 
BRANCH  20  21
HETATM   21  C9  UNK     1      18.558   1.853  29.350  1.00  0.00     0.250 C 
HETATM   22  O2  UNK     1      17.479   1.269  29.380  1.00  0.00    -0.271 OA
HETATM   23  N3  UNK     1      19.810   1.323  29.660  1.00  0.00    -0.326 N 
HETATM   24  H15 UNK     1      20.616   1.942  29.589  1.00  0.00     0.169 HD
BRANCH  23  25
HETATM   25  C17 UNK     1      20.110   0.006  30.081  1.00  0.00     0.036 A 
HETATM   26  C19 UNK     1      19.905  -0.366  31.410  1.00  0.00     0.056 A 
HETATM   27  C21 UNK     1      20.202  -1.664  31.824  1.00  0.00     0.074 A 
HETATM   28 Cl1  UNK     1      19.947  -2.117  33.466  1.00  0.00    -0.081 Cl
HETATM   29  C23 UNK     1      20.705  -2.590  30.910  1.00  0.00     0.138 A 
HETATM   30  C22 UNK     1      20.911  -2.218  29.582  1.00  0.00     0.046 A 
HETATM   31  F1  UNK     1      20.997  -3.841  31.295  1.00  0.00    -0.204 F 
HETATM   32  C20 UNK     1      20.613  -0.920  29.167  1.00  0.00     0.032 A 
ENDBRANCH  23  25
ENDBRANCH  20  21
ENDBRANCH   2  20
TORSDOF 5
ENDMDL
MODEL 4
REMARK VINA RESULT:      -9.7      5.980     11.066
REMARK  5 active torsions:
REMARK  status: ('A' for Active; 'I' for Inactive)
REMARK    1  A    between atoms: C5_13  and  N1_6 
REMARK    2  A    between atoms: C6_14  and  N2_7 
REMARK    3  A    between atoms: C17_25  and  N3_8 
REMARK       I    between atoms: C9_17  and  N3_8 
REMARK    4  A    between atoms: C5_13  and  C7_15 
REMARK    5  A    between atoms: C6_14  and  C9_17 
ROOT
HETATM    1  N1  UNK     1      19.954  -3.866  36.904  1.00  0.00     0.096 N 
HETATM    2  N2  UNK     1      19.859  -6.723  37.339  1.00  0.00     0.100 N 
HETATM    3  C1  UNK     1      19.456  -4.779  35.868  1.00  0.00     0.303 C 
HETATM    4  C2  UNK     1      20.946  -4.544  37.748  1.00  0.00     0.303 C 
HETATM    5  C3  UNK     1      18.866  -6.047  36.494  1.00  0.00     0.303 C 
HETATM    6  C4  UNK     1      20.355  -5.811  38.376  1.00  0.00     0.303 C 
ENDROOT
BRANCH   1   7
HETATM    7  C5  UNK     1      20.520  -2.659  36.305  1.00  0.00     0.312 C 
BRANCH   7   8
HETATM    8  C7  UNK     1      19.544  -1.960  35.423  1.00  0.00    -0.011 A 
HETATM    9  C10 UNK     1      18.458  -1.359  35.931  1.00  0.00     0.092 A 
HETATM   10  C13 UNK     1      17.467  -0.655  35.100  1.00  0.00     0.288 A 
HETATM   11  O1  UNK     1      17.702  -0.635  33.733  1.00  0.00    -0.275 OA
HETATM   12  O3  UNK     1      16.487  -0.116  35.599  1.00  0.00    -0.260 OA
HETATM   13  C11 UNK     1      18.835  -1.258  33.171  1.00  0.00     0.090 A 
HETATM   14  C8  UNK     1      19.765  -1.921  33.971  1.00  0.00     0.006 A 
HETATM   15  C14 UNK     1      18.969  -1.175  31.784  1.00  0.00     0.045 A 
HETATM   16  C12 UNK     1      20.864  -2.515  33.335  1.00  0.00     0.015 A 
HETATM   17  C16 UNK     1      21.011  -2.441  31.945  1.00  0.00     0.007 A 
HETATM   18  C15 UNK     1      20.066  -1.771  31.171  1.00  0.00    -0.059 A 
HETATM   19  C18 UNK     1      20.231  -1.694  29.691  1.00  0.00     0.048 C 
ENDBRANCH   7   8
ENDBRANCH   1   7
BRANCH   2  20
HETATM   20  C6  UNK     1      19.295  -7.932  37.936  1.00  0.00     0.375 C 
BRANCH  20  21
HETATM   21  C9  UNK     1      20.362  -9.011  37.995  1.00  0.00     0.250 C 
HETATM   22  O2  UNK     1      20.400  -9.858  38.882  1.00  0.00    -0.271 OA
HETATM   23  N3  UNK     1      21.238  -8.882  36.918  1.00  0.00    -0.326 N 
HETATM   24  H15 UNK     1      21.073  -8.119  36.263  1.00  0.00     0.169 HD
BRANCH  23  25
HETATM   25  C17 UNK     1      22.361  -9.688  36.616  1.00  0.00     0.036 A 
HETATM   26  C19 UNK     1      23.647  -9.228  36.900  1.00  0.00     0.056 A 
HETATM   27  C21 UNK     1      24.754 -10.022  36.602  1.00  0.00     0.074 A 
HETATM   28 Cl1  UNK     1      26.338  -9.449  36.955  1.00  0.00    -0.081 Cl
HETATM   29  C23 UNK     1      24.574 -11.278  36.020  1.00  0.00     0.138 A 
HETATM   30  C22 UNK     1      23.289 -11.737  35.735  1.00  0.00     0.046 A 
HETATM   31  F1  UNK     1      25.629 -12.052  35.726  1.00  0.00    -0.204 F 
HETATM   32  C20 UNK     1      22.181 -10.942  36.034  1.00  0.00     0.032 A 
ENDBRANCH  23  25
ENDBRANCH  20  21
ENDBRANCH   2  20
TORSDOF 5
ENDMDL
MODEL 5
REMARK VINA RESULT:      -9.4      8.129     14.404
REMARK  5 active torsions:
REMARK  status: ('A' for Active; 'I' for Inactive)
REMARK    1  A    between atoms: C5_13  and  N1_6 
REMARK    2  A    between atoms: C6_14  and  N2_7 
REMARK    3  A    between atoms: C17_25  and  N3_8 
REMARK       I    between atoms: C9_17  and  N3_8 
REMARK    4  A    between atoms: C5_13  and  C7_15 
REMARK    5  A    between atoms: C6_14  and  C9_17 
ROOT
HETATM    1  N1  UNK     1      16.297   8.320  32.904  1.00  0.00     0.096 N 
HETATM    2  N2  UNK     1      17.536   5.710  32.783  1.00  0.00     0.100 N 
HETATM    3  C1  UNK     1      16.017   7.295  33.917  1.00  0.00     0.303 C 
HETATM    4  C2  UNK     1      16.630   7.691  31.619  1.00  0.00     0.303 C 
HETATM    5  C3  UNK     1      17.204   6.338  34.068  1.00  0.00     0.303 C 
HETATM    6  C4  UNK     1      17.818   6.735  31.770  1.00  0.00     0.303 C 
ENDROOT
BRANCH   1   7
HETATM    7  C5  UNK     1      15.162   9.230  32.758  1.00  0.00     0.312 C 
BRANCH   7   8
HETATM    8  C7  UNK     1      15.387  10.524  33.459  1.00  0.00    -0.011 A 
HETATM    9  C10 UNK     1      16.593  10.847  33.948  1.00  0.00     0.092 A 
HETATM   10  C13 UNK     1      16.864  12.115  34.647  1.00  0.00     0.288 A 
HETATM   11  O1  UNK     1      15.796  12.988  34.788  1.00  0.00    -0.275 OA
HETATM   12  O3  UNK     1      17.980  12.376  35.080  1.00  0.00    -0.260 OA
HETATM   13  C11 UNK     1      14.517  12.675  34.285  1.00  0.00     0.090 A 
HETATM   14  C8  UNK     1      14.276  11.470  33.624  1.00  0.00     0.006 A 
HETATM   15  C14 UNK     1      13.517  13.629  34.485  1.00  0.00     0.045 A 
HETATM   16  C12 UNK     1      12.977  11.235  33.155  1.00  0.00     0.015 A 
HETATM   17  C16 UNK     1      11.964  12.182  33.348  1.00  0.00     0.007 A 
HETATM   18  C15 UNK     1      12.234  13.377  34.011  1.00  0.00    -0.059 A 
HETATM   19  C18 UNK     1      11.151  14.381  34.213  1.00  0.00     0.048 C 
ENDBRANCH   7   8
ENDBRANCH   1   7
BRANCH   2  20
HETATM   20  C6  UNK     1      18.669   4.798  32.928  1.00  0.00     0.375 C 
BRANCH  20  21
HETATM   21  C9  UNK     1      18.336   3.471  32.270  1.00  0.00     0.250 C 
HETATM   22  O2  UNK     1      17.620   2.628  32.804  1.00  0.00    -0.271 OA
HETATM   23  N3  UNK     1      18.947   3.385  31.020  1.00  0.00    -0.326 N 
HETATM   24  H15 UNK     1      19.517   4.173  30.717  1.00  0.00     0.169 HD
BRANCH  23  25
HETATM   25  C17 UNK     1      18.883   2.313  30.099  1.00  0.00     0.036 A 
HETATM   26  C19 UNK     1      19.764   1.237  30.218  1.00  0.00     0.056 A 
HETATM   27  C21 UNK     1      19.701   0.181  29.309  1.00  0.00     0.074 A 
HETATM   28 Cl1  UNK     1      20.790  -1.144  29.461  1.00  0.00    -0.081 Cl
HETATM   29  C23 UNK     1      18.757   0.201  28.282  1.00  0.00     0.138 A 
HETATM   30  C22 UNK     1      17.877   1.276  28.162  1.00  0.00     0.046 A 
HETATM   31  F1  UNK     1      18.686  -0.807  27.399  1.00  0.00    -0.204 F 
HETATM   32  C20 UNK     1      17.940   2.332  29.072  1.00  0.00     0.032 A 
ENDBRANCH  23  25
ENDBRANCH  20  21
ENDBRANCH   2  20
TORSDOF 5
ENDMDL
MODEL 6
REMARK VINA RESULT:      -9.3      5.974     10.924
REMARK  5 active torsions:
REMARK  status: ('A' for Active; 'I' for Inactive)
REMARK    1  A    between atoms: C5_13  and  N1_6 
REMARK    2  A    between atoms: C6_14  and  N2_7 
REMARK    3  A    between atoms: C17_25  and  N3_8 
REMARK       I    between atoms: C9_17  and  N3_8 
REMARK    4  A    between atoms: C5_13  and  C7_15 
REMARK    5  A    between atoms: C6_14  and  C9_17 
ROOT
HETATM    1  N1  UNK     1      20.075  -3.831  36.516  1.00  0.00     0.096 N 
HETATM    2  N2  UNK     1      20.009  -6.621  37.270  1.00  0.00     0.100 N 
HETATM    3  C1  UNK     1      19.824  -4.883  35.524  1.00  0.00     0.303 C 
HETATM    4  C2  UNK     1      20.911  -4.347  37.608  1.00  0.00     0.303 C 
HETATM    5  C3  UNK     1      19.174  -6.107  36.178  1.00  0.00     0.303 C 
HETATM    6  C4  UNK     1      20.259  -5.570  38.263  1.00  0.00     0.303 C 
ENDROOT
BRANCH   1   7
HETATM    7  C5  UNK     1      20.699  -2.666  35.891  1.00  0.00     0.312 C 
BRANCH   7   8
HETATM    8  C7  UNK     1      19.788  -1.992  34.924  1.00  0.00    -0.011 A 
HETATM    9  C10 UNK     1      20.001  -2.069  33.602  1.00  0.00     0.092 A 
HETATM   10  C13 UNK     1      19.128  -1.420  32.609  1.00  0.00     0.288 A 
HETATM   11  O1  UNK     1      18.048  -0.706  33.102  1.00  0.00    -0.275 OA
HETATM   12  O3  UNK     1      19.355  -1.513  31.409  1.00  0.00    -0.260 OA
HETATM   13  C11 UNK     1      17.798  -0.608  34.487  1.00  0.00     0.090 A 
HETATM   14  C8  UNK     1      18.634  -1.228  35.416  1.00  0.00     0.006 A 
HETATM   15  C14 UNK     1      16.681   0.136  34.869  1.00  0.00     0.045 A 
HETATM   16  C12 UNK     1      18.318  -1.083  36.773  1.00  0.00     0.015 A 
HETATM   17  C16 UNK     1      17.202  -0.339  37.172  1.00  0.00     0.007 A 
HETATM   18  C15 UNK     1      16.384   0.269  36.221  1.00  0.00    -0.059 A 
HETATM   19  C18 UNK     1      15.196   1.059  36.653  1.00  0.00     0.048 C 
ENDBRANCH   7   8
ENDBRANCH   1   7
BRANCH   2  20
HETATM   20  C6  UNK     1      19.387  -7.788  37.894  1.00  0.00     0.375 C 
BRANCH  20  21
HETATM   21  C9  UNK     1      20.382  -8.935  37.923  1.00  0.00     0.250 C 
HETATM   22  O2  UNK     1      20.317  -9.848  38.740  1.00  0.00    -0.271 OA
HETATM   23  N3  UNK     1      21.327  -8.780  36.909  1.00  0.00    -0.326 N 
HETATM   24  H15 UNK     1      21.247  -7.960  36.310  1.00  0.00     0.169 HD
BRANCH  23  25
HETATM   25  C17 UNK     1      22.415  -9.632  36.605  1.00  0.00     0.036 A 
HETATM   26  C19 UNK     1      23.717  -9.236  36.911  1.00  0.00     0.056 A 
HETATM   27  C21 UNK     1      24.789 -10.076  36.610  1.00  0.00     0.074 A 
HETATM   28 Cl1  UNK     1      26.395  -9.583  36.991  1.00  0.00    -0.081 Cl
HETATM   29  C23 UNK     1      24.559 -11.310  36.002  1.00  0.00     0.138 A 
HETATM   30  C22 UNK     1      23.257 -11.705  35.695  1.00  0.00     0.046 A 
HETATM   31  F1  UNK     1      25.581 -12.127  35.705  1.00  0.00    -0.204 F 
HETATM   32  C20 UNK     1      22.185 -10.865  35.997  1.00  0.00     0.032 A 
ENDBRANCH  23  25
ENDBRANCH  20  21
ENDBRANCH   2  20
TORSDOF 5
ENDMDL
MODEL 7
REMARK VINA RESULT:      -9.3      2.418      3.090
REMARK  5 active torsions:
REMARK  status: ('A' for Active; 'I' for Inactive)
REMARK    1  A    between atoms: C5_13  and  N1_6 
REMARK    2  A    between atoms: C6_14  and  N2_7 
REMARK    3  A    between atoms: C17_25  and  N3_8 
REMARK       I    between atoms: C9_17  and  N3_8 
REMARK    4  A    between atoms: C5_13  and  C7_15 
REMARK    5  A    between atoms: C6_14  and  C9_17 
ROOT
HETATM    1  N1  UNK     1      19.734  -3.795  36.634  1.00  0.00     0.096 N 
HETATM    2  N2  UNK     1      18.640  -1.158  36.175  1.00  0.00     0.100 N 
HETATM    3  C1  UNK     1      20.378  -2.853  35.711  1.00  0.00     0.303 C 
HETATM    4  C2  UNK     1      18.288  -3.548  36.690  1.00  0.00     0.303 C 
HETATM    5  C3  UNK     1      20.086  -1.404  36.118  1.00  0.00     0.303 C 
HETATM    6  C4  UNK     1      17.996  -2.100  37.099  1.00  0.00     0.303 C 
ENDROOT
BRANCH   1   7
HETATM    7  C5  UNK     1      20.010  -5.176  36.242  1.00  0.00     0.312 C 
BRANCH   7   8
HETATM    8  C7  UNK     1      20.797  -5.906  37.274  1.00  0.00    -0.011 A 
HETATM    9  C10 UNK     1      21.890  -5.359  37.826  1.00  0.00     0.092 A 
HETATM   10  C13 UNK     1      22.700  -6.041  38.850  1.00  0.00     0.288 A 
HETATM   11  O1  UNK     1      22.282  -7.306  39.233  1.00  0.00    -0.275 OA
HETATM   12  O3  UNK     1      23.692  -5.510  39.333  1.00  0.00    -0.260 OA
HETATM   13  C11 UNK     1      21.137  -7.907  38.670  1.00  0.00     0.090 A 
HETATM   14  C8  UNK     1      20.380  -7.248  37.701  1.00  0.00     0.006 A 
HETATM   15  C14 UNK     1      20.810  -9.183  39.131  1.00  0.00     0.045 A 
HETATM   16  C12 UNK     1      19.257  -7.913  37.190  1.00  0.00     0.015 A 
HETATM   17  C16 UNK     1      18.917  -9.193  37.643  1.00  0.00     0.007 A 
HETATM   18  C15 UNK     1      19.692  -9.827  38.612  1.00  0.00    -0.059 A 
HETATM   19  C18 UNK     1      19.323 -11.190  39.090  1.00  0.00     0.048 C 
ENDBRANCH   7   8
ENDBRANCH   1   7
BRANCH   2  20
HETATM   20  C6  UNK     1      18.363   0.223  36.564  1.00  0.00     0.375 C 
BRANCH  20  21
HETATM   21  C9  UNK     1      18.792   1.158  35.447  1.00  0.00     0.250 C 
HETATM   22  O2  UNK     1      19.497   2.143  35.641  1.00  0.00    -0.271 OA
HETATM   23  N3  UNK     1      18.276   0.720  34.227  1.00  0.00    -0.326 N 
HETATM   24  H15 UNK     1      17.701  -0.120  34.232  1.00  0.00     0.169 HD
BRANCH  23  25
HETATM   25  C17 UNK     1      18.446   1.314  32.954  1.00  0.00     0.036 A 
HETATM   26  C19 UNK     1      19.009   0.579  31.911  1.00  0.00     0.056 A 
HETATM   27  C21 UNK     1      19.177   1.165  30.657  1.00  0.00     0.074 A 
HETATM   28 Cl1  UNK     1      19.872   0.253  29.372  1.00  0.00    -0.081 Cl
HETATM   29  C23 UNK     1      18.782   2.487  30.446  1.00  0.00     0.138 A 
HETATM   30  C22 UNK     1      18.221   3.222  31.489  1.00  0.00     0.046 A 
HETATM   31  F1  UNK     1      18.939   3.064  29.246  1.00  0.00    -0.204 F 
HETATM   32  C20 UNK     1      18.052   2.635  32.744  1.00  0.00     0.032 A 
ENDBRANCH  23  25
ENDBRANCH  20  21
ENDBRANCH   2  20
TORSDOF 5
ENDMDL
MODEL 8
REMARK VINA RESULT:      -9.3      6.675      9.799
REMARK  5 active torsions:
REMARK  status: ('A' for Active; 'I' for Inactive)
REMARK    1  A    between atoms: C5_13  and  N1_6 
REMARK    2  A    between atoms: C6_14  and  N2_7 
REMARK    3  A    between atoms: C17_25  and  N3_8 
REMARK       I    between atoms: C9_17  and  N3_8 
REMARK    4  A    between atoms: C5_13  and  C7_15 
REMARK    5  A    between atoms: C6_14  and  C9_17 
ROOT
HETATM    1  N1  UNK     1      18.451   4.969  32.585  1.00  0.00     0.096 N 
HETATM    2  N2  UNK     1      18.690   7.772  33.255  1.00  0.00     0.100 N 
HETATM    3  C1  UNK     1      19.519   5.801  32.017  1.00  0.00     0.303 C 
HETATM    4  C2  UNK     1      17.267   5.788  32.879  1.00  0.00     0.303 C 
HETATM    5  C3  UNK     1      19.873   6.955  32.961  1.00  0.00     0.303 C 
HETATM    6  C4  UNK     1      17.622   6.941  33.825  1.00  0.00     0.303 C 
ENDROOT
BRANCH   1   7
HETATM    7  C5  UNK     1      18.111   3.872  31.681  1.00  0.00     0.312 C 
BRANCH   7   8
HETATM    8  C7  UNK     1      18.349   2.539  32.302  1.00  0.00    -0.011 A 
HETATM    9  C10 UNK     1      18.056   2.313  33.591  1.00  0.00     0.092 A 
HETATM   10  C13 UNK     1      18.272   1.013  34.249  1.00  0.00     0.288 A 
HETATM   11  O1  UNK     1      18.805   0.001  33.465  1.00  0.00    -0.275 OA
HETATM   12  O3  UNK     1      17.993   0.844  35.429  1.00  0.00    -0.260 OA
HETATM   13  C11 UNK     1      19.122   0.209  32.107  1.00  0.00     0.090 A 
HETATM   14  C8  UNK     1      18.911   1.446  31.498  1.00  0.00     0.006 A 
HETATM   15  C14 UNK     1      19.653  -0.882  31.416  1.00  0.00     0.045 A 
HETATM   16  C12 UNK     1      19.253   1.571  30.145  1.00  0.00     0.015 A 
HETATM   17  C16 UNK     1      19.787   0.487  29.439  1.00  0.00     0.007 A 
HETATM   18  C15 UNK     1      19.986  -0.738  30.074  1.00  0.00    -0.059 A 
HETATM   19  C18 UNK     1      20.554  -1.889  29.315  1.00  0.00     0.048 C 
ENDBRANCH   7   8
ENDBRANCH   1   7
BRANCH   2  20
HETATM   20  C6  UNK     1      19.029   8.871  34.157  1.00  0.00     0.375 C 
BRANCH  20  21
HETATM   21  C9  UNK     1      18.187  10.087  33.809  1.00  0.00     0.250 C 
HETATM   22  O2  UNK     1      17.051   9.998  33.354  1.00  0.00    -0.271 OA
HETATM   23  N3  UNK     1      18.892  11.257  34.089  1.00  0.00    -0.326 N 
HETATM   24  H15 UNK     1      19.835  11.163  34.463  1.00  0.00     0.169 HD
BRANCH  23  25
HETATM   25  C17 UNK     1      18.459  12.591  33.905  1.00  0.00     0.036 A 
HETATM   26  C19 UNK     1      18.987  13.359  32.867  1.00  0.00     0.056 A 
HETATM   27  C21 UNK     1      18.560  14.675  32.687  1.00  0.00     0.074 A 
HETATM   28 Cl1  UNK     1      19.215  15.618  31.404  1.00  0.00    -0.081 Cl
HETATM   29  C23 UNK     1      17.605  15.222  33.544  1.00  0.00     0.138 A 
HETATM   30  C22 UNK     1      17.078  14.454  34.582  1.00  0.00     0.046 A 
HETATM   31  F1  UNK     1      17.186  16.486  33.384  1.00  0.00    -0.204 F 
HETATM   32  C20 UNK     1      17.505  13.138  34.762  1.00  0.00     0.032 A 
ENDBRANCH  23  25
ENDBRANCH  20  21
ENDBRANCH   2  20
TORSDOF 5
ENDMDL
MODEL 9
REMARK VINA RESULT:      -9.3     14.982     17.605
REMARK  5 active torsions:
REMARK  status: ('A' for Active; 'I' for Inactive)
REMARK    1  A    between atoms: C5_13  and  N1_6 
REMARK    2  A    between atoms: C6_14  and  N2_7 
REMARK    3  A    between atoms: C17_25  and  N3_8 
REMARK       I    between atoms: C9_17  and  N3_8 
REMARK    4  A    between atoms: C5_13  and  C7_15 
REMARK    5  A    between atoms: C6_14  and  C9_17 
ROOT
HETATM    1  N1  UNK     1      32.172  -6.041  35.938  1.00  0.00     0.096 N 
HETATM    2  N2  UNK     1      34.789  -6.575  34.831  1.00  0.00     0.100 N 
HETATM    3  C1  UNK     1      32.436  -7.255  35.156  1.00  0.00     0.303 C 
HETATM    4  C2  UNK     1      33.054  -4.951  35.502  1.00  0.00     0.303 C 
HETATM    5  C3  UNK     1      33.908  -7.666  35.266  1.00  0.00     0.303 C 
HETATM    6  C4  UNK     1      34.526  -5.362  35.614  1.00  0.00     0.303 C 
ENDROOT
BRANCH   1   7
HETATM    7  C5  UNK     1      30.768  -5.648  35.828  1.00  0.00     0.312 C 
BRANCH   7   8
HETATM    8  C7  UNK     1      30.088  -5.622  37.153  1.00  0.00    -0.011 A 
HETATM    9  C10 UNK     1      30.121  -4.527  37.927  1.00  0.00     0.092 A 
HETATM   10  C13 UNK     1      29.462  -4.452  39.242  1.00  0.00     0.288 A 
HETATM   11  O1  UNK     1      28.788  -5.587  39.666  1.00  0.00    -0.275 OA
HETATM   12  O3  UNK     1      29.514  -3.434  39.922  1.00  0.00    -0.260 OA
HETATM   13  C11 UNK     1      28.737  -6.753  38.874  1.00  0.00     0.090 A 
HETATM   14  C8  UNK     1      29.365  -6.808  37.629  1.00  0.00     0.006 A 
HETATM   15  C14 UNK     1      28.030  -7.835  39.401  1.00  0.00     0.045 A 
HETATM   16  C12 UNK     1      29.267  -8.003  36.904  1.00  0.00     0.015 A 
HETATM   17  C16 UNK     1      28.562  -9.097  37.420  1.00  0.00     0.007 A 
HETATM   18  C15 UNK     1      27.944  -9.013  38.666  1.00  0.00    -0.059 A 
HETATM   19  C18 UNK     1      27.194 -10.181  39.208  1.00  0.00     0.048 C 
ENDBRANCH   7   8
ENDBRANCH   1   7
BRANCH   2  20
HETATM   20  C6  UNK     1      36.193  -6.968  34.938  1.00  0.00     0.375 C 
BRANCH  20  21
HETATM   21  C9  UNK     1      36.576  -7.805  33.730  1.00  0.00     0.250 C 
HETATM   22  O2  UNK     1      36.553  -7.365  32.585  1.00  0.00    -0.271 OA
HETATM   23  N3  UNK     1      36.944  -9.089  34.130  1.00  0.00    -0.326 N 
HETATM   24  H15 UNK     1      36.907  -9.304  35.125  1.00  0.00     0.169 HD
BRANCH  23  25
HETATM   25  C17 UNK     1      37.363 -10.163  33.309  1.00  0.00     0.036 A 
HETATM   26  C19 UNK     1      38.621 -10.131  32.707  1.00  0.00     0.056 A 
HETATM   27  C21 UNK     1      39.034 -11.188  31.897  1.00  0.00     0.074 A 
HETATM   28 Cl1  UNK     1      40.588 -11.143  31.156  1.00  0.00    -0.081 Cl
HETATM   29  C23 UNK     1      38.188 -12.278  31.689  1.00  0.00     0.138 A 
HETATM   30  C22 UNK     1      36.930 -12.310  32.290  1.00  0.00     0.046 A 
HETATM   31  F1  UNK     1      38.570 -13.302  30.911  1.00  0.00    -0.204 F 
HETATM   32  C20 UNK     1      36.517 -11.252  33.101  1.00  0.00     0.032 A 
ENDBRANCH  23  25
ENDBRANCH  20  21
ENDBRANCH   2  20
TORSDOF 5
ENDMDL
MODEL 10
REMARK VINA RESULT:      -9.3      6.676      9.490
REMARK  5 active torsions:
REMARK  status: ('A' for Active; 'I' for Inactive)
REMARK    1  A    between atoms: C5_13  and  N1_6 
REMARK    2  A    between atoms: C6_14  and  N2_7 
REMARK    3  A    between atoms: C17_25  and  N3_8 
REMARK       I    between atoms: C9_17  and  N3_8 
REMARK    4  A    between atoms: C5_13  and  C7_15 
REMARK    5  A    between atoms: C6_14  and  C9_17 
ROOT
HETATM    1  N1  UNK     1      18.363   4.957  32.551  1.00  0.00     0.096 N 
HETATM    2  N2  UNK     1      18.545   7.760  33.236  1.00  0.00     0.100 N 
HETATM    3  C1  UNK     1      19.484   5.783  32.089  1.00  0.00     0.303 C 
HETATM    4  C2  UNK     1      17.159   5.780  32.727  1.00  0.00     0.303 C 
HETATM    5  C3  UNK     1      19.749   6.939  33.060  1.00  0.00     0.303 C 
HETATM    6  C4  UNK     1      17.424   6.935  33.700  1.00  0.00     0.303 C 
ENDROOT
BRANCH   1   7
HETATM    7  C5  UNK     1      18.109   3.859  31.621  1.00  0.00     0.312 C 
BRANCH   7   8
HETATM    8  C7  UNK     1      18.350   2.528  32.245  1.00  0.00    -0.011 A 
HETATM    9  C10 UNK     1      18.062   2.305  33.535  1.00  0.00     0.092 A 
HETATM   10  C13 UNK     1      18.282   1.007  34.195  1.00  0.00     0.288 A 
HETATM   11  O1  UNK     1      18.814  -0.006  33.413  1.00  0.00    -0.275 OA
HETATM   12  O3  UNK     1      18.006   0.840  35.377  1.00  0.00    -0.260 OA
HETATM   13  C11 UNK     1      19.127   0.198  32.054  1.00  0.00     0.090 A 
HETATM   14  C8  UNK     1      18.913   1.434  31.443  1.00  0.00     0.006 A 
HETATM   15  C14 UNK     1      19.659  -0.893  31.364  1.00  0.00     0.045 A 
HETATM   16  C12 UNK     1      19.251   1.556  30.088  1.00  0.00     0.015 A 
HETATM   17  C16 UNK     1      19.785   0.471  29.384  1.00  0.00     0.007 A 
HETATM   18  C15 UNK     1      19.988  -0.751  30.020  1.00  0.00    -0.059 A 
HETATM   19  C18 UNK     1      20.556  -1.904  29.264  1.00  0.00     0.048 C 
ENDBRANCH   7   8
ENDBRANCH   1   7
BRANCH   2  20
HETATM   20  C6  UNK     1      18.799   8.861  34.164  1.00  0.00     0.375 C 
BRANCH  20  21
HETATM   21  C9  UNK     1      17.780   9.963  33.929  1.00  0.00     0.250 C 
HETATM   22  O2  UNK     1      18.080  11.051  33.448  1.00  0.00    -0.271 OA
HETATM   23  N3  UNK     1      16.513   9.541  34.330  1.00  0.00    -0.326 N 
HETATM   24  H15 UNK     1      16.427   8.603  34.716  1.00  0.00     0.169 HD
BRANCH  23  25
HETATM   25  C17 UNK     1      15.302  10.272  34.276  1.00  0.00     0.036 A 
HETATM   26  C19 UNK     1      14.884  11.012  35.383  1.00  0.00     0.056 A 
HETATM   27  C21 UNK     1      13.691  11.731  35.329  1.00  0.00     0.074 A 
HETATM   28 Cl1  UNK     1      13.179  12.643  36.698  1.00  0.00    -0.081 Cl
HETATM   29  C23 UNK     1      12.915  11.711  34.169  1.00  0.00     0.138 A 
HETATM   30  C22 UNK     1      13.333  10.971  33.064  1.00  0.00     0.046 A 
HETATM   31  F1  UNK     1      11.764  12.397  34.104  1.00  0.00    -0.204 F 
HETATM   32  C20 UNK     1      14.527  10.252  33.117  1.00  0.00     0.032 A 
ENDBRANCH  23  25
ENDBRANCH  20  21
ENDBRANCH   2  20
TORSDOF 5
ENDMDL
