MODEL 1
REMARK VINA RESULT:      -7.9      0.000      0.000
REMARK  4 active torsions:
REMARK  status: ('A' for Active; 'I' for Inactive)
REMARK    1  A    between atoms: C5_9  and  N1_3 
REMARK       I    between atoms: C6_10  and  N2_4 
REMARK    2  A    between atoms: C6_10  and  C7_11 
REMARK    3  A    between atoms: C10_14  and  C7_11 
REMARK    4  A    between atoms: C11_15  and  C15_19 
ROOT
HETATM    1  C7  UNK     1      30.741  -6.001  35.501  1.00  0.00     0.043 C 
HETATM    2  C11 UNK     1      29.453  -6.090  35.876  1.00  0.00     0.031 C 
ENDROOT
BRANCH   1   3
HETATM    3  C10 UNK     1      31.898  -6.376  36.326  1.00  0.00    -0.021 A 
HETATM    4  C16 UNK     1      32.497  -5.423  37.138  1.00  0.00     0.012 A 
HETATM    5  C18 UNK     1      33.593  -5.782  37.923  1.00  0.00     0.001 A 
HETATM    6  C22 UNK     1      34.079  -7.088  37.887  1.00  0.00     0.000 A 
HETATM    7  C19 UNK     1      33.469  -8.037  37.066  1.00  0.00     0.001 A 
HETATM    8  C17 UNK     1      32.373  -7.679  36.281  1.00  0.00     0.012 A 
ENDBRANCH   1   3
BRANCH   1   9
HETATM    9  C6  UNK     1      30.960  -5.474  34.138  1.00  0.00     0.254 C 
HETATM   10  O1  UNK     1      31.578  -4.415  34.019  1.00  0.00    -0.267 OA
HETATM   11  N2  UNK     1      30.458  -6.225  33.078  1.00  0.00    -0.345 N 
HETATM   12  C3  UNK     1      30.660  -5.750  31.711  1.00  0.00     0.146 C 
HETATM   13  C4  UNK     1      29.723  -7.487  33.221  1.00  0.00     0.146 C 
HETATM   14  C1  UNK     1      30.893  -6.906  30.741  1.00  0.00     0.143 C 
HETATM   15  N1  UNK     1      29.773  -7.852  30.783  1.00  0.00    -0.378 N 
HETATM   16  C2  UNK     1      28.920  -7.860  31.973  1.00  0.00     0.143 C 
BRANCH  15  17
HETATM   17  C5  UNK     1      29.497  -8.670  29.690  1.00  0.00     0.030 A 
HETATM   18  C8  UNK     1      28.192  -9.162  29.448  1.00  0.00     0.029 A 
HETATM   19  C12 UNK     1      27.915  -9.980  28.354  1.00  0.00     0.002 A 
HETATM   20  C14 UNK     1      28.934 -10.329  27.468  1.00  0.00     0.000 A 
HETATM   21  C13 UNK     1      30.232  -9.861  27.679  1.00  0.00     0.002 A 
HETATM   22  C9  UNK     1      30.509  -9.043  28.774  1.00  0.00     0.029 A 
ENDBRANCH  15  17
ENDBRANCH   1   9
BRANCH   2  23
HETATM   23  C15 UNK     1      28.966  -6.608  37.162  1.00  0.00    -0.013 A 
HETATM   24  C20 UNK     1      28.884  -5.803  38.291  1.00  0.00     0.044 A 
HETATM   25 Cl1  UNK     1      29.347  -4.137  38.275  1.00  0.00    -0.083 Cl
HETATM   26  C23 UNK     1      28.414  -6.343  39.489  1.00  0.00     0.024 A 
HETATM   27  C25 UNK     1      28.029  -7.682  39.547  1.00  0.00     0.002 A 
HETATM   28  C24 UNK     1      28.114  -8.483  38.407  1.00  0.00     0.001 A 
HETATM   29  C21 UNK     1      28.585  -7.942  37.210  1.00  0.00     0.013 A 
ENDBRANCH   2  23
TORSDOF 4
ENDMDL
MODEL 2
REMARK VINA RESULT:      -7.9      3.965      7.539
REMARK  4 active torsions:
REMARK  status: ('A' for Active; 'I' for Inactive)
REMARK    1  A    between atoms: C5_9  and  N1_3 
REMARK       I    between atoms: C6_10  and  N2_4 
REMARK    2  A    between atoms: C6_10  and  C7_11 
REMARK    3  A    between atoms: C10_14  and  C7_11 
REMARK    4  A    between atoms: C11_15  and  C15_19 
ROOT
HETATM    1  C7  UNK     1      30.776  -8.913  37.525  1.00  0.00     0.043 C 
HETATM    2  C11 UNK     1      31.353  -7.839  38.094  1.00  0.00     0.031 C 
ENDROOT
BRANCH   1   3
HETATM    3  C10 UNK     1      31.018  -9.387  36.157  1.00  0.00    -0.021 A 
HETATM    4  C16 UNK     1      31.612 -10.626  35.957  1.00  0.00     0.012 A 
HETATM    5  C18 UNK     1      31.839 -11.077  34.657  1.00  0.00     0.001 A 
HETATM    6  C22 UNK     1      31.471 -10.285  33.570  1.00  0.00     0.000 A 
HETATM    7  C19 UNK     1      30.874  -9.042  33.782  1.00  0.00     0.001 A 
HETATM    8  C17 UNK     1      30.647  -8.591  35.083  1.00  0.00     0.012 A 
ENDBRANCH   1   3
BRANCH   1   9
HETATM    9  C6  UNK     1      29.826  -9.642  38.391  1.00  0.00     0.254 C 
HETATM   10  O1  UNK     1      30.283 -10.441  39.209  1.00  0.00    -0.267 OA
HETATM   11  N2  UNK     1      28.471  -9.362  38.225  1.00  0.00    -0.345 N 
HETATM   12  C3  UNK     1      27.494 -10.050  39.066  1.00  0.00     0.146 C 
HETATM   13  C4  UNK     1      27.926  -8.410  37.250  1.00  0.00     0.146 C 
HETATM   14  C1  UNK     1      26.323  -9.140  39.430  1.00  0.00     0.143 C 
HETATM   15  N1  UNK     1      25.671  -8.627  38.222  1.00  0.00    -0.378 N 
HETATM   16  C2  UNK     1      26.437  -8.619  36.974  1.00  0.00     0.143 C 
BRANCH  15  17
HETATM   17  C5  UNK     1      24.338  -8.220  38.255  1.00  0.00     0.030 A 
HETATM   18  C8  UNK     1      23.880  -7.278  39.207  1.00  0.00     0.029 A 
HETATM   19  C12 UNK     1      22.547  -6.870  39.240  1.00  0.00     0.002 A 
HETATM   20  C14 UNK     1      21.635  -7.390  38.322  1.00  0.00     0.000 A 
HETATM   21  C13 UNK     1      22.056  -8.320  37.371  1.00  0.00     0.002 A 
HETATM   22  C9  UNK     1      23.389  -8.729  37.339  1.00  0.00     0.029 A 
ENDBRANCH  15  17
ENDBRANCH   1   9
BRANCH   2  23
HETATM   23  C15 UNK     1      32.353  -6.966  37.463  1.00  0.00    -0.013 A 
HETATM   24  C20 UNK     1      32.000  -5.765  36.861  1.00  0.00     0.044 A 
HETATM   25 Cl1  UNK     1      30.365  -5.204  36.806  1.00  0.00    -0.083 Cl
HETATM   26  C23 UNK     1      32.987  -4.971  36.276  1.00  0.00     0.024 A 
HETATM   27  C25 UNK     1      34.318  -5.385  36.299  1.00  0.00     0.002 A 
HETATM   28  C24 UNK     1      34.664  -6.593  36.906  1.00  0.00     0.001 A 
HETATM   29  C21 UNK     1      33.676  -7.386  37.490  1.00  0.00     0.013 A 
ENDBRANCH   2  23
TORSDOF 4
ENDMDL
MODEL 3
REMARK VINA RESULT:      -7.7      6.891     10.275
REMARK  4 active torsions:
REMARK  status: ('A' for Active; 'I' for Inactive)
REMARK    1  A    between atoms: C5_9  and  N1_3 
REMARK       I    between atoms: C6_10  and  N2_4 
REMARK    2  A    between atoms: C6_10  and  C7_11 
REMARK    3  A    between atoms: C10_14  and  C7_11 
REMARK    4  A    between atoms: C11_15  and  C15_19 
ROOT
HETATM    1  C7  UNK     1      21.927  -9.278  36.760  1.00  0.00     0.043 C 
HETATM    2  C11 UNK     1      21.663  -8.170  36.045  1.00  0.00     0.031 C 
ENDROOT
BRANCH   1   3
HETATM    3  C10 UNK     1      21.056  -9.854  37.793  1.00  0.00    -0.021 A 
HETATM    4  C16 UNK     1      21.005  -9.267  39.050  1.00  0.00     0.012 A 
HETATM    5  C18 UNK     1      20.176  -9.813  40.029  1.00  0.00     0.001 A 
HETATM    6  C22 UNK     1      19.406 -10.940  39.743  1.00  0.00     0.000 A 
HETATM    7  C19 UNK     1      19.465 -11.522  38.476  1.00  0.00     0.001 A 
HETATM    8  C17 UNK     1      20.295 -10.976  37.496  1.00  0.00     0.012 A 
ENDBRANCH   1   3
BRANCH   1   9
HETATM    9  C6  UNK     1      23.212  -9.935  36.443  1.00  0.00     0.254 C 
HETATM   10  O1  UNK     1      23.191 -10.930  35.717  1.00  0.00    -0.267 OA
HETATM   11  N2  UNK     1      24.365  -9.370  36.983  1.00  0.00    -0.345 N 
HETATM   12  C3  UNK     1      25.661  -9.977  36.689  1.00  0.00     0.146 C 
HETATM   13  C4  UNK     1      24.390  -8.184  37.848  1.00  0.00     0.146 C 
HETATM   14  C1  UNK     1      26.757  -8.924  36.543  1.00  0.00     0.143 C 
HETATM   15  N1  UNK     1      26.852  -8.104  37.754  1.00  0.00    -0.378 N 
HETATM   16  C2  UNK     1      25.689  -8.047  38.642  1.00  0.00     0.143 C 
BRANCH  15  17
HETATM   17  C5  UNK     1      28.041  -7.452  38.076  1.00  0.00     0.030 A 
HETATM   18  C8  UNK     1      29.299  -8.018  37.762  1.00  0.00     0.029 A 
HETATM   19  C12 UNK     1      30.489  -7.366  38.083  1.00  0.00     0.002 A 
HETATM   20  C14 UNK     1      30.455  -6.128  38.724  1.00  0.00     0.000 A 
HETATM   21  C13 UNK     1      29.230  -5.543  39.047  1.00  0.00     0.002 A 
HETATM   22  C9  UNK     1      28.040  -6.196  38.727  1.00  0.00     0.029 A 
ENDBRANCH  15  17
ENDBRANCH   1   9
BRANCH   2  23
HETATM   23  C15 UNK     1      20.446  -7.353  36.143  1.00  0.00    -0.013 A 
HETATM   24  C20 UNK     1      20.402  -6.194  36.907  1.00  0.00     0.044 A 
HETATM   25 Cl1  UNK     1      21.768  -5.622  37.799  1.00  0.00    -0.083 Cl
HETATM   26  C23 UNK     1      19.221  -5.453  36.967  1.00  0.00     0.024 A 
HETATM   27  C25 UNK     1      18.095  -5.877  36.262  1.00  0.00     0.002 A 
HETATM   28  C24 UNK     1      18.149  -7.043  35.497  1.00  0.00     0.001 A 
HETATM   29  C21 UNK     1      19.330  -7.783  35.438  1.00  0.00     0.013 A 
ENDBRANCH   2  23
TORSDOF 4
ENDMDL
MODEL 4
REMARK VINA RESULT:      -7.7      2.191      3.030
REMARK  4 active torsions:
REMARK  status: ('A' for Active; 'I' for Inactive)
REMARK    1  A    between atoms: C5_9  and  N1_3 
REMARK       I    between atoms: C6_10  and  N2_4 
REMARK    2  A    between atoms: C6_10  and  C7_11 
REMARK    3  A    between atoms: C10_14  and  C7_11 
REMARK    4  A    between atoms: C11_15  and  C15_19 
ROOT
HETATM    1  C7  UNK     1      30.756  -8.406  36.644  1.00  0.00     0.043 C 
HETATM    2  C11 UNK     1      29.951  -9.446  36.924  1.00  0.00     0.031 C 
ENDROOT
BRANCH   1   3
HETATM    3  C10 UNK     1      30.714  -7.093  37.300  1.00  0.00    -0.021 A 
HETATM    4  C16 UNK     1      29.696  -6.204  36.985  1.00  0.00     0.012 A 
HETATM    5  C18 UNK     1      29.655  -4.958  37.611  1.00  0.00     0.001 A 
HETATM    6  C22 UNK     1      30.633  -4.613  38.543  1.00  0.00     0.000 A 
HETATM    7  C19 UNK     1      31.651  -5.515  38.852  1.00  0.00     0.001 A 
HETATM    8  C17 UNK     1      31.692  -6.761  38.226  1.00  0.00     0.012 A 
ENDBRANCH   1   3
BRANCH   1   9
HETATM    9  C6  UNK     1      31.750  -8.657  35.579  1.00  0.00     0.254 C 
HETATM   10  O1  UNK     1      32.924  -8.825  35.910  1.00  0.00    -0.267 OA
HETATM   11  N2  UNK     1      31.281  -8.696  34.268  1.00  0.00    -0.345 N 
HETATM   12  C3  UNK     1      32.224  -8.951  33.182  1.00  0.00     0.146 C 
HETATM   13  C4  UNK     1      29.882  -8.496  33.874  1.00  0.00     0.146 C 
HETATM   14  C1  UNK     1      31.594  -9.793  32.074  1.00  0.00     0.143 C 
HETATM   15  N1  UNK     1      30.390  -9.142  31.550  1.00  0.00    -0.378 N 
HETATM   16  C2  UNK     1      29.717  -8.152  32.393  1.00  0.00     0.143 C 
BRANCH  15  17
HETATM   17  C5  UNK     1      29.942  -9.418  30.259  1.00  0.00     0.030 A 
HETATM   18  C8  UNK     1      30.846  -9.739  29.219  1.00  0.00     0.029 A 
HETATM   19  C12 UNK     1      30.398 -10.016  27.928  1.00  0.00     0.002 A 
HETATM   20  C14 UNK     1      29.034  -9.981  27.639  1.00  0.00     0.000 A 
HETATM   21  C13 UNK     1      28.118  -9.666  28.643  1.00  0.00     0.002 A 
HETATM   22  C9  UNK     1      28.565  -9.389  29.934  1.00  0.00     0.029 A 
ENDBRANCH  15  17
ENDBRANCH   1   9
BRANCH   2  23
HETATM   23  C15 UNK     1      28.905  -9.468  37.957  1.00  0.00    -0.013 A 
HETATM   24  C20 UNK     1      27.601  -9.072  37.687  1.00  0.00     0.044 A 
HETATM   25 Cl1  UNK     1      27.106  -8.523  36.124  1.00  0.00    -0.083 Cl
HETATM   26  C23 UNK     1      26.645  -9.113  38.703  1.00  0.00     0.024 A 
HETATM   27  C25 UNK     1      27.001  -9.550  39.978  1.00  0.00     0.002 A 
HETATM   28  C24 UNK     1      28.313  -9.947  40.240  1.00  0.00     0.001 A 
HETATM   29  C21 UNK     1      29.269  -9.905  39.224  1.00  0.00     0.013 A 
ENDBRANCH   2  23
TORSDOF 4
ENDMDL
MODEL 5
REMARK VINA RESULT:      -7.7     32.476     34.469
REMARK  4 active torsions:
REMARK  status: ('A' for Active; 'I' for Inactive)
REMARK    1  A    between atoms: C5_9  and  N1_3 
REMARK       I    between atoms: C6_10  and  N2_4 
REMARK    2  A    between atoms: C6_10  and  C7_11 
REMARK    3  A    between atoms: C10_14  and  C7_11 
REMARK    4  A    between atoms: C11_15  and  C15_19 
ROOT
HETATM    1  C7  UNK     1      16.496  10.105  10.108  1.00  0.00     0.043 C 
HETATM    2  C11 UNK     1      17.328  10.070   9.053  1.00  0.00     0.031 C 
ENDROOT
BRANCH   1   3
HETATM    3  C10 UNK     1      16.128  11.309  10.865  1.00  0.00    -0.021 A 
HETATM    4  C16 UNK     1      17.126  12.160  11.323  1.00  0.00     0.012 A 
HETATM    5  C18 UNK     1      16.776  13.304  12.040  1.00  0.00     0.001 A 
HETATM    6  C22 UNK     1      15.433  13.587  12.291  1.00  0.00     0.000 A 
HETATM    7  C19 UNK     1      14.440  12.725  11.825  1.00  0.00     0.001 A 
HETATM    8  C17 UNK     1      14.790  11.580  11.109  1.00  0.00     0.012 A 
ENDBRANCH   1   3
BRANCH   1   9
HETATM    9  C6  UNK     1      15.929   8.798  10.500  1.00  0.00     0.254 C 
HETATM   10  O1  UNK     1      16.404   8.234  11.487  1.00  0.00    -0.267 OA
HETATM   11  N2  UNK     1      14.883   8.300   9.727  1.00  0.00    -0.345 N 
HETATM   12  C3  UNK     1      14.284   7.016  10.083  1.00  0.00     0.146 C 
HETATM   13  C4  UNK     1      14.318   8.973   8.552  1.00  0.00     0.146 C 
HETATM   14  C1  UNK     1      12.779   7.005   9.823  1.00  0.00     0.143 C 
HETATM   15  N1  UNK     1      12.493   7.320   8.420  1.00  0.00    -0.378 N 
HETATM   16  C2  UNK     1      13.514   8.034   7.651  1.00  0.00     0.143 C 
BRANCH  15  17
HETATM   17  C5  UNK     1      11.307   6.892   7.826  1.00  0.00     0.030 A 
HETATM   18  C8  UNK     1      11.239   6.600   6.444  1.00  0.00     0.029 A 
HETATM   19  C12 UNK     1      10.054   6.170   5.849  1.00  0.00     0.002 A 
HETATM   20  C14 UNK     1       8.902   6.017   6.621  1.00  0.00     0.000 A 
HETATM   21  C13 UNK     1       8.936   6.298   7.987  1.00  0.00     0.002 A 
HETATM   22  C9  UNK     1      10.122   6.729   8.581  1.00  0.00     0.029 A 
ENDBRANCH  15  17
ENDBRANCH   1   9
BRANCH   2  23
HETATM   23  C15 UNK     1      17.996  11.230   8.445  1.00  0.00    -0.013 A 
HETATM   24  C20 UNK     1      17.323  12.103   7.601  1.00  0.00     0.044 A 
HETATM   25 Cl1  UNK     1      15.654  11.897   7.198  1.00  0.00    -0.083 Cl
HETATM   26  C23 UNK     1      18.002  13.190   7.051  1.00  0.00     0.024 A 
HETATM   27  C25 UNK     1      19.349  13.395   7.350  1.00  0.00     0.002 A 
HETATM   28  C24 UNK     1      20.017  12.513   8.200  1.00  0.00     0.001 A 
HETATM   29  C21 UNK     1      19.337  11.425   8.749  1.00  0.00     0.013 A 
ENDBRANCH   2  23
TORSDOF 4
ENDMDL
MODEL 6
REMARK VINA RESULT:      -7.7      3.899      8.121
REMARK  4 active torsions:
REMARK  status: ('A' for Active; 'I' for Inactive)
REMARK    1  A    between atoms: C5_9  and  N1_3 
REMARK       I    between atoms: C6_10  and  N2_4 
REMARK    2  A    between atoms: C6_10  and  C7_11 
REMARK    3  A    between atoms: C10_14  and  C7_11 
REMARK    4  A    between atoms: C11_15  and  C15_19 
ROOT
HETATM    1  C7  UNK     1      34.820  -7.835  33.753  1.00  0.00     0.043 C 
HETATM    2  C11 UNK     1      34.062  -7.150  32.878  1.00  0.00     0.031 C 
ENDROOT
BRANCH   1   3
HETATM    3  C10 UNK     1      35.669  -8.988  33.426  1.00  0.00    -0.021 A 
HETATM    4  C16 UNK     1      37.035  -8.805  33.258  1.00  0.00     0.012 A 
HETATM    5  C18 UNK     1      37.841  -9.901  32.950  1.00  0.00     0.001 A 
HETATM    6  C22 UNK     1      37.274 -11.168  32.813  1.00  0.00     0.000 A 
HETATM    7  C19 UNK     1      35.900 -11.339  32.985  1.00  0.00     0.001 A 
HETATM    8  C17 UNK     1      35.094 -10.243  33.292  1.00  0.00     0.012 A 
ENDBRANCH   1   3
BRANCH   1   9
HETATM    9  C6  UNK     1      34.757  -7.349  35.147  1.00  0.00     0.254 C 
HETATM   10  O1  UNK     1      35.685  -6.651  35.559  1.00  0.00    -0.267 OA
HETATM   11  N2  UNK     1      33.640  -7.708  35.896  1.00  0.00    -0.345 N 
HETATM   12  C3  UNK     1      33.528  -7.242  37.276  1.00  0.00     0.146 C 
HETATM   13  C4  UNK     1      32.535  -8.539  35.405  1.00  0.00     0.146 C 
HETATM   14  C1  UNK     1      32.082  -6.922  37.649  1.00  0.00     0.143 C 
HETATM   15  N1  UNK     1      31.223  -8.093  37.444  1.00  0.00    -0.378 N 
HETATM   16  C2  UNK     1      31.686  -9.137  36.528  1.00  0.00     0.143 C 
BRANCH  15  17
HETATM   17  C5  UNK     1      30.032  -8.229  38.154  1.00  0.00     0.030 A 
HETATM   18  C8  UNK     1      29.310  -7.099  38.606  1.00  0.00     0.029 A 
HETATM   19  C12 UNK     1      28.118  -7.235  39.316  1.00  0.00     0.002 A 
HETATM   20  C14 UNK     1      27.612  -8.505  39.593  1.00  0.00     0.000 A 
HETATM   21  C13 UNK     1      28.301  -9.639  39.162  1.00  0.00     0.002 A 
HETATM   22  C9  UNK     1      29.494  -9.503  38.453  1.00  0.00     0.029 A 
ENDBRANCH  15  17
ENDBRANCH   1   9
BRANCH   2  23
HETATM   23  C15 UNK     1      33.971  -7.408  31.434  1.00  0.00    -0.013 A 
HETATM   24  C20 UNK     1      32.924  -8.138  30.886  1.00  0.00     0.044 A 
HETATM   25 Cl1  UNK     1      31.652  -8.799  31.853  1.00  0.00    -0.083 Cl
HETATM   26  C23 UNK     1      32.883  -8.355  29.508  1.00  0.00     0.024 A 
HETATM   27  C25 UNK     1      33.888  -7.838  28.691  1.00  0.00     0.002 A 
HETATM   28  C24 UNK     1      34.935  -7.105  29.250  1.00  0.00     0.001 A 
HETATM   29  C21 UNK     1      34.976  -6.889  30.628  1.00  0.00     0.013 A 
ENDBRANCH   2  23
TORSDOF 4
ENDMDL
MODEL 7
REMARK VINA RESULT:      -7.7      2.404      3.863
REMARK  4 active torsions:
REMARK  status: ('A' for Active; 'I' for Inactive)
REMARK    1  A    between atoms: C5_9  and  N1_3 
REMARK       I    between atoms: C6_10  and  N2_4 
REMARK    2  A    between atoms: C6_10  and  C7_11 
REMARK    3  A    between atoms: C10_14  and  C7_11 
REMARK    4  A    between atoms: C11_15  and  C15_19 
ROOT
HETATM    1  C7  UNK     1      30.147  -8.684  36.892  1.00  0.00     0.043 C 
HETATM    2  C11 UNK     1      30.548  -7.401  36.909  1.00  0.00     0.031 C 
ENDROOT
BRANCH   1   3
HETATM    3  C10 UNK     1      29.024  -9.237  37.663  1.00  0.00    -0.021 A 
HETATM    4  C16 UNK     1      29.212  -9.579  38.995  1.00  0.00     0.012 A 
HETATM    5  C18 UNK     1      28.145 -10.101  39.726  1.00  0.00     0.001 A 
HETATM    6  C22 UNK     1      26.903 -10.277  39.118  1.00  0.00     0.000 A 
HETATM    7  C19 UNK     1      26.726  -9.929  37.779  1.00  0.00     0.001 A 
HETATM    8  C17 UNK     1      27.792  -9.406  37.048  1.00  0.00     0.012 A 
ENDBRANCH   1   3
BRANCH   1   9
HETATM    9  C6  UNK     1      30.932  -9.573  36.011  1.00  0.00     0.254 C 
HETATM   10  O1  UNK     1      31.740 -10.341  36.535  1.00  0.00    -0.267 OA
HETATM   11  N2  UNK     1      30.692  -9.486  34.642  1.00  0.00    -0.345 N 
HETATM   12  C3  UNK     1      31.437 -10.352  33.732  1.00  0.00     0.146 C 
HETATM   13  C4  UNK     1      29.729  -8.571  34.018  1.00  0.00     0.146 C 
HETATM   14  C1  UNK     1      30.577 -10.805  32.554  1.00  0.00     0.143 C 
HETATM   15  N1  UNK     1      30.048  -9.648  31.824  1.00  0.00    -0.378 N 
HETATM   16  C2  UNK     1      29.978  -8.364  32.524  1.00  0.00     0.143 C 
BRANCH  15  17
HETATM   17  C5  UNK     1      29.686  -9.763  30.483  1.00  0.00     0.030 A 
HETATM   18  C8  UNK     1      28.380  -9.444  30.043  1.00  0.00     0.029 A 
HETATM   19  C12 UNK     1      28.017  -9.557  28.701  1.00  0.00     0.002 A 
HETATM   20  C14 UNK     1      28.951  -9.991  27.761  1.00  0.00     0.000 A 
HETATM   21  C13 UNK     1      30.248 -10.314  28.163  1.00  0.00     0.002 A 
HETATM   22  C9  UNK     1      30.609 -10.201  29.505  1.00  0.00     0.029 A 
ENDBRANCH  15  17
ENDBRANCH   1   9
BRANCH   2  23
HETATM   23  C15 UNK     1      29.920  -6.314  37.673  1.00  0.00    -0.013 A 
HETATM   24  C20 UNK     1      30.674  -5.394  38.391  1.00  0.00     0.044 A 
HETATM   25 Cl1  UNK     1      32.401  -5.455  38.444  1.00  0.00    -0.083 Cl
HETATM   26  C23 UNK     1      30.030  -4.379  39.100  1.00  0.00     0.024 A 
HETATM   27  C25 UNK     1      28.638  -4.293  39.083  1.00  0.00     0.002 A 
HETATM   28  C24 UNK     1      27.889  -5.221  38.358  1.00  0.00     0.001 A 
HETATM   29  C21 UNK     1      28.534  -6.235  37.650  1.00  0.00     0.013 A 
ENDBRANCH   2  23
TORSDOF 4
ENDMDL
MODEL 8
REMARK VINA RESULT:      -7.6      3.415      5.056
REMARK  4 active torsions:
REMARK  status: ('A' for Active; 'I' for Inactive)
REMARK    1  A    between atoms: C5_9  and  N1_3 
REMARK       I    between atoms: C6_10  and  N2_4 
REMARK    2  A    between atoms: C6_10  and  C7_11 
REMARK    3  A    between atoms: C10_14  and  C7_11 
REMARK    4  A    between atoms: C11_15  and  C15_19 
ROOT
HETATM    1  C7  UNK     1      29.393  -7.331  36.207  1.00  0.00     0.043 C 
HETATM    2  C11 UNK     1      28.775  -8.509  36.401  1.00  0.00     0.031 C 
ENDROOT
BRANCH   1   3
HETATM    3  C10 UNK     1      29.573  -6.284  37.221  1.00  0.00    -0.021 A 
HETATM    4  C16 UNK     1      30.853  -5.955  37.645  1.00  0.00     0.012 A 
HETATM    5  C18 UNK     1      31.023  -4.959  38.607  1.00  0.00     0.001 A 
HETATM    6  C22 UNK     1      29.912  -4.302  39.135  1.00  0.00     0.000 A 
HETATM    7  C19 UNK     1      28.630  -4.641  38.701  1.00  0.00     0.001 A 
HETATM    8  C17 UNK     1      28.460  -5.637  37.739  1.00  0.00     0.012 A 
ENDBRANCH   1   3
BRANCH   1   9
HETATM    9  C6  UNK     1      29.916  -7.118  34.841  1.00  0.00     0.254 C 
HETATM   10  O1  UNK     1      29.304  -6.347  34.100  1.00  0.00    -0.267 OA
HETATM   11  N2  UNK     1      31.079  -7.801  34.492  1.00  0.00    -0.345 N 
HETATM   12  C3  UNK     1      31.640  -7.614  33.156  1.00  0.00     0.146 C 
HETATM   13  C4  UNK     1      31.807  -8.718  35.375  1.00  0.00     0.146 C 
HETATM   14  C1  UNK     1      33.167  -7.632  33.178  1.00  0.00     0.143 C 
HETATM   15  N1  UNK     1      33.662  -8.884  33.759  1.00  0.00    -0.378 N 
HETATM   16  C2  UNK     1      32.759  -9.649  34.622  1.00  0.00     0.143 C 
BRANCH  15  17
HETATM   17  C5  UNK     1      34.933  -9.358  33.441  1.00  0.00     0.030 A 
HETATM   18  C8  UNK     1      36.069  -8.516  33.499  1.00  0.00     0.029 A 
HETATM   19  C12 UNK     1      37.341  -8.990  33.182  1.00  0.00     0.002 A 
HETATM   20  C14 UNK     1      37.515 -10.320  32.800  1.00  0.00     0.000 A 
HETATM   21  C13 UNK     1      36.415 -11.175  32.733  1.00  0.00     0.002 A 
HETATM   22  C9  UNK     1      35.143 -10.701  33.049  1.00  0.00     0.029 A 
ENDBRANCH  15  17
ENDBRANCH   1   9
BRANCH   2  23
HETATM   23  C15 UNK     1      28.198  -8.978  37.669  1.00  0.00    -0.013 A 
HETATM   24  C20 UNK     1      28.967  -9.618  38.632  1.00  0.00     0.044 A 
HETATM   25 Cl1  UNK     1      30.657  -9.914  38.418  1.00  0.00    -0.083 Cl
HETATM   26  C23 UNK     1      28.371 -10.043  39.819  1.00  0.00     0.024 A 
HETATM   27  C25 UNK     1      27.010  -9.824  40.034  1.00  0.00     0.002 A 
HETATM   28  C24 UNK     1      26.245  -9.179  39.061  1.00  0.00     0.001 A 
HETATM   29  C21 UNK     1      26.842  -8.755  37.873  1.00  0.00     0.013 A 
ENDBRANCH   2  23
TORSDOF 4
ENDMDL
MODEL 9
REMARK VINA RESULT:      -7.6     32.547     34.607
REMARK  4 active torsions:
REMARK  status: ('A' for Active; 'I' for Inactive)
REMARK    1  A    between atoms: C5_9  and  N1_3 
REMARK       I    between atoms: C6_10  and  N2_4 
REMARK    2  A    between atoms: C6_10  and  C7_11 
REMARK    3  A    between atoms: C10_14  and  C7_11 
REMARK    4  A    between atoms: C11_15  and  C15_19 
ROOT
HETATM    1  C7  UNK     1      16.465  10.414   9.897  1.00  0.00     0.043 C 
HETATM    2  C11 UNK     1      17.460  10.309   8.999  1.00  0.00     0.031 C 
ENDROOT
BRANCH   1   3
HETATM    3  C10 UNK     1      15.913  11.672  10.417  1.00  0.00    -0.021 A 
HETATM    4  C16 UNK     1      16.528  12.296  11.493  1.00  0.00     0.012 A 
HETATM    5  C18 UNK     1      16.005  13.492  11.983  1.00  0.00     0.001 A 
HETATM    6  C22 UNK     1      14.872  14.052  11.393  1.00  0.00     0.000 A 
HETATM    7  C19 UNK     1      14.262  13.416  10.312  1.00  0.00     0.001 A 
HETATM    8  C17 UNK     1      14.786  12.220   9.821  1.00  0.00     0.012 A 
ENDBRANCH   1   3
BRANCH   1   9
HETATM    9  C6  UNK     1      15.915   9.127  10.372  1.00  0.00     0.254 C 
HETATM   10  O1  UNK     1      16.389   8.638  11.399  1.00  0.00    -0.267 OA
HETATM   11  N2  UNK     1      14.884   8.561   9.625  1.00  0.00    -0.345 N 
HETATM   12  C3  UNK     1      14.301   7.295  10.062  1.00  0.00     0.146 C 
HETATM   13  C4  UNK     1      14.320   9.144   8.402  1.00  0.00     0.146 C 
HETATM   14  C1  UNK     1      12.799   7.243   9.790  1.00  0.00     0.143 C 
HETATM   15  N1  UNK     1      12.522   7.458   8.367  1.00  0.00    -0.378 N 
HETATM   16  C2  UNK     1      13.540   8.134   7.560  1.00  0.00     0.143 C 
BRANCH  15  17
HETATM   17  C5  UNK     1      11.349   6.971   7.793  1.00  0.00     0.030 A 
HETATM   18  C8  UNK     1      10.175   6.785   8.560  1.00  0.00     0.029 A 
HETATM   19  C12 UNK     1       9.001   6.299   7.986  1.00  0.00     0.002 A 
HETATM   20  C14 UNK     1       8.966   5.988   6.627  1.00  0.00     0.000 A 
HETATM   21  C13 UNK     1      10.107   6.160   5.843  1.00  0.00     0.002 A 
HETATM   22  C9  UNK     1      11.282   6.645   6.418  1.00  0.00     0.029 A 
ENDBRANCH  15  17
ENDBRANCH   1   9
BRANCH   2  23
HETATM   23  C15 UNK     1      18.154  11.431   8.350  1.00  0.00    -0.013 A 
HETATM   24  C20 UNK     1      19.278  12.020   8.913  1.00  0.00     0.044 A 
HETATM   25 Cl1  UNK     1      19.948  11.485  10.415  1.00  0.00    -0.083 Cl
HETATM   26  C23 UNK     1      19.901  13.082   8.257  1.00  0.00     0.024 A 
HETATM   27  C25 UNK     1      19.394  13.545   7.043  1.00  0.00     0.002 A 
HETATM   28  C24 UNK     1      18.264  12.946   6.484  1.00  0.00     0.001 A 
HETATM   29  C21 UNK     1      17.642  11.884   7.142  1.00  0.00     0.013 A 
ENDBRANCH   2  23
TORSDOF 4
ENDMDL
MODEL 10
REMARK VINA RESULT:      -7.6      3.318      8.262
REMARK  4 active torsions:
REMARK  status: ('A' for Active; 'I' for Inactive)
REMARK    1  A    between atoms: C5_9  and  N1_3 
REMARK       I    between atoms: C6_10  and  N2_4 
REMARK    2  A    between atoms: C6_10  and  C7_11 
REMARK    3  A    between atoms: C10_14  and  C7_11 
REMARK    4  A    between atoms: C11_15  and  C15_19 
ROOT
HETATM    1  C7  UNK     1      31.946  -9.720  31.902  1.00  0.00     0.043 C 
HETATM    2  C11 UNK     1      31.294  -8.872  31.087  1.00  0.00     0.031 C 
ENDROOT
BRANCH   1   3
HETATM    3  C10 UNK     1      31.851 -11.185  31.861  1.00  0.00    -0.021 A 
HETATM    4  C16 UNK     1      30.822 -11.822  32.541  1.00  0.00     0.012 A 
HETATM    5  C18 UNK     1      30.731 -13.214  32.500  1.00  0.00     0.001 A 
HETATM    6  C22 UNK     1      31.669 -13.953  31.780  1.00  0.00     0.000 A 
HETATM    7  C19 UNK     1      32.698 -13.301  31.100  1.00  0.00     0.001 A 
HETATM    8  C17 UNK     1      32.789 -11.910  31.142  1.00  0.00     0.012 A 
ENDBRANCH   1   3
BRANCH   1   9
HETATM    9  C6  UNK     1      32.818  -9.075  32.905  1.00  0.00     0.254 C 
HETATM   10  O1  UNK     1      34.034  -9.089  32.710  1.00  0.00    -0.267 OA
HETATM   11  N2  UNK     1      32.197  -8.482  34.002  1.00  0.00    -0.345 N 
HETATM   12  C3  UNK     1      33.017  -7.823  35.015  1.00  0.00     0.146 C 
HETATM   13  C4  UNK     1      30.748  -8.466  34.234  1.00  0.00     0.146 C 
HETATM   14  C1  UNK     1      32.329  -6.581  35.577  1.00  0.00     0.143 C 
HETATM   15  N1  UNK     1      31.019  -6.924  36.139  1.00  0.00    -0.378 N 
HETATM   16  C2  UNK     1      30.375  -8.159  35.685  1.00  0.00     0.143 C 
BRANCH  15  17
HETATM   17  C5  UNK     1      30.441  -6.127  37.125  1.00  0.00     0.030 A 
HETATM   18  C8  UNK     1      30.672  -4.732  37.173  1.00  0.00     0.029 A 
HETATM   19  C12 UNK     1      30.092  -3.933  38.158  1.00  0.00     0.002 A 
HETATM   20  C14 UNK     1      29.263  -4.506  39.122  1.00  0.00     0.000 A 
HETATM   21  C13 UNK     1      29.016  -5.879  39.102  1.00  0.00     0.002 A 
HETATM   22  C9  UNK     1      29.596  -6.677  38.118  1.00  0.00     0.029 A 
ENDBRANCH  15  17
ENDBRANCH   1   9
BRANCH   2  23
HETATM   23  C15 UNK     1      30.394  -9.255  29.990  1.00  0.00    -0.013 A 
HETATM   24  C20 UNK     1      29.013  -9.232  30.134  1.00  0.00     0.044 A 
HETATM   25 Cl1  UNK     1      28.245  -8.753  31.608  1.00  0.00    -0.083 Cl
HETATM   26  C23 UNK     1      28.202  -9.604  29.062  1.00  0.00     0.024 A 
HETATM   27  C25 UNK     1      28.779  -9.996  27.854  1.00  0.00     0.002 A 
HETATM   28  C24 UNK     1      30.168 -10.016  27.718  1.00  0.00     0.001 A 
HETATM   29  C21 UNK     1      30.978  -9.643  28.792  1.00  0.00     0.013 A 
ENDBRANCH   2  23
TORSDOF 4
ENDMDL
