MODEL 1
REMARK VINA RESULT:      -6.8      0.000      0.000
REMARK  2 active torsions:
REMARK  status: ('A' for Active; 'I' for Inactive)
REMARK    1  A    between atoms: C4_8  and  O2_2 
REMARK    2  A    between atoms: C6_10  and  O3_3 
ROOT
HETATM    1  O1  UNK     1      19.099  -0.361  32.870  1.00  0.00    -0.272 OA
HETATM    2  O4  UNK     1      19.906  -2.441  33.365  1.00  0.00    -0.260 OA
HETATM    3  C1  UNK     1      19.508   0.583  30.654  1.00  0.00     0.007 A 
HETATM    4  C2  UNK     1      18.961   0.684  31.934  1.00  0.00     0.126 A 
HETATM    5  C3  UNK     1      20.235  -0.641  30.293  1.00  0.00    -0.043 A 
HETATM    6  C4  UNK     1      18.256   1.812  32.357  1.00  0.00     0.136 A 
HETATM    7  C5  UNK     1      19.326   1.666  29.783  1.00  0.00     0.018 A 
HETATM    8  C6  UNK     1      18.087   2.876  31.477  1.00  0.00     0.104 A 
HETATM    9  C7  UNK     1      18.621   2.803  30.193  1.00  0.00     0.040 A 
HETATM   10  C8  UNK     1      20.350  -1.619  31.203  1.00  0.00     0.090 A 
HETATM   11  C9  UNK     1      20.833  -0.780  28.924  1.00  0.00     0.049 C 
HETATM   12  C10 UNK     1      19.779  -1.527  32.558  1.00  0.00     0.288 A 
ENDROOT
BRANCH   6  13
HETATM   13  O2  UNK     1      17.736   1.872  33.614  1.00  0.00    -0.351 OA
HETATM   14  C11 UNK     1      18.539   2.488  34.619  1.00  0.00     0.210 C 
ENDBRANCH   6  13
BRANCH   8  15
HETATM   15  O3  UNK     1      17.403   3.991  31.857  1.00  0.00    -0.353 OA
HETATM   16  C12 UNK     1      18.153   5.196  31.998  1.00  0.00     0.210 C 
ENDBRANCH   8  15
TORSDOF 2
ENDMDL
MODEL 2
REMARK VINA RESULT:      -6.6      1.677      4.013
REMARK  2 active torsions:
REMARK  status: ('A' for Active; 'I' for Inactive)
REMARK    1  A    between atoms: C4_8  and  O2_2 
REMARK    2  A    between atoms: C6_10  and  O3_3 
ROOT
HETATM    1  O1  UNK     1      18.387   1.818  31.283  1.00  0.00    -0.272 OA
HETATM    2  O4  UNK     1      18.458   3.133  29.414  1.00  0.00    -0.260 OA
HETATM    3  C1  UNK     1      19.505  -0.355  31.258  1.00  0.00     0.007 A 
HETATM    4  C2  UNK     1      18.749   0.614  31.920  1.00  0.00     0.126 A 
HETATM    5  C3  UNK     1      19.924  -0.096  29.874  1.00  0.00    -0.043 A 
HETATM    6  C4  UNK     1      18.310   0.447  33.235  1.00  0.00     0.136 A 
HETATM    7  C5  UNK     1      19.823  -1.524  31.962  1.00  0.00     0.018 A 
HETATM    8  C6  UNK     1      18.636  -0.721  33.916  1.00  0.00     0.104 A 
HETATM    9  C7  UNK     1      19.391  -1.704  33.281  1.00  0.00     0.040 A 
HETATM   10  C8  UNK     1      19.566   1.058  29.293  1.00  0.00     0.090 A 
HETATM   11  C9  UNK     1      20.739  -1.117  29.136  1.00  0.00     0.049 C 
HETATM   12  C10 UNK     1      18.768   2.090  29.978  1.00  0.00     0.288 A 
ENDROOT
BRANCH   6  13
HETATM   13  O2  UNK     1      17.575   1.416  33.847  1.00  0.00    -0.351 OA
HETATM   14  C11 UNK     1      18.283   2.359  34.649  1.00  0.00     0.210 C 
ENDBRANCH   6  13
BRANCH   8  15
HETATM   15  O3  UNK     1      18.226  -0.915  35.200  1.00  0.00    -0.353 OA
HETATM   16  C12 UNK     1      19.149  -1.541  36.089  1.00  0.00     0.210 C 
ENDBRANCH   8  15
TORSDOF 2
ENDMDL
MODEL 3
REMARK VINA RESULT:      -6.5      1.997      3.719
REMARK  2 active torsions:
REMARK  status: ('A' for Active; 'I' for Inactive)
REMARK    1  A    between atoms: C4_8  and  O2_2 
REMARK    2  A    between atoms: C6_10  and  O3_3 
ROOT
HETATM    1  O1  UNK     1      18.747   0.567  31.672  1.00  0.00    -0.272 OA
HETATM    2  O4  UNK     1      18.761  -1.583  32.449  1.00  0.00    -0.260 OA
HETATM    3  C1  UNK     1      18.313   2.398  33.230  1.00  0.00     0.007 A 
HETATM    4  C2  UNK     1      18.592   1.941  31.941  1.00  0.00     0.126 A 
HETATM    5  C3  UNK     1      18.183   1.413  34.313  1.00  0.00    -0.043 A 
HETATM    6  C4  UNK     1      18.732   2.810  30.857  1.00  0.00     0.136 A 
HETATM    7  C5  UNK     1      18.175   3.780  33.414  1.00  0.00     0.018 A 
HETATM    8  C6  UNK     1      18.590   4.178  31.061  1.00  0.00     0.104 A 
HETATM    9  C7  UNK     1      18.312   4.663  32.337  1.00  0.00     0.040 A 
HETATM   10  C8  UNK     1      18.336   0.112  34.027  1.00  0.00     0.090 A 
HETATM   11  C9  UNK     1      17.884   1.872  35.709  1.00  0.00     0.049 C 
HETATM   12  C10 UNK     1      18.630  -0.385  32.672  1.00  0.00     0.288 A 
ENDROOT
BRANCH   6  13
HETATM   13  O2  UNK     1      19.006   2.326  29.614  1.00  0.00    -0.351 OA
HETATM   14  C11 UNK     1      17.893   2.031  28.773  1.00  0.00     0.210 C 
ENDBRANCH   6  13
BRANCH   8  15
HETATM   15  O3  UNK     1      18.721   5.053  30.025  1.00  0.00    -0.353 OA
HETATM   16  C12 UNK     1      19.868   5.901  30.033  1.00  0.00     0.210 C 
ENDBRANCH   8  15
TORSDOF 2
ENDMDL
MODEL 4
REMARK VINA RESULT:      -6.4     23.481     25.302
REMARK  2 active torsions:
REMARK  status: ('A' for Active; 'I' for Inactive)
REMARK    1  A    between atoms: C4_8  and  O2_2 
REMARK    2  A    between atoms: C6_10  and  O3_3 
ROOT
HETATM    1  O1  UNK     1      10.159   7.259   9.603  1.00  0.00    -0.272 OA
HETATM    2  O4  UNK     1       7.882   7.337   9.791  1.00  0.00    -0.260 OA
HETATM    3  C1  UNK     1      11.160   6.647   7.459  1.00  0.00     0.007 A 
HETATM    4  C2  UNK     1      11.291   7.021   8.798  1.00  0.00     0.126 A 
HETATM    5  C3  UNK     1       9.810   6.506   6.897  1.00  0.00    -0.043 A 
HETATM    6  C4  UNK     1      12.537   7.177   9.410  1.00  0.00     0.136 A 
HETATM    7  C5  UNK     1      12.335   6.430   6.728  1.00  0.00     0.018 A 
HETATM    8  C6  UNK     1      13.691   6.956   8.666  1.00  0.00     0.104 A 
HETATM    9  C7  UNK     1      13.590   6.583   7.328  1.00  0.00     0.040 A 
HETATM   10  C8  UNK     1       8.752   6.740   7.686  1.00  0.00     0.090 A 
HETATM   11  C9  UNK     1       9.636   6.108   5.462  1.00  0.00     0.049 C 
HETATM   12  C10 UNK     1       8.874   7.134   9.100  1.00  0.00     0.288 A 
ENDROOT
BRANCH   6  13
HETATM   13  O2  UNK     1      12.623   7.544  10.718  1.00  0.00    -0.351 OA
HETATM   14  C11 UNK     1      12.868   8.922  10.990  1.00  0.00     0.210 C 
ENDBRANCH   6  13
BRANCH   8  15
HETATM   15  O3  UNK     1      14.921   7.101   9.231  1.00  0.00    -0.353 OA
HETATM   16  C12 UNK     1      15.574   5.915   9.678  1.00  0.00     0.210 C 
ENDBRANCH   8  15
TORSDOF 2
ENDMDL
MODEL 5
REMARK VINA RESULT:      -6.2      1.835      5.259
REMARK  2 active torsions:
REMARK  status: ('A' for Active; 'I' for Inactive)
REMARK    1  A    between atoms: C4_8  and  O2_2 
REMARK    2  A    between atoms: C6_10  and  O3_3 
ROOT
HETATM    1  O1  UNK     1      18.283   1.483  31.448  1.00  0.00    -0.272 OA
HETATM    2  O4  UNK     1      18.255   2.766  29.557  1.00  0.00    -0.260 OA
HETATM    3  C1  UNK     1      18.311   2.577  33.633  1.00  0.00     0.007 A 
HETATM    4  C2  UNK     1      18.303   1.418  32.856  1.00  0.00     0.126 A 
HETATM    5  C3  UNK     1      18.298   3.879  32.954  1.00  0.00    -0.043 A 
HETATM    6  C4  UNK     1      18.314   0.141  33.422  1.00  0.00     0.136 A 
HETATM    7  C5  UNK     1      18.330   2.425  35.026  1.00  0.00     0.018 A 
HETATM    8  C6  UNK     1      18.334   0.012  34.806  1.00  0.00     0.104 A 
HETATM    9  C7  UNK     1      18.341   1.152  35.607  1.00  0.00     0.040 A 
HETATM   10  C8  UNK     1      18.278   3.911  31.614  1.00  0.00     0.090 A 
HETATM   11  C9  UNK     1      18.305   5.144  33.761  1.00  0.00     0.049 C 
HETATM   12  C10 UNK     1      18.270   2.697  30.780  1.00  0.00     0.288 A 
ENDROOT
BRANCH   6  13
HETATM   13  O2  UNK     1      18.305  -0.967  32.630  1.00  0.00    -0.351 OA
HETATM   14  C11 UNK     1      19.568  -1.470  32.202  1.00  0.00     0.210 C 
ENDBRANCH   6  13
BRANCH   8  15
HETATM   15  O3  UNK     1      18.344  -1.218  35.391  1.00  0.00    -0.353 OA
HETATM   16  C12 UNK     1      19.587  -1.676  35.918  1.00  0.00     0.210 C 
ENDBRANCH   8  15
TORSDOF 2
ENDMDL
MODEL 6
REMARK VINA RESULT:      -6.2      4.512      6.812
REMARK  2 active torsions:
REMARK  status: ('A' for Active; 'I' for Inactive)
REMARK    1  A    between atoms: C4_8  and  O2_2 
REMARK    2  A    between atoms: C6_10  and  O3_3 
ROOT
HETATM    1  O1  UNK     1      17.055   5.503  32.672  1.00  0.00    -0.272 OA
HETATM    2  O4  UNK     1      17.540   3.596  31.508  1.00  0.00    -0.260 OA
HETATM    3  C1  UNK     1      18.864   7.037  33.259  1.00  0.00     0.007 A 
HETATM    4  C2  UNK     1      17.512   6.691  33.277  1.00  0.00     0.126 A 
HETATM    5  C3  UNK     1      19.813   6.134  32.593  1.00  0.00    -0.043 A 
HETATM    6  C4  UNK     1      16.545   7.492  33.888  1.00  0.00     0.136 A 
HETATM    7  C5  UNK     1      19.236   8.235  33.883  1.00  0.00     0.018 A 
HETATM    8  C6  UNK     1      16.936   8.677  34.502  1.00  0.00     0.104 A 
HETATM    9  C7  UNK     1      18.279   9.048  34.499  1.00  0.00     0.040 A 
HETATM   10  C8  UNK     1      19.350   5.011  32.025  1.00  0.00     0.090 A 
HETATM   11  C9  UNK     1      21.272   6.478  32.556  1.00  0.00     0.049 C 
HETATM   12  C10 UNK     1      17.926   4.633  32.036  1.00  0.00     0.288 A 
ENDROOT
BRANCH   6  13
HETATM   13  O2  UNK     1      15.235   7.121  33.883  1.00  0.00    -0.351 OA
HETATM   14  C11 UNK     1      14.436   7.580  32.796  1.00  0.00     0.210 C 
ENDBRANCH   6  13
BRANCH   8  15
HETATM   15  O3  UNK     1      16.019   9.483  35.106  1.00  0.00    -0.353 OA
HETATM   16  C12 UNK     1      15.781  10.756  34.511  1.00  0.00     0.210 C 
ENDBRANCH   8  15
TORSDOF 2
ENDMDL
MODEL 7
REMARK VINA RESULT:      -6.2      3.365      6.930
REMARK  2 active torsions:
REMARK  status: ('A' for Active; 'I' for Inactive)
REMARK    1  A    between atoms: C4_8  and  O2_2 
REMARK    2  A    between atoms: C6_10  and  O3_3 
ROOT
HETATM    1  O1  UNK     1      19.153  -0.222  33.975  1.00  0.00    -0.272 OA
HETATM    2  O4  UNK     1      18.250   1.477  32.740  1.00  0.00    -0.260 OA
HETATM    3  C1  UNK     1      18.177  -0.771  36.146  1.00  0.00     0.007 A 
HETATM    4  C2  UNK     1      19.128  -0.999  35.151  1.00  0.00     0.126 A 
HETATM    5  C3  UNK     1      17.191   0.300  35.946  1.00  0.00    -0.043 A 
HETATM    6  C4  UNK     1      20.099  -1.996  35.261  1.00  0.00     0.136 A 
HETATM    7  C5  UNK     1      18.219  -1.588  37.284  1.00  0.00     0.018 A 
HETATM    8  C6  UNK     1      20.124  -2.795  36.399  1.00  0.00     0.104 A 
HETATM    9  C7  UNK     1      19.186  -2.591  37.409  1.00  0.00     0.040 A 
HETATM   10  C8  UNK     1      17.239   1.022  34.818  1.00  0.00     0.090 A 
HETATM   11  C9  UNK     1      16.155   0.569  36.997  1.00  0.00     0.049 C 
HETATM   12  C10 UNK     1      18.237   0.795  33.758  1.00  0.00     0.288 A 
ENDROOT
BRANCH   6  13
HETATM   13  O2  UNK     1      21.010  -2.188  34.267  1.00  0.00    -0.351 OA
HETATM   14  C11 UNK     1      20.564  -2.883  33.105  1.00  0.00     0.210 C 
ENDBRANCH   6  13
BRANCH   8  15
HETATM   15  O3  UNK     1      21.057  -3.778  36.539  1.00  0.00    -0.353 OA
HETATM   16  C12 UNK     1      20.904  -4.666  37.644  1.00  0.00     0.210 C 
ENDBRANCH   8  15
TORSDOF 2
ENDMDL
MODEL 8
REMARK VINA RESULT:      -6.2      4.707      8.145
REMARK  2 active torsions:
REMARK  status: ('A' for Active; 'I' for Inactive)
REMARK    1  A    between atoms: C4_8  and  O2_2 
REMARK    2  A    between atoms: C6_10  and  O3_3 
ROOT
HETATM    1  O1  UNK     1      15.950   6.543  32.304  1.00  0.00    -0.272 OA
HETATM    2  O4  UNK     1      13.751   6.784  31.729  1.00  0.00    -0.260 OA
HETATM    3  C1  UNK     1      17.116   8.405  33.373  1.00  0.00     0.007 A 
HETATM    4  C2  UNK     1      17.112   7.103  32.871  1.00  0.00     0.126 A 
HETATM    5  C3  UNK     1      15.877   9.191  33.300  1.00  0.00    -0.043 A 
HETATM    6  C4  UNK     1      18.247   6.289  32.901  1.00  0.00     0.136 A 
HETATM    7  C5  UNK     1      18.313   8.887  33.922  1.00  0.00     0.018 A 
HETATM    8  C6  UNK     1      19.424   6.786  33.450  1.00  0.00     0.104 A 
HETATM    9  C7  UNK     1      19.457   8.082  33.959  1.00  0.00     0.040 A 
HETATM   10  C8  UNK     1      14.786   8.632  32.756  1.00  0.00     0.090 A 
HETATM   11  C9  UNK     1      15.848  10.593  33.832  1.00  0.00     0.049 C 
HETATM   12  C10 UNK     1      14.767   7.260  32.222  1.00  0.00     0.288 A 
ENDROOT
BRANCH   6  13
HETATM   13  O2  UNK     1      18.203   5.022  32.403  1.00  0.00    -0.351 OA
HETATM   14  C11 UNK     1      18.632   4.841  31.055  1.00  0.00     0.210 C 
ENDBRANCH   6  13
BRANCH   8  15
HETATM   15  O3  UNK     1      20.548   6.019  33.496  1.00  0.00    -0.353 OA
HETATM   16  C12 UNK     1      21.585   6.329  32.567  1.00  0.00     0.210 C 
ENDBRANCH   8  15
TORSDOF 2
ENDMDL
MODEL 9
REMARK VINA RESULT:      -6.2      2.173      4.430
REMARK  2 active torsions:
REMARK  status: ('A' for Active; 'I' for Inactive)
REMARK    1  A    between atoms: C4_8  and  O2_2 
REMARK    2  A    between atoms: C6_10  and  O3_3 
ROOT
HETATM    1  O1  UNK     1      18.173   1.853  30.657  1.00  0.00    -0.272 OA
HETATM    2  O4  UNK     1      18.231   1.579  28.388  1.00  0.00    -0.260 OA
HETATM    3  C1  UNK     1      18.602   4.063  31.605  1.00  0.00     0.007 A 
HETATM    4  C2  UNK     1      18.301   2.710  31.768  1.00  0.00     0.126 A 
HETATM    5  C3  UNK     1      18.783   4.585  30.244  1.00  0.00    -0.043 A 
HETATM    6  C4  UNK     1      18.112   2.134  33.026  1.00  0.00     0.136 A 
HETATM    7  C5  UNK     1      18.711   4.848  32.761  1.00  0.00     0.018 A 
HETATM    8  C6  UNK     1      18.226   2.930  34.161  1.00  0.00     0.104 A 
HETATM    9  C7  UNK     1      18.524   4.285  34.029  1.00  0.00     0.040 A 
HETATM   10  C8  UNK     1      18.655   3.747  29.206  1.00  0.00     0.090 A 
HETATM   11  C9  UNK     1      19.106   6.035  30.036  1.00  0.00     0.049 C 
HETATM   12  C10 UNK     1      18.339   2.316  29.361  1.00  0.00     0.288 A 
ENDROOT
BRANCH   6  13
HETATM   13  O2  UNK     1      17.819   0.809  33.144  1.00  0.00    -0.351 OA
HETATM   14  C11 UNK     1      18.910  -0.105  33.075  1.00  0.00     0.210 C 
ENDBRANCH   6  13
BRANCH   8  15
HETATM   15  O3  UNK     1      18.047   2.401  35.403  1.00  0.00    -0.353 OA
HETATM   16  C12 UNK     1      19.218   2.016  36.119  1.00  0.00     0.210 C 
ENDBRANCH   8  15
TORSDOF 2
ENDMDL
MODEL 10
REMARK VINA RESULT:      -6.2      7.759     10.709
REMARK  2 active torsions:
REMARK  status: ('A' for Active; 'I' for Inactive)
REMARK    1  A    between atoms: C4_8  and  O2_2 
REMARK    2  A    between atoms: C6_10  and  O3_3 
ROOT
HETATM    1  O1  UNK     1      22.299  -5.601  37.954  1.00  0.00    -0.272 OA
HETATM    2  O4  UNK     1      24.402  -5.235  38.772  1.00  0.00    -0.260 OA
HETATM    3  C1  UNK     1      20.998  -7.486  38.806  1.00  0.00     0.007 A 
HETATM    4  C2  UNK     1      21.124  -6.379  37.966  1.00  0.00     0.126 A 
HETATM    5  C3  UNK     1      22.121  -7.832  39.687  1.00  0.00    -0.043 A 
HETATM    6  C4  UNK     1      20.104  -5.982  37.097  1.00  0.00     0.136 A 
HETATM    7  C5  UNK     1      19.796  -8.206  38.757  1.00  0.00     0.018 A 
HETATM    8  C6  UNK     1      18.920  -6.710  37.064  1.00  0.00     0.104 A 
HETATM    9  C7  UNK     1      18.766  -7.820  37.892  1.00  0.00     0.040 A 
HETATM   10  C8  UNK     1      23.227  -7.074  39.656  1.00  0.00     0.090 A 
HETATM   11  C9  UNK     1      22.017  -9.015  40.603  1.00  0.00     0.049 C 
HETATM   12  C10 UNK     1      23.375  -5.903  38.775  1.00  0.00     0.288 A 
ENDROOT
BRANCH   6  13
HETATM   13  O2  UNK     1      20.264  -4.894  36.294  1.00  0.00    -0.351 OA
HETATM   14  C11 UNK     1      19.851  -3.635  36.818  1.00  0.00     0.210 C 
ENDBRANCH   6  13
BRANCH   8  15
HETATM   15  O3  UNK     1      17.905  -6.350  36.230  1.00  0.00    -0.353 OA
HETATM   16  C12 UNK     1      17.385  -7.359  35.367  1.00  0.00     0.210 C 
ENDBRANCH   8  15
TORSDOF 2
ENDMDL
