MODEL 1
REMARK VINA RESULT:      -9.5      0.000      0.000
REMARK  5 active torsions:
REMARK  status: ('A' for Active; 'I' for Inactive)
REMARK    1  A    between atoms: C17_23  and  O2_3 
REMARK    2  A    between atoms: C5_11  and  N1_5 
REMARK    3  A    between atoms: C6_12  and  N2_6 
REMARK    4  A    between atoms: C5_11  and  C7_13 
REMARK    5  A    between atoms: C6_12  and  C8_14 
ROOT
HETATM    1  N1  UNK     1      18.054   5.060  31.645  1.00  0.00     0.096 N 
HETATM    2  N2  UNK     1      19.007   2.730  30.222  1.00  0.00     0.096 N 
HETATM    3  C1  UNK     1      19.127   5.162  30.648  1.00  0.00     0.303 C 
HETATM    4  C2  UNK     1      18.064   3.734  32.274  1.00  0.00     0.303 C 
HETATM    5  C3  UNK     1      18.998   4.057  29.593  1.00  0.00     0.303 C 
HETATM    6  C4  UNK     1      17.934   2.629  31.220  1.00  0.00     0.303 C 
ENDROOT
BRANCH   1   7
HETATM    7  C5  UNK     1      18.179   6.113  32.650  1.00  0.00     0.312 C 
BRANCH   7   8
HETATM    8  C7  UNK     1      16.975   6.988  32.701  1.00  0.00    -0.011 A 
HETATM    9  C10 UNK     1      15.776   6.540  32.300  1.00  0.00     0.092 A 
HETATM   10  C15 UNK     1      14.559   7.368  32.331  1.00  0.00     0.288 A 
HETATM   11  O1  UNK     1      14.698   8.665  32.802  1.00  0.00    -0.275 OA
HETATM   12  O3  UNK     1      13.479   6.925  31.958  1.00  0.00    -0.260 OA
HETATM   13  C11 UNK     1      15.945   9.163  33.229  1.00  0.00     0.090 A 
HETATM   14  C9  UNK     1      17.090   8.367  33.194  1.00  0.00     0.009 A 
HETATM   15  C16 UNK     1      15.968  10.484  33.684  1.00  0.00     0.041 A 
HETATM   16  C14 UNK     1      18.292   8.937  33.635  1.00  0.00     0.051 A 
HETATM   17  C17 UNK     1      18.331  10.260  34.093  1.00  0.00     0.069 A 
HETATM   18  C20 UNK     1      17.170  11.031  34.117  1.00  0.00     0.039 A 
BRANCH  17  19
HETATM   19  O2  UNK     1      19.509  10.795  34.518  1.00  0.00    -0.356 OA
HETATM   20  C22 UNK     1      20.644   9.932  34.537  1.00  0.00     0.210 C 
ENDBRANCH  17  19
ENDBRANCH   7   8
ENDBRANCH   1   7
BRANCH   2  21
HETATM   21  C6  UNK     1      18.880   1.678  29.215  1.00  0.00     0.311 C 
BRANCH  21  22
HETATM   22  C8  UNK     1      19.440   0.367  29.701  1.00  0.00    -0.030 A 
HETATM   23  C12 UNK     1      20.002  -0.530  28.795  1.00  0.00     0.012 A 
HETATM   24  C18 UNK     1      20.520  -1.744  29.246  1.00  0.00     0.043 A 
HETATM   25  C21 UNK     1      20.476  -2.061  30.604  1.00  0.00     0.116 A 
HETATM   26  C19 UNK     1      19.912  -1.163  31.511  1.00  0.00     0.043 A 
HETATM   27  F1  UNK     1      20.973  -3.226  31.037  1.00  0.00    -0.206 F 
HETATM   28  C13 UNK     1      19.394   0.051  31.060  1.00  0.00     0.012 A 
ENDBRANCH  21  22
ENDBRANCH   2  21
TORSDOF 5
ENDMDL
MODEL 2
REMARK VINA RESULT:      -8.9      4.781      9.488
REMARK  5 active torsions:
REMARK  status: ('A' for Active; 'I' for Inactive)
REMARK    1  A    between atoms: C17_23  and  O2_3 
REMARK    2  A    between atoms: C5_11  and  N1_5 
REMARK    3  A    between atoms: C6_12  and  N2_6 
REMARK    4  A    between atoms: C5_11  and  C7_13 
REMARK    5  A    between atoms: C6_12  and  C8_14 
ROOT
HETATM    1  N1  UNK     1      18.853   3.656  31.509  1.00  0.00     0.096 N 
HETATM    2  N2  UNK     1      19.124   6.275  32.704  1.00  0.00     0.096 N 
HETATM    3  C1  UNK     1      19.237   4.823  30.706  1.00  0.00     0.303 C 
HETATM    4  C2  UNK     1      18.016   4.067  32.643  1.00  0.00     0.303 C 
HETATM    5  C3  UNK     1      19.960   5.864  31.568  1.00  0.00     0.303 C 
HETATM    6  C4  UNK     1      18.739   5.107  33.506  1.00  0.00     0.303 C 
ENDROOT
BRANCH   1   7
HETATM    7  C5  UNK     1      18.163   2.665  30.686  1.00  0.00     0.312 C 
BRANCH   7   8
HETATM    8  C7  UNK     1      18.912   1.380  30.605  1.00  0.00    -0.011 A 
HETATM    9  C10 UNK     1      19.583   1.038  29.496  1.00  0.00     0.092 A 
HETATM   10  C15 UNK     1      20.337  -0.220  29.371  1.00  0.00     0.288 A 
HETATM   11  O1  UNK     1      20.330  -1.064  30.470  1.00  0.00    -0.275 OA
HETATM   12  O3  UNK     1      20.940  -0.500  28.340  1.00  0.00    -0.260 OA
HETATM   13  C11 UNK     1      19.633  -0.732  31.649  1.00  0.00     0.090 A 
HETATM   14  C9  UNK     1      18.923   0.464  31.754  1.00  0.00     0.009 A 
HETATM   15  C16 UNK     1      19.695  -1.658  32.693  1.00  0.00     0.041 A 
HETATM   16  C14 UNK     1      18.256   0.721  32.960  1.00  0.00     0.051 A 
HETATM   17  C17 UNK     1      18.308  -0.197  34.015  1.00  0.00     0.069 A 
HETATM   18  C20 UNK     1      19.026  -1.385  33.881  1.00  0.00     0.039 A 
BRANCH  17  19
HETATM   19  O2  UNK     1      17.652   0.071  35.179  1.00  0.00    -0.356 OA
HETATM   20  C22 UNK     1      16.252   0.329  35.090  1.00  0.00     0.210 C 
ENDBRANCH  17  19
ENDBRANCH   7   8
ENDBRANCH   1   7
BRANCH   2  21
HETATM   21  C6  UNK     1      19.816   7.264  33.527  1.00  0.00     0.311 C 
BRANCH  21  22
HETATM   22  C8  UNK     1      18.986   8.505  33.727  1.00  0.00    -0.030 A 
HETATM   23  C12 UNK     1      17.602   8.452  33.568  1.00  0.00     0.012 A 
HETATM   24  C18 UNK     1      16.835   9.602  33.754  1.00  0.00     0.043 A 
HETATM   25  C21 UNK     1      17.451  10.805  34.100  1.00  0.00     0.116 A 
HETATM   26  C19 UNK     1      18.836  10.857  34.259  1.00  0.00     0.043 A 
HETATM   27  F1  UNK     1      16.714  11.908  34.279  1.00  0.00    -0.206 F 
HETATM   28  C13 UNK     1      19.604   9.708  34.073  1.00  0.00     0.012 A 
ENDBRANCH  21  22
ENDBRANCH   2  21
TORSDOF 5
ENDMDL
MODEL 3
REMARK VINA RESULT:      -8.7     12.078     16.404
REMARK  5 active torsions:
REMARK  status: ('A' for Active; 'I' for Inactive)
REMARK    1  A    between atoms: C17_23  and  O2_3 
REMARK    2  A    between atoms: C5_11  and  N1_5 
REMARK    3  A    between atoms: C6_12  and  N2_6 
REMARK    4  A    between atoms: C5_11  and  C7_13 
REMARK    5  A    between atoms: C6_12  and  C8_14 
ROOT
HETATM    1  N1  UNK     1      23.783  -9.391  37.162  1.00  0.00     0.096 N 
HETATM    2  N2  UNK     1      26.236  -8.396  38.323  1.00  0.00     0.096 N 
HETATM    3  C1  UNK     1      25.085  -9.659  36.537  1.00  0.00     0.303 C 
HETATM    4  C2  UNK     1      23.818  -8.121  37.895  1.00  0.00     0.303 C 
HETATM    5  C3  UNK     1      26.201  -9.666  37.587  1.00  0.00     0.303 C 
HETATM    6  C4  UNK     1      24.934  -8.128  38.946  1.00  0.00     0.303 C 
ENDROOT
BRANCH   1   7
HETATM    7  C5  UNK     1      22.720  -9.384  36.159  1.00  0.00     0.312 C 
BRANCH   7   8
HETATM    8  C7  UNK     1      21.366  -9.471  36.774  1.00  0.00    -0.011 A 
HETATM    9  C10 UNK     1      20.951 -10.594  37.378  1.00  0.00     0.092 A 
HETATM   10  C15 UNK     1      19.622 -10.727  37.999  1.00  0.00     0.288 A 
HETATM   11  O1  UNK     1      18.791  -9.620  37.936  1.00  0.00    -0.275 OA
HETATM   12  O3  UNK     1      19.277 -11.769  38.543  1.00  0.00    -0.260 OA
HETATM   13  C11 UNK     1      19.199  -8.426  37.307  1.00  0.00     0.090 A 
HETATM   14  C9  UNK     1      20.461  -8.314  36.723  1.00  0.00     0.009 A 
HETATM   15  C16 UNK     1      18.280  -7.375  37.304  1.00  0.00     0.041 A 
HETATM   16  C14 UNK     1      20.792  -7.095  36.117  1.00  0.00     0.051 A 
HETATM   17  C17 UNK     1      19.880  -6.032  36.105  1.00  0.00     0.069 A 
HETATM   18  C20 UNK     1      18.626  -6.173  36.698  1.00  0.00     0.039 A 
BRANCH  17  19
HETATM   19  O2  UNK     1      20.220  -4.855  35.510  1.00  0.00    -0.356 OA
HETATM   20  C22 UNK     1      19.945  -3.658  36.237  1.00  0.00     0.210 C 
ENDBRANCH  17  19
ENDBRANCH   7   8
ENDBRANCH   1   7
BRANCH   2  21
HETATM   21  C6  UNK     1      27.299  -8.406  39.326  1.00  0.00     0.311 C 
BRANCH  21  22
HETATM   22  C8  UNK     1      28.415  -7.460  38.969  1.00  0.00    -0.030 A 
HETATM   23  C12 UNK     1      29.550  -7.936  38.313  1.00  0.00     0.012 A 
HETATM   24  C18 UNK     1      30.583  -7.059  37.983  1.00  0.00     0.043 A 
HETATM   25  C21 UNK     1      30.482  -5.706  38.308  1.00  0.00     0.116 A 
HETATM   26  C19 UNK     1      29.347  -5.231  38.965  1.00  0.00     0.043 A 
HETATM   27  F1  UNK     1      31.474  -4.865  37.991  1.00  0.00    -0.206 F 
HETATM   28  C13 UNK     1      28.314  -6.107  39.296  1.00  0.00     0.012 A 
ENDBRANCH  21  22
ENDBRANCH   2  21
TORSDOF 5
ENDMDL
MODEL 4
REMARK VINA RESULT:      -8.7     14.393     18.391
REMARK  5 active torsions:
REMARK  status: ('A' for Active; 'I' for Inactive)
REMARK    1  A    between atoms: C17_23  and  O2_3 
REMARK    2  A    between atoms: C5_11  and  N1_5 
REMARK    3  A    between atoms: C6_12  and  N2_6 
REMARK    4  A    between atoms: C5_11  and  C7_13 
REMARK    5  A    between atoms: C6_12  and  C8_14 
ROOT
HETATM    1  N1  UNK     1      26.788  -9.319  37.583  1.00  0.00     0.096 N 
HETATM    2  N2  UNK     1      29.613  -8.964  38.087  1.00  0.00     0.096 N 
HETATM    3  C1  UNK     1      27.611  -8.450  36.732  1.00  0.00     0.303 C 
HETATM    4  C2  UNK     1      27.331  -9.363  38.945  1.00  0.00     0.303 C 
HETATM    5  C3  UNK     1      29.070  -8.918  36.723  1.00  0.00     0.303 C 
HETATM    6  C4  UNK     1      28.790  -9.832  38.938  1.00  0.00     0.303 C 
ENDROOT
BRANCH   1   7
HETATM    7  C5  UNK     1      25.397  -8.871  37.590  1.00  0.00     0.312 C 
BRANCH   7   8
HETATM    8  C7  UNK     1      24.506  -9.789  36.829  1.00  0.00    -0.011 A 
HETATM    9  C10 UNK     1      24.969 -10.940  36.321  1.00  0.00     0.092 A 
HETATM   10  C15 UNK     1      24.126 -11.879  35.562  1.00  0.00     0.288 A 
HETATM   11  O1  UNK     1      22.799 -11.521  35.383  1.00  0.00    -0.275 OA
HETATM   12  O3  UNK     1      24.584 -12.924  35.113  1.00  0.00    -0.260 OA
HETATM   13  C11 UNK     1      22.284 -10.317  35.904  1.00  0.00     0.090 A 
HETATM   14  C9  UNK     1      23.095  -9.437  36.622  1.00  0.00     0.009 A 
HETATM   15  C16 UNK     1      20.933 -10.059  35.663  1.00  0.00     0.041 A 
HETATM   16  C14 UNK     1      22.507  -8.261  37.107  1.00  0.00     0.051 A 
HETATM   17  C17 UNK     1      21.154  -7.987  36.873  1.00  0.00     0.069 A 
HETATM   18  C20 UNK     1      20.369  -8.886  36.152  1.00  0.00     0.039 A 
BRANCH  17  19
HETATM   19  O2  UNK     1      20.602  -6.838  37.352  1.00  0.00    -0.356 OA
HETATM   20  C22 UNK     1      21.494  -5.872  37.905  1.00  0.00     0.210 C 
ENDBRANCH  17  19
ENDBRANCH   7   8
ENDBRANCH   1   7
BRANCH   2  21
HETATM   21  C6  UNK     1      31.003  -9.414  38.077  1.00  0.00     0.311 C 
BRANCH  21  22
HETATM   22  C8  UNK     1      31.950  -8.303  37.707  1.00  0.00    -0.030 A 
HETATM   23  C12 UNK     1      32.868  -8.484  36.674  1.00  0.00     0.012 A 
HETATM   24  C18 UNK     1      33.744  -7.454  36.331  1.00  0.00     0.043 A 
HETATM   25  C21 UNK     1      33.701  -6.242  37.021  1.00  0.00     0.116 A 
HETATM   26  C19 UNK     1      32.782  -6.061  38.055  1.00  0.00     0.043 A 
HETATM   27  F1  UNK     1      34.542  -5.254  36.692  1.00  0.00    -0.206 F 
HETATM   28  C13 UNK     1      31.906  -7.091  38.398  1.00  0.00     0.012 A 
ENDBRANCH  21  22
ENDBRANCH   2  21
TORSDOF 5
ENDMDL
MODEL 5
REMARK VINA RESULT:      -8.6      5.193      9.862
REMARK  5 active torsions:
REMARK  status: ('A' for Active; 'I' for Inactive)
REMARK    1  A    between atoms: C17_23  and  O2_3 
REMARK    2  A    between atoms: C5_11  and  N1_5 
REMARK    3  A    between atoms: C6_12  and  N2_6 
REMARK    4  A    between atoms: C5_11  and  C7_13 
REMARK    5  A    between atoms: C6_12  and  C8_14 
ROOT
HETATM    1  N1  UNK     1      17.132   6.231  33.249  1.00  0.00     0.096 N 
HETATM    2  N2  UNK     1      15.532   8.639  33.259  1.00  0.00     0.096 N 
HETATM    3  C1  UNK     1      16.665   6.830  34.506  1.00  0.00     0.303 C 
HETATM    4  C2  UNK     1      17.304   7.264  32.222  1.00  0.00     0.303 C 
HETATM    5  C3  UNK     1      15.361   7.605  34.288  1.00  0.00     0.303 C 
HETATM    6  C4  UNK     1      16.000   8.039  32.003  1.00  0.00     0.303 C 
ENDROOT
BRANCH   1   7
HETATM    7  C5  UNK     1      18.376   5.493  33.458  1.00  0.00     0.312 C 
BRANCH   7   8
HETATM    8  C7  UNK     1      18.334   4.135  32.847  1.00  0.00    -0.011 A 
HETATM    9  C10 UNK     1      18.283   3.975  31.517  1.00  0.00     0.092 A 
HETATM   10  C15 UNK     1      18.240   2.654  30.869  1.00  0.00     0.288 A 
HETATM   11  O1  UNK     1      18.254   1.549  31.704  1.00  0.00    -0.275 OA
HETATM   12  O3  UNK     1      18.194   2.547  29.648  1.00  0.00    -0.260 OA
HETATM   13  C11 UNK     1      18.306   1.685  33.106  1.00  0.00     0.090 A 
HETATM   14  C9  UNK     1      18.347   2.944  33.707  1.00  0.00     0.009 A 
HETATM   15  C16 UNK     1      18.316   0.503  33.849  1.00  0.00     0.041 A 
HETATM   16  C14 UNK     1      18.398   2.995  35.106  1.00  0.00     0.051 A 
HETATM   17  C17 UNK     1      18.407   1.818  35.866  1.00  0.00     0.069 A 
HETATM   18  C20 UNK     1      18.366   0.574  35.237  1.00  0.00     0.039 A 
BRANCH  17  19
HETATM   19  O2  UNK     1      18.456   1.889  37.225  1.00  0.00    -0.356 OA
HETATM   20  C22 UNK     1      17.628   0.984  37.952  1.00  0.00     0.210 C 
ENDBRANCH  17  19
ENDBRANCH   7   8
ENDBRANCH   1   7
BRANCH   2  21
HETATM   21  C6  UNK     1      14.287   9.375  33.050  1.00  0.00     0.311 C 
BRANCH  21  22
HETATM   22  C8  UNK     1      14.479  10.860  33.210  1.00  0.00    -0.030 A 
HETATM   23  C12 UNK     1      15.528  11.347  33.989  1.00  0.00     0.012 A 
HETATM   24  C18 UNK     1      15.706  12.722  34.138  1.00  0.00     0.043 A 
HETATM   25  C21 UNK     1      14.836  13.611  33.506  1.00  0.00     0.116 A 
HETATM   26  C19 UNK     1      13.786  13.123  32.727  1.00  0.00     0.043 A 
HETATM   27  F1  UNK     1      15.007  14.931  33.649  1.00  0.00    -0.206 F 
HETATM   28  C13 UNK     1      13.608  11.748  32.579  1.00  0.00     0.012 A 
ENDBRANCH  21  22
ENDBRANCH   2  21
TORSDOF 5
ENDMDL
MODEL 6
REMARK VINA RESULT:      -8.5     22.387     24.325
REMARK  5 active torsions:
REMARK  status: ('A' for Active; 'I' for Inactive)
REMARK    1  A    between atoms: C17_23  and  O2_3 
REMARK    2  A    between atoms: C5_11  and  N1_5 
REMARK    3  A    between atoms: C6_12  and  N2_6 
REMARK    4  A    between atoms: C5_11  and  C7_13 
REMARK    5  A    between atoms: C6_12  and  C8_14 
ROOT
HETATM    1  N1  UNK     1      11.911   6.317   7.444  1.00  0.00     0.096 N 
HETATM    2  N2  UNK     1       9.108   6.249   8.150  1.00  0.00     0.096 N 
HETATM    3  C1  UNK     1      11.474   6.430   8.842  1.00  0.00     0.303 C 
HETATM    4  C2  UNK     1      10.885   6.852   6.543  1.00  0.00     0.303 C 
HETATM    5  C3  UNK     1      10.135   5.715   9.054  1.00  0.00     0.303 C 
HETATM    6  C4  UNK     1       9.546   6.137   6.753  1.00  0.00     0.303 C 
ENDROOT
BRANCH   1   7
HETATM    7  C5  UNK     1      13.187   7.000   7.244  1.00  0.00     0.312 C 
BRANCH   7   8
HETATM    8  C7  UNK     1      14.164   6.696   8.327  1.00  0.00    -0.011 A 
HETATM    9  C10 UNK     1      14.578   5.442   8.553  1.00  0.00     0.092 A 
HETATM   10  C15 UNK     1      15.542   5.093   9.611  1.00  0.00     0.288 A 
HETATM   11  O1  UNK     1      16.019   6.137  10.388  1.00  0.00    -0.275 OA
HETATM   12  O3  UNK     1      15.899   3.934   9.789  1.00  0.00    -0.260 OA
HETATM   13  C11 UNK     1      15.601   7.466  10.174  1.00  0.00     0.090 A 
HETATM   14  C9  UNK     1      14.688   7.782   9.167  1.00  0.00     0.009 A 
HETATM   15  C16 UNK     1      16.148   8.437  11.016  1.00  0.00     0.041 A 
HETATM   16  C14 UNK     1      14.322   9.126   9.019  1.00  0.00     0.051 A 
HETATM   17  C17 UNK     1      14.861  10.111   9.856  1.00  0.00     0.069 A 
HETATM   18  C20 UNK     1      15.772   9.765  10.853  1.00  0.00     0.039 A 
BRANCH  17  19
HETATM   19  O2  UNK     1      14.492  11.412   9.696  1.00  0.00    -0.356 OA
HETATM   20  C22 UNK     1      15.221  12.179   8.740  1.00  0.00     0.210 C 
ENDBRANCH  17  19
ENDBRANCH   7   8
ENDBRANCH   1   7
BRANCH   2  21
HETATM   21  C6  UNK     1       7.833   5.564   8.351  1.00  0.00     0.311 C 
BRANCH  21  22
HETATM   22  C8  UNK     1       7.259   5.837   9.716  1.00  0.00    -0.030 A 
HETATM   23  C12 UNK     1       6.989   4.780  10.584  1.00  0.00     0.012 A 
HETATM   24  C18 UNK     1       6.458   5.033  11.848  1.00  0.00     0.043 A 
HETATM   25  C21 UNK     1       6.196   6.345  12.245  1.00  0.00     0.116 A 
HETATM   26  C19 UNK     1       6.466   7.403  11.376  1.00  0.00     0.043 A 
HETATM   27  F1  UNK     1       5.686   6.589  13.459  1.00  0.00    -0.206 F 
HETATM   28  C13 UNK     1       6.997   7.149  10.112  1.00  0.00     0.012 A 
ENDBRANCH  21  22
ENDBRANCH   2  21
TORSDOF 5
ENDMDL
MODEL 7
REMARK VINA RESULT:      -8.5      7.982     11.307
REMARK  5 active torsions:
REMARK  status: ('A' for Active; 'I' for Inactive)
REMARK    1  A    between atoms: C17_23  and  O2_3 
REMARK    2  A    between atoms: C5_11  and  N1_5 
REMARK    3  A    between atoms: C6_12  and  N2_6 
REMARK    4  A    between atoms: C5_11  and  C7_13 
REMARK    5  A    between atoms: C6_12  and  C8_14 
ROOT
HETATM    1  N1  UNK     1      20.267  -4.192  36.950  1.00  0.00     0.096 N 
HETATM    2  N2  UNK     1      20.716  -7.048  36.930  1.00  0.00     0.096 N 
HETATM    3  C1  UNK     1      20.200  -4.965  35.703  1.00  0.00     0.303 C 
HETATM    4  C2  UNK     1      21.194  -4.824  37.895  1.00  0.00     0.303 C 
HETATM    5  C3  UNK     1      19.790  -6.415  35.983  1.00  0.00     0.303 C 
HETATM    6  C4  UNK     1      20.783  -6.274  38.176  1.00  0.00     0.303 C 
ENDROOT
BRANCH   1   7
HETATM    7  C5  UNK     1      20.659  -2.810  36.682  1.00  0.00     0.312 C 
BRANCH   7   8
HETATM    8  C7  UNK     1      19.515  -1.982  36.210  1.00  0.00    -0.011 A 
HETATM    9  C10 UNK     1      18.622  -1.478  37.075  1.00  0.00     0.092 A 
HETATM   10  C15 UNK     1      17.475  -0.655  36.655  1.00  0.00     0.288 A 
HETATM   11  O1  UNK     1      17.346  -0.411  35.297  1.00  0.00    -0.275 OA
HETATM   12  O3  UNK     1      16.679  -0.210  37.474  1.00  0.00    -0.260 OA
HETATM   13  C11 UNK     1      18.268  -0.928  34.365  1.00  0.00     0.090 A 
HETATM   14  C9  UNK     1      19.351  -1.706  34.776  1.00  0.00     0.009 A 
HETATM   15  C16 UNK     1      18.040  -0.618  33.022  1.00  0.00     0.041 A 
HETATM   16  C14 UNK     1      20.222  -2.182  33.788  1.00  0.00     0.051 A 
HETATM   17  C17 UNK     1      20.006  -1.882  32.438  1.00  0.00     0.069 A 
HETATM   18  C20 UNK     1      18.916  -1.100  32.056  1.00  0.00     0.039 A 
BRANCH  17  19
HETATM   19  O2  UNK     1      20.864  -2.355  31.492  1.00  0.00    -0.356 OA
HETATM   20  C22 UNK     1      20.469  -2.215  30.129  1.00  0.00     0.210 C 
ENDBRANCH  17  19
ENDBRANCH   7   8
ENDBRANCH   1   7
BRANCH   2  21
HETATM   21  C6  UNK     1      20.321  -8.429  37.198  1.00  0.00     0.311 C 
BRANCH  21  22
HETATM   22  C8  UNK     1      21.345  -9.412  36.695  1.00  0.00    -0.030 A 
HETATM   23  C12 UNK     1      20.934 -10.591  36.074  1.00  0.00     0.012 A 
HETATM   24  C18 UNK     1      21.883 -11.501  35.608  1.00  0.00     0.043 A 
HETATM   25  C21 UNK     1      23.243 -11.232  35.763  1.00  0.00     0.116 A 
HETATM   26  C19 UNK     1      23.654 -10.053  36.385  1.00  0.00     0.043 A 
HETATM   27  F1  UNK     1      24.154 -12.106  35.316  1.00  0.00    -0.206 F 
HETATM   28  C13 UNK     1      22.705  -9.143  36.851  1.00  0.00     0.012 A 
ENDBRANCH  21  22
ENDBRANCH   2  21
TORSDOF 5
ENDMDL
MODEL 8
REMARK VINA RESULT:      -8.4      7.884     10.936
REMARK  5 active torsions:
REMARK  status: ('A' for Active; 'I' for Inactive)
REMARK    1  A    between atoms: C17_23  and  O2_3 
REMARK    2  A    between atoms: C5_11  and  N1_5 
REMARK    3  A    between atoms: C6_12  and  N2_6 
REMARK    4  A    between atoms: C5_11  and  C7_13 
REMARK    5  A    between atoms: C6_12  and  C8_14 
ROOT
HETATM    1  N1  UNK     1      20.242  -4.471  36.520  1.00  0.00     0.096 N 
HETATM    2  N2  UNK     1      19.196  -6.895  37.699  1.00  0.00     0.096 N 
HETATM    3  C1  UNK     1      20.936  -5.140  37.628  1.00  0.00     0.303 C 
HETATM    4  C2  UNK     1      18.798  -4.721  36.594  1.00  0.00     0.303 C 
HETATM    5  C3  UNK     1      20.641  -6.644  37.627  1.00  0.00     0.303 C 
HETATM    6  C4  UNK     1      18.503  -6.225  36.591  1.00  0.00     0.303 C 
ENDROOT
BRANCH   1   7
HETATM    7  C5  UNK     1      20.523  -3.037  36.524  1.00  0.00     0.312 C 
BRANCH   7   8
HETATM    8  C7  UNK     1      20.085  -2.375  35.264  1.00  0.00    -0.011 A 
HETATM    9  C10 UNK     1      20.618  -2.713  34.082  1.00  0.00     0.092 A 
HETATM   10  C15 UNK     1      20.217  -2.086  32.811  1.00  0.00     0.288 A 
HETATM   11  O1  UNK     1      19.240  -1.105  32.881  1.00  0.00    -0.275 OA
HETATM   12  O3  UNK     1      20.726  -2.422  31.748  1.00  0.00    -0.260 OA
HETATM   13  C11 UNK     1      18.662  -0.728  34.110  1.00  0.00     0.090 A 
HETATM   14  C9  UNK     1      19.052  -1.330  35.306  1.00  0.00     0.009 A 
HETATM   15  C16 UNK     1      17.687   0.272  34.060  1.00  0.00     0.041 A 
HETATM   16  C14 UNK     1      18.429  -0.899  36.484  1.00  0.00     0.051 A 
HETATM   17  C17 UNK     1      17.451   0.103  36.452  1.00  0.00     0.069 A 
HETATM   18  C20 UNK     1      17.082   0.687  35.241  1.00  0.00     0.039 A 
BRANCH  17  19
HETATM   19  O2  UNK     1      16.858   0.509  37.609  1.00  0.00    -0.356 OA
HETATM   20  C22 UNK     1      17.596   1.408  38.434  1.00  0.00     0.210 C 
ENDBRANCH  17  19
ENDBRANCH   7   8
ENDBRANCH   1   7
BRANCH   2  21
HETATM   21  C6  UNK     1      18.917  -8.330  37.693  1.00  0.00     0.311 C 
BRANCH  21  22
HETATM   22  C8  UNK     1      19.996  -9.108  36.989  1.00  0.00    -0.030 A 
HETATM   23  C12 UNK     1      20.455  -8.690  35.740  1.00  0.00     0.012 A 
HETATM   24  C18 UNK     1      21.455  -9.411  35.088  1.00  0.00     0.043 A 
HETATM   25  C21 UNK     1      21.997 -10.551  35.684  1.00  0.00     0.116 A 
HETATM   26  C19 UNK     1      21.537 -10.968  36.934  1.00  0.00     0.043 A 
HETATM   27  F1  UNK     1      22.957 -11.242  35.059  1.00  0.00    -0.206 F 
HETATM   28  C13 UNK     1      20.537 -10.247  37.586  1.00  0.00     0.012 A 
ENDBRANCH  21  22
ENDBRANCH   2  21
TORSDOF 5
ENDMDL
MODEL 9
REMARK VINA RESULT:      -8.4     17.231     19.529
REMARK  5 active torsions:
REMARK  status: ('A' for Active; 'I' for Inactive)
REMARK    1  A    between atoms: C17_23  and  O2_3 
REMARK    2  A    between atoms: C5_11  and  N1_5 
REMARK    3  A    between atoms: C6_12  and  N2_6 
REMARK    4  A    between atoms: C5_11  and  C7_13 
REMARK    5  A    between atoms: C6_12  and  C8_14 
ROOT
HETATM    1  N1  UNK     1      31.769  -5.848  35.717  1.00  0.00     0.096 N 
HETATM    2  N2  UNK     1      34.296  -6.478  34.462  1.00  0.00     0.096 N 
HETATM    3  C1  UNK     1      32.066  -7.206  35.244  1.00  0.00     0.303 C 
HETATM    4  C2  UNK     1      32.488  -4.855  34.910  1.00  0.00     0.303 C 
HETATM    5  C3  UNK     1      33.575  -7.473  35.268  1.00  0.00     0.303 C 
HETATM    6  C4  UNK     1      33.997  -5.121  34.935  1.00  0.00     0.303 C 
ENDROOT
BRANCH   1   7
HETATM    7  C5  UNK     1      30.330  -5.595  35.692  1.00  0.00     0.312 C 
BRANCH   7   8
HETATM    8  C7  UNK     1      29.738  -5.575  37.059  1.00  0.00    -0.011 A 
HETATM    9  C10 UNK     1      29.972  -4.557  37.899  1.00  0.00     0.092 A 
HETATM   10  C15 UNK     1      29.410  -4.494  39.259  1.00  0.00     0.288 A 
HETATM   11  O1  UNK     1      28.608  -5.554  39.652  1.00  0.00    -0.275 OA
HETATM   12  O3  UNK     1      29.645  -3.547  40.000  1.00  0.00    -0.260 OA
HETATM   13  C11 UNK     1      28.345  -6.638  38.790  1.00  0.00     0.090 A 
HETATM   14  C9  UNK     1      28.884  -6.684  37.504  1.00  0.00     0.009 A 
HETATM   15  C16 UNK     1      27.523  -7.650  39.292  1.00  0.00     0.041 A 
HETATM   16  C14 UNK     1      28.576  -7.796  36.709  1.00  0.00     0.051 A 
HETATM   17  C17 UNK     1      27.755  -8.820  37.198  1.00  0.00     0.069 A 
HETATM   18  C20 UNK     1      27.229  -8.746  38.487  1.00  0.00     0.039 A 
BRANCH  17  19
HETATM   19  O2  UNK     1      27.467  -9.893  36.410  1.00  0.00    -0.356 OA
HETATM   20  C22 UNK     1      26.169 -10.468  36.545  1.00  0.00     0.210 C 
ENDBRANCH  17  19
ENDBRANCH   7   8
ENDBRANCH   1   7
BRANCH   2  21
HETATM   21  C6  UNK     1      35.735  -6.733  34.489  1.00  0.00     0.311 C 
BRANCH  21  22
HETATM   22  C8  UNK     1      36.142  -7.761  33.467  1.00  0.00    -0.030 A 
HETATM   23  C12 UNK     1      37.177  -8.652  33.748  1.00  0.00     0.012 A 
HETATM   24  C18 UNK     1      37.553  -9.605  32.802  1.00  0.00     0.043 A 
HETATM   25  C21 UNK     1      36.894  -9.667  31.574  1.00  0.00     0.116 A 
HETATM   26  C19 UNK     1      35.859  -8.775  31.293  1.00  0.00     0.043 A 
HETATM   27  F1  UNK     1      37.255 -10.582  30.665  1.00  0.00    -0.206 F 
HETATM   28  C13 UNK     1      35.482  -7.822  32.239  1.00  0.00     0.012 A 
ENDBRANCH  21  22
ENDBRANCH   2  21
TORSDOF 5
ENDMDL
MODEL 10
REMARK VINA RESULT:      -8.4     15.898     18.479
REMARK  5 active torsions:
REMARK  status: ('A' for Active; 'I' for Inactive)
REMARK    1  A    between atoms: C17_23  and  O2_3 
REMARK    2  A    between atoms: C5_11  and  N1_5 
REMARK    3  A    between atoms: C6_12  and  N2_6 
REMARK    4  A    between atoms: C5_11  and  C7_13 
REMARK    5  A    between atoms: C6_12  and  C8_14 
ROOT
HETATM    1  N1  UNK     1      31.040  -9.613  36.528  1.00  0.00     0.096 N 
HETATM    2  N2  UNK     1      30.070  -9.168  33.841  1.00  0.00     0.096 N 
HETATM    3  C1  UNK     1      29.604  -9.486  36.248  1.00  0.00     0.303 C 
HETATM    4  C2  UNK     1      31.822  -8.845  35.553  1.00  0.00     0.303 C 
HETATM    5  C3  UNK     1      29.286  -9.935  34.818  1.00  0.00     0.303 C 
HETATM    6  C4  UNK     1      31.505  -9.295  34.123  1.00  0.00     0.303 C 
ENDROOT
BRANCH   1   7
HETATM    7  C5  UNK     1      31.342  -9.183  37.892  1.00  0.00     0.312 C 
BRANCH   7   8
HETATM    8  C7  UNK     1      31.841  -7.780  37.942  1.00  0.00    -0.011 A 
HETATM    9  C10 UNK     1      33.121  -7.490  37.669  1.00  0.00     0.092 A 
HETATM   10  C15 UNK     1      33.659  -6.120  37.705  1.00  0.00     0.288 A 
HETATM   11  O1  UNK     1      32.771  -5.110  38.042  1.00  0.00    -0.275 OA
HETATM   12  O3  UNK     1      34.836  -5.892  37.449  1.00  0.00    -0.260 OA
HETATM   13  C11 UNK     1      31.420  -5.385  38.335  1.00  0.00     0.090 A 
HETATM   14  C9  UNK     1      30.924  -6.688  38.296  1.00  0.00     0.009 A 
HETATM   15  C16 UNK     1      30.616  -4.290  38.661  1.00  0.00     0.041 A 
HETATM   16  C14 UNK     1      29.569  -6.878  38.600  1.00  0.00     0.051 A 
HETATM   17  C17 UNK     1      28.751  -5.791  38.930  1.00  0.00     0.069 A 
HETATM   18  C20 UNK     1      29.274  -4.499  38.960  1.00  0.00     0.039 A 
BRANCH  17  19
HETATM   19  O2  UNK     1      27.437  -5.996  39.223  1.00  0.00    -0.356 OA
HETATM   20  C22 UNK     1      26.780  -7.065  38.544  1.00  0.00     0.210 C 
ENDBRANCH  17  19
ENDBRANCH   7   8
ENDBRANCH   1   7
BRANCH   2  21
HETATM   21  C6  UNK     1      29.767  -9.601  32.479  1.00  0.00     0.311 C 
BRANCH  21  22
HETATM   22  C8  UNK     1      28.762  -8.698  31.814  1.00  0.00    -0.030 A 
HETATM   23  C12 UNK     1      28.382  -7.506  32.428  1.00  0.00     0.012 A 
HETATM   24  C18 UNK     1      27.451  -6.670  31.812  1.00  0.00     0.043 A 
HETATM   25  C21 UNK     1      26.898  -7.027  30.582  1.00  0.00     0.116 A 
HETATM   26  C19 UNK     1      27.279  -8.221  29.967  1.00  0.00     0.043 A 
HETATM   27  F1  UNK     1      26.004  -6.225  29.990  1.00  0.00    -0.206 F 
HETATM   28  C13 UNK     1      28.210  -9.057  30.583  1.00  0.00     0.012 A 
ENDBRANCH  21  22
ENDBRANCH   2  21
TORSDOF 5
ENDMDL
