MODEL 1
REMARK VINA RESULT:      -9.0      0.000      0.000
REMARK  7 active torsions:
REMARK  status: ('A' for Active; 'I' for Inactive)
REMARK    1  A    between atoms: C11_20  and  O1_2 
REMARK    2  A    between atoms: C13_22  and  O2_3 
REMARK    3  A    between atoms: C21_30  and  O6_7 
REMARK    4  A    between atoms: C26_35  and  O6_7 
REMARK       I    between atoms: C14_23  and  N1_9 
REMARK    5  A    between atoms: C8_17  and  N1_9 
REMARK    6  A    between atoms: C13_22  and  C7_16 
REMARK    7  A    between atoms: C14_23  and  C15_24 
ROOT
HETATM    1  S1  UNK     1      18.944  -1.227  32.109  1.00  0.00    -0.075 SA
HETATM    2  C1  UNK     1      18.562   0.963  30.405  1.00  0.00     0.051 C 
HETATM    3  C2  UNK     1      19.048   2.419  30.358  1.00  0.00     0.044 C 
HETATM    4  C3  UNK     1      18.613   1.187  32.946  1.00  0.00     0.007 A 
HETATM    5  C4  UNK     1      18.699   0.427  31.793  1.00  0.00    -0.003 A 
HETATM    6  C5  UNK     1      18.576   3.234  31.547  1.00  0.00    -0.044 A 
HETATM    7  C6  UNK     1      18.400   2.627  32.814  1.00  0.00    -0.017 A 
HETATM    8  C7  UNK     1      18.755   0.374  34.111  1.00  0.00     0.085 A 
HETATM    9  C8  UNK     1      18.944  -0.955  33.799  1.00  0.00     0.094 A 
HETATM   10  C9  UNK     1      18.388   4.615  31.411  1.00  0.00     0.044 A 
HETATM   11  C10 UNK     1      18.021   3.412  33.908  1.00  0.00     0.015 A 
HETATM   12  C11 UNK     1      18.007   5.385  32.509  1.00  0.00     0.068 A 
HETATM   13  C12 UNK     1      17.823   4.786  33.753  1.00  0.00     0.037 A 
ENDROOT
BRANCH   9  14
HETATM   14  N1  UNK     1      19.129  -2.056  34.594  1.00  0.00    -0.316 N 
HETATM   15  C14 UNK     1      20.325  -2.541  35.168  1.00  0.00     0.262 C 
HETATM   16  O5  UNK     1      21.448  -2.061  35.063  1.00  0.00    -0.267 OA
HETATM   17  H8  UNK     1      18.278  -2.587  34.767  1.00  0.00     0.169 HD
BRANCH  15  18
HETATM   18  C15 UNK     1      20.133  -3.764  35.974  1.00  0.00     0.108 A 
HETATM   19  C17 UNK     1      19.618  -4.820  35.331  1.00  0.00     0.037 A 
HETATM   20  C16 UNK     1      19.392  -6.070  36.041  1.00  0.00     0.002 A 
HETATM   21  C18 UNK     1      19.716  -6.146  37.391  1.00  0.00     0.123 A 
HETATM   22  C22 UNK     1      18.859  -7.197  35.411  1.00  0.00     0.014 A 
HETATM   23  O4  UNK     1      20.256  -5.031  38.061  1.00  0.00    -0.271 OA
HETATM   24  C21 UNK     1      19.523  -7.313  38.128  1.00  0.00     0.103 A 
HETATM   25  C19 UNK     1      20.486  -3.823  37.409  1.00  0.00     0.304 A 
HETATM   26  O7  UNK     1      20.958  -2.857  38.000  1.00  0.00    -0.259 OA
HETATM   27  C24 UNK     1      18.991  -8.433  37.492  1.00  0.00     0.040 A 
HETATM   28  C25 UNK     1      18.659  -8.375  36.136  1.00  0.00     0.004 A 
BRANCH  24  29
HETATM   29  O6  UNK     1      19.844  -7.373  39.447  1.00  0.00    -0.349 OA
BRANCH  29  30
HETATM   30  C26 UNK     1      20.833  -8.328  39.834  1.00  0.00     0.171 C 
HETATM   31  C27 UNK     1      22.201  -7.685  39.737  1.00  0.00     0.034 C 
ENDBRANCH  29  30
ENDBRANCH  24  29
ENDBRANCH  15  18
ENDBRANCH   9  14
BRANCH   8  32
HETATM   32  C13 UNK     1      18.756   0.797  35.491  1.00  0.00     0.296 C 
HETATM   33  O3  UNK     1      19.688   1.419  36.022  1.00  0.00    -0.259 OA
BRANCH  32  34
HETATM   34  O2  UNK     1      17.618   0.447  36.183  1.00  0.00    -0.322 OA
HETATM   35  C23 UNK     1      17.803  -0.232  37.430  1.00  0.00     0.213 C 
ENDBRANCH  32  34
ENDBRANCH   8  32
BRANCH  12  36
HETATM   36  O1  UNK     1      17.818   6.726  32.367  1.00  0.00    -0.356 OA
HETATM   37  C20 UNK     1      18.530   7.580  33.260  1.00  0.00     0.210 C 
ENDBRANCH  12  36
TORSDOF 7
ENDMDL
MODEL 2
REMARK VINA RESULT:      -8.8      5.076      9.088
REMARK  7 active torsions:
REMARK  status: ('A' for Active; 'I' for Inactive)
REMARK    1  A    between atoms: C11_20  and  O1_2 
REMARK    2  A    between atoms: C13_22  and  O2_3 
REMARK    3  A    between atoms: C21_30  and  O6_7 
REMARK    4  A    between atoms: C26_35  and  O6_7 
REMARK       I    between atoms: C14_23  and  N1_9 
REMARK    5  A    between atoms: C8_17  and  N1_9 
REMARK    6  A    between atoms: C13_22  and  C7_16 
REMARK    7  A    between atoms: C14_23  and  C15_24 
ROOT
HETATM    1  S1  UNK     1      18.963   8.482  33.993  1.00  0.00    -0.075 SA
HETATM    2  C1  UNK     1      18.731  11.272  34.108  1.00  0.00     0.051 C 
HETATM    3  C2  UNK     1      17.739  12.269  34.724  1.00  0.00     0.044 C 
HETATM    4  C3  UNK     1      16.727   9.736  33.740  1.00  0.00     0.007 A 
HETATM    5  C4  UNK     1      18.078   9.936  33.955  1.00  0.00    -0.003 A 
HETATM    6  C5  UNK     1      16.347  12.156  34.130  1.00  0.00    -0.044 A 
HETATM    7  C6  UNK     1      15.853  10.907  33.684  1.00  0.00    -0.017 A 
HETATM    8  C7  UNK     1      16.425   8.347  33.606  1.00  0.00     0.085 A 
HETATM    9  C8  UNK     1      17.548   7.556  33.725  1.00  0.00     0.094 A 
HETATM   10  C9  UNK     1      15.515  13.281  34.092  1.00  0.00     0.044 A 
HETATM   11  C10 UNK     1      14.545  10.818  33.194  1.00  0.00     0.015 A 
HETATM   12  C11 UNK     1      14.215  13.180  33.598  1.00  0.00     0.068 A 
HETATM   13  C12 UNK     1      13.732  11.952  33.150  1.00  0.00     0.037 A 
ENDROOT
BRANCH   9  14
HETATM   14  N1  UNK     1      17.710   6.198  33.671  1.00  0.00    -0.316 N 
HETATM   15  C14 UNK     1      18.275   5.415  32.639  1.00  0.00     0.262 C 
HETATM   16  O5  UNK     1      18.737   5.809  31.575  1.00  0.00    -0.267 OA
HETATM   17  H8  UNK     1      17.355   5.707  34.488  1.00  0.00     0.169 HD
BRANCH  15  18
HETATM   18  C15 UNK     1      18.281   3.968  32.939  1.00  0.00     0.108 A 
HETATM   19  C17 UNK     1      18.352   3.633  34.234  1.00  0.00     0.037 A 
HETATM   20  C16 UNK     1      18.364   2.234  34.629  1.00  0.00     0.002 A 
HETATM   21  C18 UNK     1      18.304   1.255  33.642  1.00  0.00     0.123 A 
HETATM   22  C22 UNK     1      18.436   1.838  35.967  1.00  0.00     0.014 A 
HETATM   23  O4  UNK     1      18.230   1.614  32.283  1.00  0.00    -0.271 OA
HETATM   24  C21 UNK     1      18.312  -0.103  33.954  1.00  0.00     0.103 A 
HETATM   25  C19 UNK     1      18.215   2.944  31.873  1.00  0.00     0.304 A 
HETATM   26  O7  UNK     1      18.150   3.247  30.687  1.00  0.00    -0.259 OA
HETATM   27  C24 UNK     1      18.384  -0.489  35.291  1.00  0.00     0.040 A 
HETATM   28  C25 UNK     1      18.445   0.480  36.296  1.00  0.00     0.004 A 
BRANCH  24  29
HETATM   29  O6  UNK     1      18.253  -1.049  32.980  1.00  0.00    -0.349 OA
BRANCH  29  30
HETATM   30  C26 UNK     1      19.467  -1.728  32.658  1.00  0.00     0.171 C 
HETATM   31  C27 UNK     1      19.895  -1.335  31.260  1.00  0.00     0.034 C 
ENDBRANCH  29  30
ENDBRANCH  24  29
ENDBRANCH  15  18
ENDBRANCH   9  14
BRANCH   8  32
HETATM   32  C13 UNK     1      15.133   7.736  33.407  1.00  0.00     0.296 C 
HETATM   33  O3  UNK     1      14.282   7.615  34.300  1.00  0.00    -0.259 OA
BRANCH  32  34
HETATM   34  O2  UNK     1      14.917   7.291  32.122  1.00  0.00    -0.322 OA
HETATM   35  C23 UNK     1      13.561   7.263  31.666  1.00  0.00     0.213 C 
ENDBRANCH  32  34
ENDBRANCH   8  32
BRANCH  12  36
HETATM   36  O1  UNK     1      13.414  14.280  33.558  1.00  0.00    -0.356 OA
HETATM   37  C20 UNK     1      12.518  14.391  32.455  1.00  0.00     0.210 C 
ENDBRANCH  12  36
TORSDOF 7
ENDMDL
MODEL 3
REMARK VINA RESULT:      -8.5      9.645     13.535
REMARK  7 active torsions:
REMARK  status: ('A' for Active; 'I' for Inactive)
REMARK    1  A    between atoms: C11_20  and  O1_2 
REMARK    2  A    between atoms: C13_22  and  O2_3 
REMARK    3  A    between atoms: C21_30  and  O6_7 
REMARK    4  A    between atoms: C26_35  and  O6_7 
REMARK       I    between atoms: C14_23  and  N1_9 
REMARK    5  A    between atoms: C8_17  and  N1_9 
REMARK    6  A    between atoms: C13_22  and  C7_16 
REMARK    7  A    between atoms: C14_23  and  C15_24 
ROOT
HETATM    1  S1  UNK     1      29.536  -6.174  38.489  1.00  0.00    -0.075 SA
HETATM    2  C1  UNK     1      32.210  -5.353  38.649  1.00  0.00     0.051 C 
HETATM    3  C2  UNK     1      33.297  -4.942  37.645  1.00  0.00     0.044 C 
HETATM    4  C3  UNK     1      31.364  -6.951  36.849  1.00  0.00     0.007 A 
HETATM    5  C4  UNK     1      31.152  -6.147  37.954  1.00  0.00    -0.003 A 
HETATM    6  C5  UNK     1      33.675  -6.064  36.697  1.00  0.00    -0.044 A 
HETATM    7  C6  UNK     1      32.713  -7.019  36.289  1.00  0.00    -0.017 A 
HETATM    8  C7  UNK     1      30.159  -7.599  36.442  1.00  0.00     0.085 A 
HETATM    9  C8  UNK     1      29.090  -7.262  37.246  1.00  0.00     0.094 A 
HETATM   10  C9  UNK     1      34.967  -6.112  36.158  1.00  0.00     0.044 A 
HETATM   11  C10 UNK     1      33.072  -8.010  35.368  1.00  0.00     0.015 A 
HETATM   12  C11 UNK     1      35.312  -7.106  35.244  1.00  0.00     0.068 A 
HETATM   13  C12 UNK     1      34.368  -8.052  34.851  1.00  0.00     0.037 A 
ENDROOT
BRANCH   9  14
HETATM   14  N1  UNK     1      27.774  -7.640  37.209  1.00  0.00    -0.316 N 
HETATM   15  C14 UNK     1      27.175  -8.808  37.731  1.00  0.00     0.262 C 
HETATM   16  O5  UNK     1      27.728  -9.724  38.328  1.00  0.00    -0.267 OA
HETATM   17  H8  UNK     1      27.170  -6.982  36.722  1.00  0.00     0.169 HD
BRANCH  15  18
HETATM   18  C15 UNK     1      25.717  -8.870  37.501  1.00  0.00     0.108 A 
HETATM   19  C17 UNK     1      25.279  -9.889  36.751  1.00  0.00     0.037 A 
HETATM   20  C16 UNK     1      23.860 -10.035  36.469  1.00  0.00     0.002 A 
HETATM   21  C18 UNK     1      22.971  -9.099  36.987  1.00  0.00     0.123 A 
HETATM   22  C22 UNK     1      23.359 -11.084  35.693  1.00  0.00     0.014 A 
HETATM   23  O4  UNK     1      23.437  -8.028  37.773  1.00  0.00    -0.271 OA
HETATM   24  C21 UNK     1      21.599  -9.182  36.752  1.00  0.00     0.103 A 
HETATM   25  C19 UNK     1      24.789  -7.863  38.063  1.00  0.00     0.304 A 
HETATM   26  O7  UNK     1      25.186  -6.928  38.750  1.00  0.00    -0.259 OA
HETATM   27  C24 UNK     1      21.108 -10.231  35.978  1.00  0.00     0.040 A 
HETATM   28  C25 UNK     1      21.987 -11.180  35.449  1.00  0.00     0.004 A 
BRANCH  24  29
HETATM   29  O6  UNK     1      20.742  -8.260  37.264  1.00  0.00    -0.349 OA
BRANCH  29  30
HETATM   30  C26 UNK     1      19.888  -8.684  38.327  1.00  0.00     0.171 C 
HETATM   31  C27 UNK     1      20.136  -7.808  39.537  1.00  0.00     0.034 C 
ENDBRANCH  29  30
ENDBRANCH  24  29
ENDBRANCH  15  18
ENDBRANCH   9  14
BRANCH   8  32
HETATM   32  C13 UNK     1      29.964  -8.485  35.320  1.00  0.00     0.296 C 
HETATM   33  O3  UNK     1      29.979  -9.721  35.406  1.00  0.00    -0.259 OA
BRANCH  32  34
HETATM   34  O2  UNK     1      29.757  -7.834  34.124  1.00  0.00    -0.322 OA
HETATM   35  C23 UNK     1      28.440  -7.909  33.568  1.00  0.00     0.213 C 
ENDBRANCH  32  34
ENDBRANCH   8  32
BRANCH  12  36
HETATM   36  O1  UNK     1      36.572  -7.150  34.730  1.00  0.00    -0.356 OA
HETATM   37  C20 UNK     1      36.891  -8.255  33.887  1.00  0.00     0.210 C 
ENDBRANCH  12  36
TORSDOF 7
ENDMDL
MODEL 4
REMARK VINA RESULT:      -8.4      9.797     13.477
REMARK  7 active torsions:
REMARK  status: ('A' for Active; 'I' for Inactive)
REMARK    1  A    between atoms: C11_20  and  O1_2 
REMARK    2  A    between atoms: C13_22  and  O2_3 
REMARK    3  A    between atoms: C21_30  and  O6_7 
REMARK    4  A    between atoms: C26_35  and  O6_7 
REMARK       I    between atoms: C14_23  and  N1_9 
REMARK    5  A    between atoms: C8_17  and  N1_9 
REMARK    6  A    between atoms: C13_22  and  C7_16 
REMARK    7  A    between atoms: C14_23  and  C15_24 
ROOT
HETATM    1  S1  UNK     1      29.519  -4.951  37.475  1.00  0.00    -0.075 SA
HETATM    2  C1  UNK     1      32.088  -3.910  37.069  1.00  0.00     0.051 C 
HETATM    3  C2  UNK     1      33.120  -3.940  35.932  1.00  0.00     0.044 C 
HETATM    4  C3  UNK     1      31.415  -6.253  36.316  1.00  0.00     0.007 A 
HETATM    5  C4  UNK     1      31.120  -5.037  36.904  1.00  0.00    -0.003 A 
HETATM    6  C5  UNK     1      33.615  -5.340  35.625  1.00  0.00    -0.044 A 
HETATM    7  C6  UNK     1      32.761  -6.458  35.784  1.00  0.00    -0.017 A 
HETATM    8  C7  UNK     1      30.286  -7.126  36.341  1.00  0.00     0.085 A 
HETATM    9  C8  UNK     1      29.189  -6.543  36.940  1.00  0.00     0.094 A 
HETATM   10  C9  UNK     1      34.902  -5.523  35.105  1.00  0.00     0.044 A 
HETATM   11  C10 UNK     1      33.223  -7.734  35.439  1.00  0.00     0.015 A 
HETATM   12  C11 UNK     1      35.351  -6.800  34.767  1.00  0.00     0.068 A 
HETATM   13  C12 UNK     1      34.514  -7.901  34.934  1.00  0.00     0.037 A 
ENDROOT
BRANCH   9  14
HETATM   14  N1  UNK     1      27.923  -7.012  37.164  1.00  0.00    -0.316 N 
HETATM   15  C14 UNK     1      27.397  -7.619  38.327  1.00  0.00     0.262 C 
HETATM   16  O5  UNK     1      27.986  -7.846  39.378  1.00  0.00    -0.267 OA
HETATM   17  H8  UNK     1      27.299  -6.912  36.367  1.00  0.00     0.169 HD
BRANCH  15  18
HETATM   18  C15 UNK     1      25.975  -7.996  38.198  1.00  0.00     0.108 A 
HETATM   19  C17 UNK     1      25.114  -7.334  38.982  1.00  0.00     0.037 A 
HETATM   20  C16 UNK     1      23.692  -7.635  38.927  1.00  0.00     0.002 A 
HETATM   21  C18 UNK     1      23.246  -8.619  38.051  1.00  0.00     0.123 A 
HETATM   22  C22 UNK     1      22.759  -6.968  39.725  1.00  0.00     0.014 A 
HETATM   23  O4  UNK     1      24.156  -9.312  37.230  1.00  0.00    -0.271 OA
HETATM   24  C21 UNK     1      21.897  -8.955  37.951  1.00  0.00     0.103 A 
HETATM   25  C19 UNK     1      25.522  -9.046  37.259  1.00  0.00     0.304 A 
HETATM   26  O7  UNK     1      26.307  -9.654  36.540  1.00  0.00    -0.259 OA
HETATM   27  C24 UNK     1      20.972  -8.286  38.750  1.00  0.00     0.040 A 
HETATM   28  C25 UNK     1      21.403  -7.294  39.636  1.00  0.00     0.004 A 
BRANCH  24  29
HETATM   29  O6  UNK     1      21.474  -9.920  37.091  1.00  0.00    -0.349 OA
BRANCH  29  30
HETATM   30  C26 UNK     1      21.118  -9.505  35.773  1.00  0.00     0.171 C 
HETATM   31  C27 UNK     1      21.816 -10.399  34.770  1.00  0.00     0.034 C 
ENDBRANCH  29  30
ENDBRANCH  24  29
ENDBRANCH  15  18
ENDBRANCH   9  14
BRANCH   8  32
HETATM   32  C13 UNK     1      30.185  -8.460  35.800  1.00  0.00     0.296 C 
HETATM   33  O3  UNK     1      30.272  -8.724  34.592  1.00  0.00    -0.259 OA
BRANCH  32  34
HETATM   34  O2  UNK     1      29.981  -9.435  36.751  1.00  0.00    -0.322 OA
HETATM   35  C23 UNK     1      31.044  -9.663  37.682  1.00  0.00     0.213 C 
ENDBRANCH  32  34
ENDBRANCH   8  32
BRANCH  12  36
HETATM   36  O1  UNK     1      36.607  -6.970  34.269  1.00  0.00    -0.356 OA
HETATM   37  C20 UNK     1      36.963  -8.283  33.843  1.00  0.00     0.210 C 
ENDBRANCH  12  36
TORSDOF 7
ENDMDL
MODEL 5
REMARK VINA RESULT:      -8.4     26.929     29.345
REMARK  7 active torsions:
REMARK  status: ('A' for Active; 'I' for Inactive)
REMARK    1  A    between atoms: C11_20  and  O1_2 
REMARK    2  A    between atoms: C13_22  and  O2_3 
REMARK    3  A    between atoms: C21_30  and  O6_7 
REMARK    4  A    between atoms: C26_35  and  O6_7 
REMARK       I    between atoms: C14_23  and  N1_9 
REMARK    5  A    between atoms: C8_17  and  N1_9 
REMARK    6  A    between atoms: C13_22  and  C7_16 
REMARK    7  A    between atoms: C14_23  and  C15_24 
ROOT
HETATM    1  S1  UNK     1      15.654  11.817   7.001  1.00  0.00    -0.075 SA
HETATM    2  C1  UNK     1      18.001  13.315   6.685  1.00  0.00     0.051 C 
HETATM    3  C2  UNK     1      19.507  13.031   6.774  1.00  0.00     0.044 C 
HETATM    4  C3  UNK     1      17.717  11.567   8.523  1.00  0.00     0.007 A 
HETATM    5  C4  UNK     1      17.242  12.260   7.424  1.00  0.00    -0.003 A 
HETATM    6  C5  UNK     1      19.943  12.599   8.161  1.00  0.00    -0.044 A 
HETATM    7  C6  UNK     1      19.071  11.855   8.992  1.00  0.00    -0.017 A 
HETATM    8  C7  UNK     1      16.740  10.651   9.018  1.00  0.00     0.085 A 
HETATM    9  C8  UNK     1      15.575  10.684   8.281  1.00  0.00     0.094 A 
HETATM   10  C9  UNK     1      21.246  12.870   8.595  1.00  0.00     0.044 A 
HETATM   11  C10 UNK     1      19.518  11.418  10.245  1.00  0.00     0.015 A 
HETATM   12  C11 UNK     1      21.678  12.432   9.846  1.00  0.00     0.068 A 
HETATM   13  C12 UNK     1      20.816  11.709  10.668  1.00  0.00     0.037 A 
ENDROOT
BRANCH   9  14
HETATM   14  N1  UNK     1      14.407   9.979   8.400  1.00  0.00    -0.316 N 
HETATM   15  C14 UNK     1      14.212   8.579   8.377  1.00  0.00     0.262 C 
HETATM   16  O5  UNK     1      15.068   7.712   8.244  1.00  0.00    -0.267 OA
HETATM   17  H8  UNK     1      13.581  10.564   8.503  1.00  0.00     0.169 HD
BRANCH  15  18
HETATM   18  C15 UNK     1      12.799   8.183   8.538  1.00  0.00     0.108 A 
HETATM   19  C17 UNK     1      12.226   7.592   7.482  1.00  0.00     0.037 A 
HETATM   20  C16 UNK     1      10.836   7.166   7.545  1.00  0.00     0.002 A 
HETATM   21  C18 UNK     1      10.118   7.385   8.715  1.00  0.00     0.123 A 
HETATM   22  C22 UNK     1      10.199   6.545   6.468  1.00  0.00     0.014 A 
HETATM   23  O4  UNK     1      10.726   8.007   9.823  1.00  0.00    -0.271 OA
HETATM   24  C21 UNK     1       8.783   7.001   8.840  1.00  0.00     0.103 A 
HETATM   25  C19 UNK     1      12.053   8.424   9.794  1.00  0.00     0.304 A 
HETATM   26  O7  UNK     1      12.575   8.964  10.763  1.00  0.00    -0.259 OA
HETATM   27  C24 UNK     1       8.155   6.382   7.761  1.00  0.00     0.040 A 
HETATM   28  C25 UNK     1       8.862   6.155   6.577  1.00  0.00     0.004 A 
BRANCH  24  29
HETATM   29  O6  UNK     1       8.093   7.221   9.990  1.00  0.00    -0.349 OA
BRANCH  29  30
HETATM   30  C26 UNK     1       7.402   6.107  10.557  1.00  0.00     0.171 C 
HETATM   31  C27 UNK     1       5.974   6.512  10.853  1.00  0.00     0.034 C 
ENDBRANCH  29  30
ENDBRANCH  24  29
ENDBRANCH  15  18
ENDBRANCH   9  14
BRANCH   8  32
HETATM   32  C13 UNK     1      16.868   9.731  10.122  1.00  0.00     0.296 C 
HETATM   33  O3  UNK     1      16.275   9.862  11.202  1.00  0.00    -0.259 OA
BRANCH  32  34
HETATM   34  O2  UNK     1      17.716   8.675   9.873  1.00  0.00    -0.322 OA
HETATM   35  C23 UNK     1      17.458   7.458  10.581  1.00  0.00     0.213 C 
ENDBRANCH  32  34
ENDBRANCH   8  32
BRANCH  12  36
HETATM   36  O1  UNK     1      22.944  12.706  10.264  1.00  0.00    -0.356 OA
HETATM   37  C20 UNK     1      23.229  12.505  11.647  1.00  0.00     0.210 C 
ENDBRANCH  12  36
TORSDOF 7
ENDMDL
MODEL 6
REMARK VINA RESULT:      -8.4      9.222     13.186
REMARK  7 active torsions:
REMARK  status: ('A' for Active; 'I' for Inactive)
REMARK    1  A    between atoms: C11_20  and  O1_2 
REMARK    2  A    between atoms: C13_22  and  O2_3 
REMARK    3  A    between atoms: C21_30  and  O6_7 
REMARK    4  A    between atoms: C26_35  and  O6_7 
REMARK       I    between atoms: C14_23  and  N1_9 
REMARK    5  A    between atoms: C8_17  and  N1_9 
REMARK    6  A    between atoms: C13_22  and  C7_16 
REMARK    7  A    between atoms: C14_23  and  C15_24 
ROOT
HETATM    1  S1  UNK     1      29.133  -6.030  38.693  1.00  0.00    -0.075 SA
HETATM    2  C1  UNK     1      31.861  -5.392  38.671  1.00  0.00     0.051 C 
HETATM    3  C2  UNK     1      32.912  -5.090  37.593  1.00  0.00     0.044 C 
HETATM    4  C3  UNK     1      30.804  -6.983  36.980  1.00  0.00     0.007 A 
HETATM    5  C4  UNK     1      30.712  -6.132  38.066  1.00  0.00    -0.003 A 
HETATM    6  C5  UNK     1      33.156  -6.265  36.665  1.00  0.00    -0.044 A 
HETATM    7  C6  UNK     1      32.109  -7.163  36.347  1.00  0.00    -0.017 A 
HETATM    8  C7  UNK     1      29.535  -7.558  36.666  1.00  0.00     0.085 A 
HETATM    9  C8  UNK     1      28.541  -7.123  37.516  1.00  0.00     0.094 A 
HETATM   10  C9  UNK     1      34.407  -6.419  36.056  1.00  0.00     0.044 A 
HETATM   11  C10 UNK     1      32.345  -8.205  35.443  1.00  0.00     0.015 A 
HETATM   12  C11 UNK     1      34.630  -7.463  35.159  1.00  0.00     0.068 A 
HETATM   13  C12 UNK     1      33.603  -8.353  34.854  1.00  0.00     0.037 A 
ENDROOT
BRANCH   9  14
HETATM   14  N1  UNK     1      27.203  -7.409  37.568  1.00  0.00    -0.316 N 
HETATM   15  C14 UNK     1      26.499  -8.178  38.522  1.00  0.00     0.262 C 
HETATM   16  O5  UNK     1      26.961  -8.746  39.505  1.00  0.00    -0.267 OA
HETATM   17  H8  UNK     1      26.667  -7.017  36.797  1.00  0.00     0.169 HD
BRANCH  15  18
HETATM   18  C15 UNK     1      25.050  -8.265  38.249  1.00  0.00     0.108 A 
HETATM   19  C17 UNK     1      24.260  -7.478  38.991  1.00  0.00     0.037 A 
HETATM   20  C16 UNK     1      22.819  -7.494  38.795  1.00  0.00     0.002 A 
HETATM   21  C18 UNK     1      22.280  -8.339  37.831  1.00  0.00     0.123 A 
HETATM   22  C22 UNK     1      21.957  -6.689  39.545  1.00  0.00     0.014 A 
HETATM   23  O4  UNK     1      23.116  -9.165  37.055  1.00  0.00    -0.271 OA
HETATM   24  C21 UNK     1      20.907  -8.402  37.595  1.00  0.00     0.103 A 
HETATM   25  C19 UNK     1      24.498  -9.171  37.218  1.00  0.00     0.304 A 
HETATM   26  O7  UNK     1      25.218  -9.893  36.537  1.00  0.00    -0.259 OA
HETATM   27  C24 UNK     1      20.055  -7.595  38.347  1.00  0.00     0.040 A 
HETATM   28  C25 UNK     1      20.579  -6.741  39.320  1.00  0.00     0.004 A 
BRANCH  24  29
HETATM   29  O6  UNK     1      20.393  -9.233  36.650  1.00  0.00    -0.349 OA
BRANCH  29  30
HETATM   30  C26 UNK     1      19.261 -10.019  37.021  1.00  0.00     0.171 C 
HETATM   31  C27 UNK     1      19.715 -11.129  37.946  1.00  0.00     0.034 C 
ENDBRANCH  29  30
ENDBRANCH  24  29
ENDBRANCH  15  18
ENDBRANCH   9  14
BRANCH   8  32
HETATM   32  C13 UNK     1      29.215  -8.463  35.589  1.00  0.00     0.296 C 
HETATM   33  O3  UNK     1      28.871  -9.642  35.757  1.00  0.00    -0.259 OA
BRANCH  32  34
HETATM   34  O2  UNK     1      29.324  -7.902  34.336  1.00  0.00    -0.322 OA
HETATM   35  C23 UNK     1      28.339  -6.928  33.976  1.00  0.00     0.213 C 
ENDBRANCH  32  34
ENDBRANCH   8  32
BRANCH  12  36
HETATM   36  O1  UNK     1      35.852  -7.611  34.576  1.00  0.00    -0.356 OA
HETATM   37  C20 UNK     1      36.004  -7.105  33.252  1.00  0.00     0.210 C 
ENDBRANCH  12  36
TORSDOF 7
ENDMDL
MODEL 7
REMARK VINA RESULT:      -8.3     17.823     22.235
REMARK  7 active torsions:
REMARK  status: ('A' for Active; 'I' for Inactive)
REMARK    1  A    between atoms: C11_20  and  O1_2 
REMARK    2  A    between atoms: C13_22  and  O2_3 
REMARK    3  A    between atoms: C21_30  and  O6_7 
REMARK    4  A    between atoms: C26_35  and  O6_7 
REMARK       I    between atoms: C14_23  and  N1_9 
REMARK    5  A    between atoms: C8_17  and  N1_9 
REMARK    6  A    between atoms: C13_22  and  C7_16 
REMARK    7  A    between atoms: C14_23  and  C15_24 
ROOT
HETATM    1  S1  UNK     1      20.112  -4.822  15.189  1.00  0.00    -0.075 SA
HETATM    2  C1  UNK     1      20.381  -7.009  13.458  1.00  0.00     0.051 C 
HETATM    3  C2  UNK     1      21.145  -7.295  12.157  1.00  0.00     0.044 C 
HETATM    4  C3  UNK     1      20.160  -4.609  12.622  1.00  0.00     0.007 A 
HETATM    5  C4  UNK     1      20.237  -5.533  13.647  1.00  0.00    -0.003 A 
HETATM    6  C5  UNK     1      20.699  -6.412  11.008  1.00  0.00    -0.044 A 
HETATM    7  C6  UNK     1      20.252  -5.090  11.245  1.00  0.00    -0.017 A 
HETATM    8  C7  UNK     1      19.994  -3.285  13.132  1.00  0.00     0.085 A 
HETATM    9  C8  UNK     1      19.956  -3.259  14.510  1.00  0.00     0.094 A 
HETATM   10  C9  UNK     1      20.803  -6.880   9.692  1.00  0.00     0.044 A 
HETATM   11  C10 UNK     1      19.901  -4.276  10.162  1.00  0.00     0.015 A 
HETATM   12  C11 UNK     1      20.447  -6.059   8.622  1.00  0.00     0.068 A 
HETATM   13  C12 UNK     1      19.997  -4.762   8.857  1.00  0.00     0.037 A 
ENDROOT
BRANCH   9  14
HETATM   14  N1  UNK     1      19.822  -2.221  15.393  1.00  0.00    -0.316 N 
HETATM   15  C14 UNK     1      18.669  -1.799  16.093  1.00  0.00     0.262 C 
HETATM   16  O5  UNK     1      17.547  -2.289  16.042  1.00  0.00    -0.267 OA
HETATM   17  H8  UNK     1      20.677  -1.689  15.537  1.00  0.00     0.169 HD
BRANCH  15  18
HETATM   18  C15 UNK     1      18.911  -0.633  16.967  1.00  0.00     0.108 A 
HETATM   19  C17 UNK     1      18.941  -0.877  18.283  1.00  0.00     0.037 A 
HETATM   20  C16 UNK     1      19.172   0.207  19.225  1.00  0.00     0.002 A 
HETATM   21  C18 UNK     1      19.358   1.496  18.735  1.00  0.00     0.123 A 
HETATM   22  C22 UNK     1      19.213  -0.002  20.606  1.00  0.00     0.014 A 
HETATM   23  O4  UNK     1      19.324   1.746  17.350  1.00  0.00    -0.271 OA
HETATM   24  C21 UNK     1      19.583   2.578  19.584  1.00  0.00     0.103 A 
HETATM   25  C19 UNK     1      19.107   0.730  16.424  1.00  0.00     0.304 A 
HETATM   26  O7  UNK     1      19.080   0.957  15.220  1.00  0.00    -0.259 OA
HETATM   27  C24 UNK     1      19.623   2.361  20.960  1.00  0.00     0.040 A 
HETATM   28  C25 UNK     1      19.438   1.074  21.469  1.00  0.00     0.004 A 
BRANCH  24  29
HETATM   29  O6  UNK     1      19.763   3.833  19.092  1.00  0.00    -0.349 OA
BRANCH  29  30
HETATM   30  C26 UNK     1      21.044   4.138  18.542  1.00  0.00     0.171 C 
HETATM   31  C27 UNK     1      21.088   5.608  18.183  1.00  0.00     0.034 C 
ENDBRANCH  29  30
ENDBRANCH  24  29
ENDBRANCH  15  18
ENDBRANCH   9  14
BRANCH   8  32
HETATM   32  C13 UNK     1      19.907  -2.053  12.386  1.00  0.00     0.296 C 
HETATM   33  O3  UNK     1      18.844  -1.572  11.969  1.00  0.00    -0.259 OA
BRANCH  32  34
HETATM   34  O2  UNK     1      21.123  -1.443  12.171  1.00  0.00    -0.322 OA
HETATM   35  C23 UNK     1      21.487  -1.189  10.810  1.00  0.00     0.213 C 
ENDBRANCH  32  34
ENDBRANCH   8  32
BRANCH  12  36
HETATM   36  O1  UNK     1      20.544  -6.524   7.346  1.00  0.00    -0.356 OA
HETATM   37  C20 UNK     1      21.017  -5.612   6.357  1.00  0.00     0.210 C 
ENDBRANCH  12  36
TORSDOF 7
ENDMDL
MODEL 8
REMARK VINA RESULT:      -8.2      9.839     14.223
REMARK  7 active torsions:
REMARK  status: ('A' for Active; 'I' for Inactive)
REMARK    1  A    between atoms: C11_20  and  O1_2 
REMARK    2  A    between atoms: C13_22  and  O2_3 
REMARK    3  A    between atoms: C21_30  and  O6_7 
REMARK    4  A    between atoms: C26_35  and  O6_7 
REMARK       I    between atoms: C14_23  and  N1_9 
REMARK    5  A    between atoms: C8_17  and  N1_9 
REMARK    6  A    between atoms: C13_22  and  C7_16 
REMARK    7  A    between atoms: C14_23  and  C15_24 
ROOT
HETATM    1  S1  UNK     1      30.504  -6.593  37.941  1.00  0.00    -0.075 SA
HETATM    2  C1  UNK     1      33.218  -5.905  37.835  1.00  0.00     0.051 C 
HETATM    3  C2  UNK     1      34.222  -5.556  36.728  1.00  0.00     0.044 C 
HETATM    4  C3  UNK     1      32.127  -7.472  36.144  1.00  0.00     0.007 A 
HETATM    5  C4  UNK     1      32.060  -6.650  37.254  1.00  0.00    -0.003 A 
HETATM    6  C5  UNK     1      34.453  -6.703  35.761  1.00  0.00    -0.044 A 
HETATM    7  C6  UNK     1      33.411  -7.612  35.459  1.00  0.00    -0.017 A 
HETATM    8  C7  UNK     1      30.858  -8.062  35.862  1.00  0.00     0.085 A 
HETATM    9  C8  UNK     1      29.888  -7.667  36.759  1.00  0.00     0.094 A 
HETATM   10  C9  UNK     1      35.683  -6.819  35.103  1.00  0.00     0.044 A 
HETATM   11  C10 UNK     1      33.631  -8.626  34.520  1.00  0.00     0.015 A 
HETATM   12  C11 UNK     1      35.890  -7.836  34.172  1.00  0.00     0.068 A 
HETATM   13  C12 UNK     1      34.868  -8.737  33.882  1.00  0.00     0.037 A 
ENDROOT
BRANCH   9  14
HETATM   14  N1  UNK     1      28.558  -7.978  36.853  1.00  0.00    -0.316 N 
HETATM   15  C14 UNK     1      27.930  -8.931  37.685  1.00  0.00     0.262 C 
HETATM   16  O5  UNK     1      28.465  -9.675  38.499  1.00  0.00    -0.267 OA
HETATM   17  H8  UNK     1      27.965  -7.451  36.216  1.00  0.00     0.169 HD
BRANCH  15  18
HETATM   18  C15 UNK     1      26.464  -8.986  37.509  1.00  0.00     0.108 A 
HETATM   19  C17 UNK     1      25.990 -10.034  36.823  1.00  0.00     0.037 A 
HETATM   20  C16 UNK     1      24.560 -10.175  36.597  1.00  0.00     0.002 A 
HETATM   21  C18 UNK     1      23.700  -9.205  37.102  1.00  0.00     0.123 A 
HETATM   22  C22 UNK     1      24.021 -11.252  35.889  1.00  0.00     0.014 A 
HETATM   23  O4  UNK     1      24.205  -8.105  37.821  1.00  0.00    -0.271 OA
HETATM   24  C21 UNK     1      22.319  -9.282  36.919  1.00  0.00     0.103 A 
HETATM   25  C19 UNK     1      25.567  -7.943  38.055  1.00  0.00     0.304 A 
HETATM   26  O7  UNK     1      25.998  -6.982  38.684  1.00  0.00    -0.259 OA
HETATM   27  C24 UNK     1      21.790 -10.359  36.212  1.00  0.00     0.040 A 
HETATM   28  C25 UNK     1      22.639 -11.342  35.698  1.00  0.00     0.004 A 
BRANCH  24  29
HETATM   29  O6  UNK     1      21.490  -8.326  37.418  1.00  0.00    -0.349 OA
BRANCH  29  30
HETATM   30  C26 UNK     1      20.878  -8.590  38.680  1.00  0.00     0.171 C 
HETATM   31  C27 UNK     1      20.116  -7.360  39.125  1.00  0.00     0.034 C 
ENDBRANCH  29  30
ENDBRANCH  24  29
ENDBRANCH  15  18
ENDBRANCH   9  14
BRANCH   8  32
HETATM   32  C13 UNK     1      30.513  -8.946  34.774  1.00  0.00     0.296 C 
HETATM   33  O3  UNK     1      30.342 -10.167  34.904  1.00  0.00    -0.259 OA
BRANCH  32  34
HETATM   34  O2  UNK     1      30.388  -8.312  33.558  1.00  0.00    -0.322 OA
HETATM   35  C23 UNK     1      30.600  -9.110  32.388  1.00  0.00     0.213 C 
ENDBRANCH  32  34
ENDBRANCH   8  32
BRANCH  12  36
HETATM   36  O1  UNK     1      37.092  -7.947  33.541  1.00  0.00    -0.356 OA
HETATM   37  C20 UNK     1      37.399  -9.206  32.947  1.00  0.00     0.210 C 
ENDBRANCH  12  36
TORSDOF 7
ENDMDL
MODEL 9
REMARK VINA RESULT:      -8.1      2.126      3.480
REMARK  7 active torsions:
REMARK  status: ('A' for Active; 'I' for Inactive)
REMARK    1  A    between atoms: C11_20  and  O1_2 
REMARK    2  A    between atoms: C13_22  and  O2_3 
REMARK    3  A    between atoms: C21_30  and  O6_7 
REMARK    4  A    between atoms: C26_35  and  O6_7 
REMARK       I    between atoms: C14_23  and  N1_9 
REMARK    5  A    between atoms: C8_17  and  N1_9 
REMARK    6  A    between atoms: C13_22  and  C7_16 
REMARK    7  A    between atoms: C14_23  and  C15_24 
ROOT
HETATM    1  S1  UNK     1      18.787  -0.298  36.398  1.00  0.00    -0.075 SA
HETATM    2  C1  UNK     1      18.377   2.376  35.668  1.00  0.00     0.051 C 
HETATM    3  C2  UNK     1      17.623   3.107  34.549  1.00  0.00     0.044 C 
HETATM    4  C3  UNK     1      18.820   0.533  33.960  1.00  0.00     0.007 A 
HETATM    5  C4  UNK     1      18.640   0.961  35.263  1.00  0.00    -0.003 A 
HETATM    6  C5  UNK     1      18.170   2.792  33.169  1.00  0.00    -0.044 A 
HETATM    7  C6  UNK     1      18.721   1.519  32.885  1.00  0.00    -0.017 A 
HETATM    8  C7  UNK     1      19.084  -0.869  33.909  1.00  0.00     0.085 A 
HETATM    9  C8  UNK     1      19.091  -1.443  35.163  1.00  0.00     0.094 A 
HETATM   10  C9  UNK     1      18.058   3.740  32.145  1.00  0.00     0.044 A 
HETATM   11  C10 UNK     1      19.165   1.233  31.589  1.00  0.00     0.015 A 
HETATM   12  C11 UNK     1      18.508   3.443  30.859  1.00  0.00     0.068 A 
HETATM   13  C12 UNK     1      19.059   2.195  30.582  1.00  0.00     0.037 A 
ENDROOT
BRANCH   9  14
HETATM   14  N1  UNK     1      19.291  -2.737  35.566  1.00  0.00    -0.316 N 
HETATM   15  C14 UNK     1      20.440  -3.313  36.153  1.00  0.00     0.262 C 
HETATM   16  O5  UNK     1      21.499  -2.754  36.418  1.00  0.00    -0.267 OA
HETATM   17  H8  UNK     1      18.497  -3.349  35.396  1.00  0.00     0.169 HD
BRANCH  15  18
HETATM   18  C15 UNK     1      20.283  -4.749  36.458  1.00  0.00     0.108 A 
HETATM   19  C17 UNK     1      20.222  -5.075  37.755  1.00  0.00     0.037 A 
HETATM   20  C16 UNK     1      20.069  -6.465  38.156  1.00  0.00     0.002 A 
HETATM   21  C18 UNK     1      19.989  -7.444  37.171  1.00  0.00     0.123 A 
HETATM   22  C22 UNK     1      19.999  -6.850  39.497  1.00  0.00     0.014 A 
HETATM   23  O4  UNK     1      20.055  -7.095  35.809  1.00  0.00    -0.271 OA
HETATM   24  C21 UNK     1      19.842  -8.793  37.488  1.00  0.00     0.103 A 
HETATM   25  C19 UNK     1      20.200  -5.774  35.394  1.00  0.00     0.304 A 
HETATM   26  O7  UNK     1      20.255  -5.480  34.205  1.00  0.00    -0.259 OA
HETATM   27  C24 UNK     1      19.773  -9.169  38.828  1.00  0.00     0.040 A 
HETATM   28  C25 UNK     1      19.852  -8.199  39.831  1.00  0.00     0.004 A 
BRANCH  24  29
HETATM   29  O6  UNK     1      19.766  -9.740  36.516  1.00  0.00    -0.349 OA
BRANCH  29  30
HETATM   30  C26 UNK     1      20.824 -10.697  36.455  1.00  0.00     0.171 C 
HETATM   31  C27 UNK     1      21.738 -10.348  35.300  1.00  0.00     0.034 C 
ENDBRANCH  29  30
ENDBRANCH  24  29
ENDBRANCH  15  18
ENDBRANCH   9  14
BRANCH   8  32
HETATM   32  C13 UNK     1      19.293  -1.689  32.741  1.00  0.00     0.296 C 
HETATM   33  O3  UNK     1      18.449  -1.843  31.845  1.00  0.00    -0.259 OA
BRANCH  32  34
HETATM   34  O2  UNK     1      20.527  -2.300  32.700  1.00  0.00    -0.322 OA
HETATM   35  C23 UNK     1      20.918  -2.883  31.453  1.00  0.00     0.213 C 
ENDBRANCH  32  34
ENDBRANCH   8  32
BRANCH  12  36
HETATM   36  O1  UNK     1      18.402   4.374  29.870  1.00  0.00    -0.356 OA
HETATM   37  C20 UNK     1      19.140   5.583  30.036  1.00  0.00     0.210 C 
ENDBRANCH  12  36
TORSDOF 7
ENDMDL
MODEL 10
REMARK VINA RESULT:      -8.0     26.907     29.748
REMARK  7 active torsions:
REMARK  status: ('A' for Active; 'I' for Inactive)
REMARK    1  A    between atoms: C11_20  and  O1_2 
REMARK    2  A    between atoms: C13_22  and  O2_3 
REMARK    3  A    between atoms: C21_30  and  O6_7 
REMARK    4  A    between atoms: C26_35  and  O6_7 
REMARK       I    between atoms: C14_23  and  N1_9 
REMARK    5  A    between atoms: C8_17  and  N1_9 
REMARK    6  A    between atoms: C13_22  and  C7_16 
REMARK    7  A    between atoms: C14_23  and  C15_24 
ROOT
HETATM    1  S1  UNK     1      17.250   7.529  10.133  1.00  0.00    -0.075 SA
HETATM    2  C1  UNK     1      15.314   5.504  10.185  1.00  0.00     0.051 C 
HETATM    3  C2  UNK     1      14.156   5.066   9.276  1.00  0.00     0.044 C 
HETATM    4  C3  UNK     1      14.795   7.889   9.439  1.00  0.00     0.007 A 
HETATM    5  C4  UNK     1      15.677   6.925   9.893  1.00  0.00    -0.003 A 
HETATM    6  C5  UNK     1      13.078   6.124   9.147  1.00  0.00    -0.044 A 
HETATM    7  C6  UNK     1      13.408   7.500   9.194  1.00  0.00    -0.017 A 
HETATM    8  C7  UNK     1      15.444   9.152   9.288  1.00  0.00     0.085 A 
HETATM    9  C8  UNK     1      16.779   9.095   9.628  1.00  0.00     0.094 A 
HETATM   10  C9  UNK     1      11.754   5.740   8.900  1.00  0.00     0.044 A 
HETATM   11  C10 UNK     1      12.402   8.457   9.014  1.00  0.00     0.015 A 
HETATM   12  C11 UNK     1      10.761   6.704   8.725  1.00  0.00     0.068 A 
HETATM   13  C12 UNK     1      11.085   8.057   8.782  1.00  0.00     0.037 A 
ENDROOT
BRANCH   9  14
HETATM   14  N1  UNK     1      17.757  10.054   9.624  1.00  0.00    -0.316 N 
HETATM   15  C14 UNK     1      17.812  11.265  10.350  1.00  0.00     0.262 C 
HETATM   16  O5  UNK     1      16.979  11.697  11.138  1.00  0.00    -0.267 OA
HETATM   17  H8  UNK     1      18.530   9.851   8.994  1.00  0.00     0.169 HD
BRANCH  15  18
HETATM   18  C15 UNK     1      19.036  12.049  10.087  1.00  0.00     0.108 A 
HETATM   19  C17 UNK     1      20.153  11.620  10.686  1.00  0.00     0.037 A 
HETATM   20  C16 UNK     1      21.409  12.327  10.488  1.00  0.00     0.002 A 
HETATM   21  C18 UNK     1      21.426  13.453   9.672  1.00  0.00     0.123 A 
HETATM   22  C22 UNK     1      22.600  11.913  11.092  1.00  0.00     0.014 A 
HETATM   23  O4  UNK     1      20.247  13.900   9.046  1.00  0.00    -0.271 OA
HETATM   24  C21 UNK     1      22.596  14.175   9.442  1.00  0.00     0.103 A 
HETATM   25  C19 UNK     1      19.031  13.244   9.214  1.00  0.00     0.304 A 
HETATM   26  O7  UNK     1      18.009  13.640   8.664  1.00  0.00    -0.259 OA
HETATM   27  C24 UNK     1      23.779  13.756  10.047  1.00  0.00     0.040 A 
HETATM   28  C25 UNK     1      23.780  12.628  10.871  1.00  0.00     0.004 A 
BRANCH  24  29
HETATM   29  O6  UNK     1      22.598  15.274   8.642  1.00  0.00    -0.349 OA
BRANCH  29  30
HETATM   30  C26 UNK     1      23.222  15.148   7.364  1.00  0.00     0.171 C 
HETATM   31  C27 UNK     1      22.153  15.147   6.292  1.00  0.00     0.034 C 
ENDBRANCH  29  30
ENDBRANCH  24  29
ENDBRANCH  15  18
ENDBRANCH   9  14
BRANCH   8  32
HETATM   32  C13 UNK     1      14.876  10.388   8.809  1.00  0.00     0.296 C 
HETATM   33  O3  UNK     1      14.148  11.124   9.492  1.00  0.00    -0.259 OA
BRANCH  32  34
HETATM   34  O2  UNK     1      15.213  10.691   7.509  1.00  0.00    -0.322 OA
HETATM   35  C23 UNK     1      15.549  12.054   7.229  1.00  0.00     0.213 C 
ENDBRANCH  32  34
ENDBRANCH   8  32
BRANCH  12  36
HETATM   36  O1  UNK     1       9.475   6.322   8.493  1.00  0.00    -0.356 OA
HETATM   37  C20 UNK     1       9.060   6.235   7.132  1.00  0.00     0.210 C 
ENDBRANCH  12  36
TORSDOF 7
ENDMDL
