MODEL 1
REMARK VINA RESULT:     -10.6      0.000      0.000
REMARK  4 active torsions:
REMARK  status: ('A' for Active; 'I' for Inactive)
REMARK    1  A    between atoms: C10_14  and  O1_1 
REMARK    2  A    between atoms: C4_8  and  O1_1 
REMARK    3  A    between atoms: C13_17  and  C8_12 
REMARK    4  A    between atoms: C10_14  and  C13_17 
ROOT
HETATM    1  C10 UNK     1      19.441   0.894  31.053  1.00  0.00     0.259 C 
ENDROOT
BRANCH   1   2
HETATM    2  O1  UNK     1      18.710  -0.268  31.440  1.00  0.00    -0.344 OA
BRANCH   2   3
HETATM    3  C4  UNK     1      18.719  -0.595  32.761  1.00  0.00     0.072 A 
HETATM    4  C6  UNK     1      19.499  -1.655  33.211  1.00  0.00     0.075 A 
HETATM    5  C2  UNK     1      19.495  -1.974  34.570  1.00  0.00     0.092 A 
HETATM    6  C1  UNK     1      18.732  -1.266  35.500  1.00  0.00     0.004 A 
HETATM    7  O2  UNK     1      20.305  -3.056  34.967  1.00  0.00    -0.275 OA
HETATM    8  C3  UNK     1      18.788  -1.671  36.911  1.00  0.00    -0.043 A 
HETATM    9  C5  UNK     1      17.953  -0.202  35.026  1.00  0.00     0.017 A 
HETATM   10  C12 UNK     1      19.566  -2.705  37.259  1.00  0.00     0.090 A 
HETATM   11  C18 UNK     1      17.979  -0.930  37.935  1.00  0.00     0.049 C 
HETATM   12  C19 UNK     1      20.378  -3.461  36.290  1.00  0.00     0.288 A 
HETATM   13  O4  UNK     1      21.079  -4.401  36.646  1.00  0.00    -0.260 OA
HETATM   14  C9  UNK     1      17.947   0.130  33.666  1.00  0.00     0.038 A 
ENDBRANCH   2   3
ENDBRANCH   1   2
BRANCH   1  15
HETATM   15  C13 UNK     1      18.488   1.971  30.571  1.00  0.00     0.183 C 
HETATM   16  O3  UNK     1      17.673   1.759  29.677  1.00  0.00    -0.290 OA
BRANCH  15  17
HETATM   17  C8  UNK     1      18.552   3.320  31.204  1.00  0.00     0.012 A 
HETATM   18  C16 UNK     1      19.069   4.368  30.477  1.00  0.00     0.016 A 
HETATM   19  C14 UNK     1      19.130   5.629  31.071  1.00  0.00     0.013 A 
HETATM   20  C7  UNK     1      18.671   5.808  32.376  1.00  0.00    -0.026 A 
HETATM   21  C11 UNK     1      18.734   7.115  32.992  1.00  0.00    -0.026 A 
HETATM   22  C15 UNK     1      18.153   4.726  33.088  1.00  0.00     0.013 A 
HETATM   23  C20 UNK     1      19.867   7.494  33.711  1.00  0.00     0.012 A 
HETATM   24  C21 UNK     1      17.660   7.997  32.868  1.00  0.00     0.012 A 
HETATM   25  C22 UNK     1      19.929   8.754  34.305  1.00  0.00     0.001 A 
HETATM   26  C24 UNK     1      18.855   9.637  34.180  1.00  0.00     0.000 A 
HETATM   27  C23 UNK     1      17.721   9.259  33.461  1.00  0.00     0.001 A 
HETATM   28  C17 UNK     1      18.093   3.465  32.494  1.00  0.00     0.016 A 
ENDBRANCH  15  17
ENDBRANCH   1  15
TORSDOF 4
ENDMDL
MODEL 2
REMARK VINA RESULT:     -10.5      1.371      2.001
REMARK  4 active torsions:
REMARK  status: ('A' for Active; 'I' for Inactive)
REMARK    1  A    between atoms: C10_14  and  O1_1 
REMARK    2  A    between atoms: C4_8  and  O1_1 
REMARK    3  A    between atoms: C13_17  and  C8_12 
REMARK    4  A    between atoms: C10_14  and  C13_17 
ROOT
HETATM    1  C10 UNK     1      19.594   0.659  30.737  1.00  0.00     0.259 C 
ENDROOT
BRANCH   1   2
HETATM    2  O1  UNK     1      18.885  -0.517  31.122  1.00  0.00    -0.344 OA
BRANCH   2   3
HETATM    3  C4  UNK     1      19.053  -0.953  32.401  1.00  0.00     0.072 A 
HETATM    4  C6  UNK     1      18.330  -0.370  33.436  1.00  0.00     0.075 A 
HETATM    5  C2  UNK     1      18.517  -0.832  34.740  1.00  0.00     0.092 A 
HETATM    6  C1  UNK     1      19.408  -1.861  35.046  1.00  0.00     0.004 A 
HETATM    7  O2  UNK     1      17.757  -0.204  35.747  1.00  0.00    -0.275 OA
HETATM    8  C3  UNK     1      19.541  -2.283  36.447  1.00  0.00    -0.043 A 
HETATM    9  C5  UNK     1      20.127  -2.434  33.989  1.00  0.00     0.017 A 
HETATM   10  C12 UNK     1      18.806  -1.668  37.383  1.00  0.00     0.090 A 
HETATM   11  C18 UNK     1      20.491  -3.387  36.808  1.00  0.00     0.049 C 
HETATM   12  C19 UNK     1      17.861  -0.581  37.076  1.00  0.00     0.288 A 
HETATM   13  O4  UNK     1      17.204  -0.041  37.959  1.00  0.00    -0.260 OA
HETATM   14  C9  UNK     1      19.950  -1.983  32.676  1.00  0.00     0.038 A 
ENDBRANCH   2   3
ENDBRANCH   1   2
BRANCH   1  15
HETATM   15  C13 UNK     1      18.621   1.720  30.260  1.00  0.00     0.183 C 
HETATM   16  O3  UNK     1      17.833   1.506  29.342  1.00  0.00    -0.290 OA
BRANCH  15  17
HETATM   17  C8  UNK     1      18.632   3.054  30.927  1.00  0.00     0.012 A 
HETATM   18  C16 UNK     1      19.128   4.135  30.235  1.00  0.00     0.016 A 
HETATM   19  C14 UNK     1      19.138   5.382  30.861  1.00  0.00     0.013 A 
HETATM   20  C7  UNK     1      18.651   5.514  32.161  1.00  0.00    -0.026 A 
HETATM   21  C11 UNK     1      18.662   6.807  32.811  1.00  0.00    -0.026 A 
HETATM   22  C15 UNK     1      18.156   4.398  32.837  1.00  0.00     0.013 A 
HETATM   23  C20 UNK     1      19.771   7.202  33.559  1.00  0.00     0.012 A 
HETATM   24  C21 UNK     1      17.563   7.657  32.688  1.00  0.00     0.012 A 
HETATM   25  C22 UNK     1      19.782   8.449  34.184  1.00  0.00     0.001 A 
HETATM   26  C24 UNK     1      18.683   9.300  34.062  1.00  0.00     0.000 A 
HETATM   27  C23 UNK     1      17.575   8.905  33.314  1.00  0.00     0.001 A 
HETATM   28  C17 UNK     1      18.146   3.152  32.211  1.00  0.00     0.016 A 
ENDBRANCH  15  17
ENDBRANCH   1  15
TORSDOF 4
ENDMDL
MODEL 3
REMARK VINA RESULT:     -10.0      4.027     11.433
REMARK  4 active torsions:
REMARK  status: ('A' for Active; 'I' for Inactive)
REMARK    1  A    between atoms: C10_14  and  O1_1 
REMARK    2  A    between atoms: C4_8  and  O1_1 
REMARK    3  A    between atoms: C13_17  and  C8_12 
REMARK    4  A    between atoms: C10_14  and  C13_17 
ROOT
HETATM    1  C10 UNK     1      20.319  -1.991  35.796  1.00  0.00     0.259 C 
ENDROOT
BRANCH   1   2
HETATM    2  O1  UNK     1      19.169  -1.744  34.989  1.00  0.00    -0.344 OA
BRANCH   2   3
HETATM    3  C4  UNK     1      19.386  -1.367  33.699  1.00  0.00     0.072 A 
HETATM    4  C6  UNK     1      18.806  -0.203  33.205  1.00  0.00     0.075 A 
HETATM    5  C2  UNK     1      19.042   0.165  31.880  1.00  0.00     0.092 A 
HETATM    6  C1  UNK     1      19.841  -0.596  31.026  1.00  0.00     0.004 A 
HETATM    7  O2  UNK     1      18.429   1.354  31.436  1.00  0.00    -0.275 OA
HETATM    8  C3  UNK     1      20.035  -0.132  29.645  1.00  0.00    -0.043 A 
HETATM    9  C5  UNK     1      20.416  -1.764  31.542  1.00  0.00     0.017 A 
HETATM   10  C12 UNK     1      19.439   1.002  29.251  1.00  0.00     0.090 A 
HETATM   11  C18 UNK     1      20.889  -0.928  28.702  1.00  0.00     0.049 C 
HETATM   12  C19 UNK     1      18.593   1.815  30.141  1.00  0.00     0.288 A 
HETATM   13  O4  UNK     1      18.064   2.848  29.745  1.00  0.00    -0.260 OA
HETATM   14  C9  UNK     1      20.189  -2.147  32.869  1.00  0.00     0.038 A 
ENDBRANCH   2   3
ENDBRANCH   1   2
BRANCH   1  15
HETATM   15  C13 UNK     1      19.945  -2.860  36.981  1.00  0.00     0.183 C 
HETATM   16  O3  UNK     1      19.417  -2.390  37.986  1.00  0.00    -0.290 OA
BRANCH  15  17
HETATM   17  C8  UNK     1      20.233  -4.322  36.916  1.00  0.00     0.012 A 
HETATM   18  C16 UNK     1      20.960  -4.899  37.932  1.00  0.00     0.016 A 
HETATM   19  C14 UNK     1      21.229  -6.267  37.870  1.00  0.00     0.013 A 
HETATM   20  C7  UNK     1      20.763  -7.020  36.793  1.00  0.00    -0.026 A 
HETATM   21  C11 UNK     1      21.042  -8.438  36.728  1.00  0.00    -0.026 A 
HETATM   22  C15 UNK     1      20.029  -6.406  35.778  1.00  0.00     0.013 A 
HETATM   23  C20 UNK     1      22.199  -8.893  36.095  1.00  0.00     0.012 A 
HETATM   24  C21 UNK     1      20.154  -9.351  37.298  1.00  0.00     0.012 A 
HETATM   25  C22 UNK     1      22.469 -10.260  36.032  1.00  0.00     0.001 A 
HETATM   26  C24 UNK     1      21.582 -11.173  36.603  1.00  0.00     0.000 A 
HETATM   27  C23 UNK     1      20.425 -10.718  37.236  1.00  0.00     0.001 A 
HETATM   28  C17 UNK     1      19.760  -5.039  35.841  1.00  0.00     0.016 A 
ENDBRANCH  15  17
ENDBRANCH   1  15
TORSDOF 4
ENDMDL
MODEL 4
REMARK VINA RESULT:      -9.9      3.279     11.078
REMARK  4 active torsions:
REMARK  status: ('A' for Active; 'I' for Inactive)
REMARK    1  A    between atoms: C10_14  and  O1_1 
REMARK    2  A    between atoms: C4_8  and  O1_1 
REMARK    3  A    between atoms: C13_17  and  C8_12 
REMARK    4  A    between atoms: C10_14  and  C13_17 
ROOT
HETATM    1  C10 UNK     1      19.337  -1.546  36.402  1.00  0.00     0.259 C 
ENDROOT
BRANCH   1   2
HETATM    2  O1  UNK     1      18.353  -1.697  35.380  1.00  0.00    -0.344 OA
BRANCH   2   3
HETATM    3  C4  UNK     1      18.556  -1.016  34.219  1.00  0.00     0.072 A 
HETATM    4  C6  UNK     1      18.149   0.309  34.106  1.00  0.00     0.075 A 
HETATM    5  C2  UNK     1      18.367   0.988  32.907  1.00  0.00     0.092 A 
HETATM    6  C1  UNK     1      18.981   0.384  31.809  1.00  0.00     0.004 A 
HETATM    7  O2  UNK     1      17.933   2.328  32.852  1.00  0.00    -0.275 OA
HETATM    8  C3  UNK     1      19.170   1.175  30.585  1.00  0.00    -0.043 A 
HETATM    9  C5  UNK     1      19.384  -0.951  31.942  1.00  0.00     0.017 A 
HETATM   10  C12 UNK     1      18.747   2.447  30.562  1.00  0.00     0.090 A 
HETATM   11  C18 UNK     1      19.828   0.554  29.387  1.00  0.00     0.049 C 
HETATM   12  C19 UNK     1      18.098   3.098  31.712  1.00  0.00     0.288 A 
HETATM   13  O4  UNK     1      17.724   4.264  31.655  1.00  0.00    -0.260 OA
HETATM   14  C9  UNK     1      19.173  -1.646  33.139  1.00  0.00     0.038 A 
ENDBRANCH   2   3
ENDBRANCH   1   2
BRANCH   1  15
HETATM   15  C13 UNK     1      20.535  -2.427  36.105  1.00  0.00     0.183 C 
HETATM   16  O3  UNK     1      21.570  -1.969  35.627  1.00  0.00    -0.290 OA
BRANCH  15  17
HETATM   17  C8  UNK     1      20.443  -3.886  36.401  1.00  0.00     0.012 A 
HETATM   18  C16 UNK     1      19.866  -4.715  35.467  1.00  0.00     0.016 A 
HETATM   19  C14 UNK     1      19.779  -6.080  35.746  1.00  0.00     0.013 A 
HETATM   20  C7  UNK     1      20.273  -6.577  36.951  1.00  0.00    -0.026 A 
HETATM   21  C11 UNK     1      20.183  -7.992  37.241  1.00  0.00    -0.026 A 
HETATM   22  C15 UNK     1      20.851  -5.711  37.879  1.00  0.00     0.013 A 
HETATM   23  C20 UNK     1      19.060  -8.501  37.894  1.00  0.00     0.012 A 
HETATM   24  C21 UNK     1      21.220  -8.848  36.868  1.00  0.00     0.012 A 
HETATM   25  C22 UNK     1      18.972  -9.864  38.173  1.00  0.00     0.001 A 
HETATM   26  C24 UNK     1      20.009 -10.720  37.799  1.00  0.00     0.000 A 
HETATM   27  C23 UNK     1      21.132 -10.212  37.147  1.00  0.00     0.001 A 
HETATM   28  C17 UNK     1      20.938  -4.347  37.600  1.00  0.00     0.016 A 
ENDBRANCH  15  17
ENDBRANCH   1  15
TORSDOF 4
ENDMDL
MODEL 5
REMARK VINA RESULT:      -9.8      3.237     10.977
REMARK  4 active torsions:
REMARK  status: ('A' for Active; 'I' for Inactive)
REMARK    1  A    between atoms: C10_14  and  O1_1 
REMARK    2  A    between atoms: C4_8  and  O1_1 
REMARK    3  A    between atoms: C13_17  and  C8_12 
REMARK    4  A    between atoms: C10_14  and  C13_17 
ROOT
HETATM    1  C10 UNK     1      19.276  -1.613  36.473  1.00  0.00     0.259 C 
ENDROOT
BRANCH   1   2
HETATM    2  O1  UNK     1      18.300  -1.576  35.432  1.00  0.00    -0.344 OA
BRANCH   2   3
HETATM    3  C4  UNK     1      18.326  -0.502  34.596  1.00  0.00     0.072 A 
HETATM    4  C6  UNK     1      18.627  -0.675  33.248  1.00  0.00     0.075 A 
HETATM    5  C2  UNK     1      18.647   0.439  32.408  1.00  0.00     0.092 A 
HETATM    6  C1  UNK     1      18.377   1.727  32.870  1.00  0.00     0.004 A 
HETATM    7  O2  UNK     1      18.958   0.202  31.054  1.00  0.00    -0.275 OA
HETATM    8  C3  UNK     1      18.421   2.842  31.914  1.00  0.00    -0.043 A 
HETATM    9  C5  UNK     1      18.076   1.880  34.230  1.00  0.00     0.017 A 
HETATM   10  C12 UNK     1      18.719   2.586  30.633  1.00  0.00     0.090 A 
HETATM   11  C18 UNK     1      18.135   4.239  32.381  1.00  0.00     0.049 C 
HETATM   12  C19 UNK     1      19.007   1.233  30.130  1.00  0.00     0.288 A 
HETATM   13  O4  UNK     1      19.276   1.037  28.950  1.00  0.00    -0.260 OA
HETATM   14  C9  UNK     1      18.051   0.772  35.086  1.00  0.00     0.038 A 
ENDBRANCH   2   3
ENDBRANCH   1   2
BRANCH   1  15
HETATM   15  C13 UNK     1      20.440  -2.494  36.062  1.00  0.00     0.183 C 
HETATM   16  O3  UNK     1      21.424  -2.036  35.486  1.00  0.00    -0.290 OA
BRANCH  15  17
HETATM   17  C8  UNK     1      20.378  -3.952  36.368  1.00  0.00     0.012 A 
HETATM   18  C16 UNK     1      20.926  -4.405  37.546  1.00  0.00     0.016 A 
HETATM   19  C14 UNK     1      20.868  -5.770  37.831  1.00  0.00     0.013 A 
HETATM   20  C7  UNK     1      20.263  -6.644  36.930  1.00  0.00    -0.026 A 
HETATM   21  C11 UNK     1      20.203  -8.060  37.224  1.00  0.00    -0.026 A 
HETATM   22  C15 UNK     1      19.717  -6.155  35.742  1.00  0.00     0.013 A 
HETATM   23  C20 UNK     1      21.235  -8.903  36.811  1.00  0.00     0.012 A 
HETATM   24  C21 UNK     1      19.113  -8.581  37.921  1.00  0.00     0.012 A 
HETATM   25  C22 UNK     1      21.177 -10.267  37.095  1.00  0.00     0.001 A 
HETATM   26  C24 UNK     1      20.088 -10.789  37.793  1.00  0.00     0.000 A 
HETATM   27  C23 UNK     1      19.056  -9.946  38.206  1.00  0.00     0.001 A 
HETATM   28  C17 UNK     1      19.775  -4.791  35.458  1.00  0.00     0.016 A 
ENDBRANCH  15  17
ENDBRANCH   1  15
TORSDOF 4
ENDMDL
MODEL 6
REMARK VINA RESULT:      -9.5     12.862     15.711
REMARK  4 active torsions:
REMARK  status: ('A' for Active; 'I' for Inactive)
REMARK    1  A    between atoms: C10_14  and  O1_1 
REMARK    2  A    between atoms: C4_8  and  O1_1 
REMARK    3  A    between atoms: C13_17  and  C8_12 
REMARK    4  A    between atoms: C10_14  and  C13_17 
ROOT
HETATM    1  C10 UNK     1      34.279  -6.239  37.665  1.00  0.00     0.259 C 
ENDROOT
BRANCH   1   2
HETATM    2  O1  UNK     1      33.212  -5.473  38.221  1.00  0.00    -0.344 OA
BRANCH   2   3
HETATM    3  C4  UNK     1      31.995  -6.076  38.309  1.00  0.00     0.072 A 
HETATM    4  C6  UNK     1      30.839  -5.306  38.383  1.00  0.00     0.075 A 
HETATM    5  C2  UNK     1      29.601  -5.945  38.472  1.00  0.00     0.092 A 
HETATM    6  C1  UNK     1      29.478  -7.335  38.491  1.00  0.00     0.004 A 
HETATM    7  O2  UNK     1      28.465  -5.113  38.543  1.00  0.00    -0.275 OA
HETATM    8  C3  UNK     1      28.135  -7.921  38.586  1.00  0.00    -0.043 A 
HETATM    9  C5  UNK     1      30.654  -8.092  38.415  1.00  0.00     0.017 A 
HETATM   10  C12 UNK     1      27.074  -7.106  38.653  1.00  0.00     0.090 A 
HETATM   11  C18 UNK     1      27.970  -9.413  38.609  1.00  0.00     0.049 C 
HETATM   12  C19 UNK     1      27.186  -5.638  38.635  1.00  0.00     0.288 A 
HETATM   13  O4  UNK     1      26.193  -4.923  38.697  1.00  0.00    -0.260 OA
HETATM   14  C9  UNK     1      31.903  -7.466  38.325  1.00  0.00     0.038 A 
ENDBRANCH   2   3
ENDBRANCH   1   2
BRANCH   1  15
HETATM   15  C13 UNK     1      34.485  -5.864  36.210  1.00  0.00     0.183 C 
HETATM   16  O3  UNK     1      35.580  -5.505  35.785  1.00  0.00    -0.290 OA
BRANCH  15  17
HETATM   17  C8  UNK     1      33.321  -5.934  35.280  1.00  0.00     0.012 A 
HETATM   18  C16 UNK     1      32.898  -7.168  34.842  1.00  0.00     0.016 A 
HETATM   19  C14 UNK     1      31.809  -7.232  33.972  1.00  0.00     0.013 A 
HETATM   20  C7  UNK     1      31.174  -6.060  33.563  1.00  0.00    -0.026 A 
HETATM   21  C11 UNK     1      30.045  -6.126  32.660  1.00  0.00    -0.026 A 
HETATM   22  C15 UNK     1      31.627  -4.824  34.024  1.00  0.00     0.013 A 
HETATM   23  C20 UNK     1      30.251  -6.081  31.281  1.00  0.00     0.012 A 
HETATM   24  C21 UNK     1      28.750  -6.235  33.169  1.00  0.00     0.012 A 
HETATM   25  C22 UNK     1      29.164  -6.145  30.411  1.00  0.00     0.001 A 
HETATM   26  C24 UNK     1      27.869  -6.255  30.919  1.00  0.00     0.000 A 
HETATM   27  C23 UNK     1      27.662  -6.300  32.297  1.00  0.00     0.001 A 
HETATM   28  C17 UNK     1      32.715  -4.760  34.894  1.00  0.00     0.016 A 
ENDBRANCH  15  17
ENDBRANCH   1  15
TORSDOF 4
ENDMDL
MODEL 7
REMARK VINA RESULT:      -9.5      2.869      5.457
REMARK  4 active torsions:
REMARK  status: ('A' for Active; 'I' for Inactive)
REMARK    1  A    between atoms: C10_14  and  O1_1 
REMARK    2  A    between atoms: C4_8  and  O1_1 
REMARK    3  A    between atoms: C13_17  and  C8_12 
REMARK    4  A    between atoms: C10_14  and  C13_17 
ROOT
HETATM    1  C10 UNK     1      18.164   4.716  33.166  1.00  0.00     0.259 C 
ENDROOT
BRANCH   1   2
HETATM    2  O1  UNK     1      17.633   4.170  31.960  1.00  0.00    -0.344 OA
BRANCH   2   3
HETATM    3  C4  UNK     1      18.198   3.022  31.497  1.00  0.00     0.072 A 
HETATM    4  C6  UNK     1      18.431   1.960  32.365  1.00  0.00     0.075 A 
HETATM    5  C2  UNK     1      19.011   0.791  31.870  1.00  0.00     0.092 A 
HETATM    6  C1  UNK     1      19.369   0.647  30.529  1.00  0.00     0.004 A 
HETATM    7  O2  UNK     1      19.223  -0.250  32.796  1.00  0.00    -0.275 OA
HETATM    8  C3  UNK     1      19.974  -0.620  30.095  1.00  0.00    -0.043 A 
HETATM    9  C5  UNK     1      19.126   1.727  29.671  1.00  0.00     0.017 A 
HETATM   10  C12 UNK     1      20.164  -1.592  30.998  1.00  0.00     0.090 A 
HETATM   11  C18 UNK     1      20.370  -0.806  28.659  1.00  0.00     0.049 C 
HETATM   12  C19 UNK     1      19.792  -1.454  32.416  1.00  0.00     0.288 A 
HETATM   13  O4  UNK     1      19.980  -2.365  33.214  1.00  0.00    -0.260 OA
HETATM   14  C9  UNK     1      18.544   2.906  30.152  1.00  0.00     0.038 A 
ENDBRANCH   2   3
ENDBRANCH   1   2
BRANCH   1  15
HETATM   15  C13 UNK     1      18.523   6.175  32.963  1.00  0.00     0.183 C 
HETATM   16  O3  UNK     1      19.618   6.514  32.519  1.00  0.00    -0.290 OA
BRANCH  15  17
HETATM   17  C8  UNK     1      17.516   7.217  33.315  1.00  0.00     0.012 A 
HETATM   18  C16 UNK     1      16.258   6.816  33.704  1.00  0.00     0.016 A 
HETATM   19  C14 UNK     1      15.316   7.792  34.032  1.00  0.00     0.013 A 
HETATM   20  C7  UNK     1      15.658   9.142  33.962  1.00  0.00    -0.026 A 
HETATM   21  C11 UNK     1      14.682  10.154  34.302  1.00  0.00    -0.026 A 
HETATM   22  C15 UNK     1      16.941   9.517  33.563  1.00  0.00     0.013 A 
HETATM   23  C20 UNK     1      13.844  10.675  33.315  1.00  0.00     0.012 A 
HETATM   24  C21 UNK     1      14.578  10.609  35.617  1.00  0.00     0.012 A 
HETATM   25  C22 UNK     1      12.902  11.649  33.642  1.00  0.00     0.001 A 
HETATM   26  C24 UNK     1      12.798  12.105  34.957  1.00  0.00     0.000 A 
HETATM   27  C23 UNK     1      13.635  11.584  35.944  1.00  0.00     0.001 A 
HETATM   28  C17 UNK     1      17.882   8.542  33.235  1.00  0.00     0.016 A 
ENDBRANCH  15  17
ENDBRANCH   1  15
TORSDOF 4
ENDMDL
MODEL 8
REMARK VINA RESULT:      -9.5     24.251     26.817
REMARK  4 active torsions:
REMARK  status: ('A' for Active; 'I' for Inactive)
REMARK    1  A    between atoms: C10_14  and  O1_1 
REMARK    2  A    between atoms: C4_8  and  O1_1 
REMARK    3  A    between atoms: C13_17  and  C8_12 
REMARK    4  A    between atoms: C10_14  and  C13_17 
ROOT
HETATM    1  C10 UNK     1      15.392   6.246   9.852  1.00  0.00     0.259 C 
ENDROOT
BRANCH   1   2
HETATM    2  O1  UNK     1      14.231   5.465  10.135  1.00  0.00    -0.344 OA
BRANCH   2   3
HETATM    3  C4  UNK     1      13.156   5.633   9.318  1.00  0.00     0.072 A 
HETATM    4  C6  UNK     1      11.867   5.499   9.824  1.00  0.00     0.075 A 
HETATM    5  C2  UNK     1      10.779   5.675   8.968  1.00  0.00     0.092 A 
HETATM    6  C1  UNK     1      10.935   5.982   7.616  1.00  0.00     0.004 A 
HETATM    7  O2  UNK     1       9.498   5.527   9.537  1.00  0.00    -0.275 OA
HETATM    8  C3  UNK     1       9.733   6.151   6.789  1.00  0.00    -0.043 A 
HETATM    9  C5  UNK     1      12.241   6.113   7.126  1.00  0.00     0.017 A 
HETATM   10  C12 UNK     1       8.528   6.004   7.358  1.00  0.00     0.090 A 
HETATM   11  C18 UNK     1       9.868   6.482   5.331  1.00  0.00     0.049 C 
HETATM   12  C19 UNK     1       8.347   5.680   8.783  1.00  0.00     0.288 A 
HETATM   13  O4  UNK     1       7.229   5.553   9.268  1.00  0.00    -0.260 OA
HETATM   14  C9  UNK     1      13.343   5.940   7.971  1.00  0.00     0.038 A 
ENDBRANCH   2   3
ENDBRANCH   1   2
BRANCH   1  15
HETATM   15  C13 UNK     1      15.305   7.582  10.564  1.00  0.00     0.183 C 
HETATM   16  O3  UNK     1      14.838   7.681  11.696  1.00  0.00    -0.290 OA
BRANCH  15  17
HETATM   17  C8  UNK     1      15.802   8.801   9.863  1.00  0.00     0.012 A 
HETATM   18  C16 UNK     1      14.997   9.391   8.915  1.00  0.00     0.016 A 
HETATM   19  C14 UNK     1      15.463  10.531   8.258  1.00  0.00     0.013 A 
HETATM   20  C7  UNK     1      16.720  11.049   8.568  1.00  0.00    -0.026 A 
HETATM   21  C11 UNK     1      17.204  12.231   7.887  1.00  0.00    -0.026 A 
HETATM   22  C15 UNK     1      17.513  10.427   9.533  1.00  0.00     0.013 A 
HETATM   23  C20 UNK     1      17.933  12.105   6.704  1.00  0.00     0.012 A 
HETATM   24  C21 UNK     1      16.941  13.496   8.413  1.00  0.00     0.012 A 
HETATM   25  C22 UNK     1      18.398  13.244   6.047  1.00  0.00     0.001 A 
HETATM   26  C24 UNK     1      18.135  14.509   6.573  1.00  0.00     0.000 A 
HETATM   27  C23 UNK     1      17.406  14.635   7.756  1.00  0.00     0.001 A 
HETATM   28  C17 UNK     1      17.047   9.288  10.189  1.00  0.00     0.016 A 
ENDBRANCH  15  17
ENDBRANCH   1  15
TORSDOF 4
ENDMDL
MODEL 9
REMARK VINA RESULT:      -9.2     12.739     14.484
REMARK  4 active torsions:
REMARK  status: ('A' for Active; 'I' for Inactive)
REMARK    1  A    between atoms: C10_14  and  O1_1 
REMARK    2  A    between atoms: C4_8  and  O1_1 
REMARK    3  A    between atoms: C13_17  and  C8_12 
REMARK    4  A    between atoms: C10_14  and  C13_17 
ROOT
HETATM    1  C10 UNK     1      25.969  -7.090  38.729  1.00  0.00     0.259 C 
ENDROOT
BRANCH   1   2
HETATM    2  O1  UNK     1      24.695  -6.883  39.339  1.00  0.00    -0.344 OA
BRANCH   2   3
HETATM    3  C4  UNK     1      23.675  -7.687  38.931  1.00  0.00     0.072 A 
HETATM    4  C6  UNK     1      23.669  -8.206  37.640  1.00  0.00     0.075 A 
HETATM    5  C2  UNK     1      22.613  -9.028  37.243  1.00  0.00     0.092 A 
HETATM    6  C1  UNK     1      21.557  -9.349  38.095  1.00  0.00     0.004 A 
HETATM    7  O2  UNK     1      22.662  -9.524  35.925  1.00  0.00    -0.275 OA
HETATM    8  C3  UNK     1      20.488 -10.222  37.592  1.00  0.00    -0.043 A 
HETATM    9  C5  UNK     1      21.582  -8.817  39.391  1.00  0.00     0.017 A 
HETATM   10  C12 UNK     1      20.560 -10.679  36.335  1.00  0.00     0.090 A 
HETATM   11  C18 UNK     1      19.338 -10.587  38.485  1.00  0.00     0.049 C 
HETATM   12  C19 UNK     1      21.668 -10.348  35.423  1.00  0.00     0.288 A 
HETATM   13  O4  UNK     1      21.701 -10.785  34.278  1.00  0.00    -0.260 OA
HETATM   14  C9  UNK     1      22.634  -7.991  39.805  1.00  0.00     0.038 A 
ENDBRANCH   2   3
ENDBRANCH   1   2
BRANCH   1  15
HETATM   15  C13 UNK     1      26.723  -5.776  38.643  1.00  0.00     0.183 C 
HETATM   16  O3  UNK     1      26.173  -4.701  38.870  1.00  0.00    -0.290 OA
BRANCH  15  17
HETATM   17  C8  UNK     1      28.166  -5.802  38.270  1.00  0.00     0.012 A 
HETATM   18  C16 UNK     1      28.560  -6.578  37.203  1.00  0.00     0.016 A 
HETATM   19  C14 UNK     1      29.911  -6.602  36.856  1.00  0.00     0.013 A 
HETATM   20  C7  UNK     1      30.831  -5.849  37.584  1.00  0.00    -0.026 A 
HETATM   21  C11 UNK     1      32.233  -5.874  37.225  1.00  0.00    -0.026 A 
HETATM   22  C15 UNK     1      30.402  -5.074  38.662  1.00  0.00     0.013 A 
HETATM   23  C20 UNK     1      33.083  -6.822  37.796  1.00  0.00     0.012 A 
HETATM   24  C21 UNK     1      32.734  -4.951  36.307  1.00  0.00     0.012 A 
HETATM   25  C22 UNK     1      34.433  -6.847  37.449  1.00  0.00     0.001 A 
HETATM   26  C24 UNK     1      34.935  -5.924  36.531  1.00  0.00     0.000 A 
HETATM   27  C23 UNK     1      34.085  -4.976  35.960  1.00  0.00     0.001 A 
HETATM   28  C17 UNK     1      29.051  -5.050  39.009  1.00  0.00     0.016 A 
ENDBRANCH  15  17
ENDBRANCH   1  15
TORSDOF 4
ENDMDL
MODEL 10
REMARK VINA RESULT:      -9.2     24.702     28.560
REMARK  4 active torsions:
REMARK  status: ('A' for Active; 'I' for Inactive)
REMARK    1  A    between atoms: C10_14  and  O1_1 
REMARK    2  A    between atoms: C4_8  and  O1_1 
REMARK    3  A    between atoms: C13_17  and  C8_12 
REMARK    4  A    between atoms: C10_14  and  C13_17 
ROOT
HETATM    1  C10 UNK     1      16.806   9.624  10.102  1.00  0.00     0.259 C 
ENDROOT
BRANCH   1   2
HETATM    2  O1  UNK     1      17.894   9.824   9.200  1.00  0.00    -0.344 OA
BRANCH   2   3
HETATM    3  C4  UNK     1      17.844  10.926   8.402  1.00  0.00     0.072 A 
HETATM    4  C6  UNK     1      16.629  11.559   8.162  1.00  0.00     0.075 A 
HETATM    5  C2  UNK     1      16.600  12.687   7.341  1.00  0.00     0.092 A 
HETATM    6  C1  UNK     1      17.751  13.207   6.748  1.00  0.00     0.004 A 
HETATM    7  O2  UNK     1      15.341  13.286   7.135  1.00  0.00    -0.275 OA
HETATM    8  C3  UNK     1      17.627  14.400   5.899  1.00  0.00    -0.043 A 
HETATM    9  C5  UNK     1      18.965  12.556   7.003  1.00  0.00     0.017 A 
HETATM   10  C12 UNK     1      16.417  14.947   5.720  1.00  0.00     0.090 A 
HETATM   11  C18 UNK     1      18.847  14.983   5.247  1.00  0.00     0.049 C 
HETATM   12  C19 UNK     1      15.194  14.410   6.339  1.00  0.00     0.288 A 
HETATM   13  O4  UNK     1      14.103  14.937   6.153  1.00  0.00    -0.260 OA
HETATM   14  C9  UNK     1      19.010  11.423   7.824  1.00  0.00     0.038 A 
ENDBRANCH   2   3
ENDBRANCH   1   2
BRANCH   1  15
HETATM   15  C13 UNK     1      16.382   8.168  10.089  1.00  0.00     0.183 C 
HETATM   16  O3  UNK     1      17.084   7.287  10.579  1.00  0.00    -0.290 OA
BRANCH  15  17
HETATM   17  C8  UNK     1      15.078   7.808   9.462  1.00  0.00     0.012 A 
HETATM   18  C16 UNK     1      14.295   8.812   8.940  1.00  0.00     0.016 A 
HETATM   19  C14 UNK     1      13.075   8.474   8.354  1.00  0.00     0.013 A 
HETATM   20  C7  UNK     1      12.671   7.140   8.305  1.00  0.00    -0.026 A 
HETATM   21  C11 UNK     1      11.406   6.788   7.698  1.00  0.00    -0.026 A 
HETATM   22  C15 UNK     1      13.486   6.144   8.844  1.00  0.00     0.013 A 
HETATM   23  C20 UNK     1      10.247   6.747   8.474  1.00  0.00     0.012 A 
HETATM   24  C21 UNK     1      11.344   6.490   6.337  1.00  0.00     0.012 A 
HETATM   25  C22 UNK     1       9.027   6.409   7.890  1.00  0.00     0.001 A 
HETATM   26  C24 UNK     1       8.965   6.112   6.528  1.00  0.00     0.000 A 
HETATM   27  C23 UNK     1      10.124   6.153   5.751  1.00  0.00     0.001 A 
HETATM   28  C17 UNK     1      14.706   6.483   9.430  1.00  0.00     0.016 A 
ENDBRANCH  15  17
ENDBRANCH   1  15
TORSDOF 4
ENDMDL
