MODEL 1
REMARK VINA RESULT:      -8.6      0.000      0.000
REMARK  4 active torsions:
REMARK  status: ('A' for Active; 'I' for Inactive)
REMARK    1  A    between atoms: C6_11  and  O2_2 
REMARK    2  A    between atoms: C9_14  and  O3_3 
REMARK    3  A    between atoms: C5_10  and  O4_4 
REMARK    4  A    between atoms: C1_6  and  C2_7 
ROOT
HETATM    1  O1  UNK     1      13.215   7.519   8.476  1.00  0.00    -0.306 OA
HETATM    2  O5  UNK     1      15.192   4.167   9.686  1.00  0.00    -0.284 OA
HETATM    3  C2  UNK     1      12.665   6.257   8.315  1.00  0.00     0.126 A 
HETATM    4  C3  UNK     1      15.171   6.518   9.509  1.00  0.00     0.051 A 
HETATM    5  C4  UNK     1      14.446   7.624   9.070  1.00  0.00     0.090 A 
HETATM    6  C5  UNK     1      13.264   5.111   8.684  1.00  0.00     0.152 A 
HETATM    7  C7  UNK     1      14.599   5.177   9.327  1.00  0.00     0.220 A 
HETATM    8  C10 UNK     1      16.422   6.687  10.107  1.00  0.00     0.018 A 
HETATM    9  C11 UNK     1      14.969   8.909   9.228  1.00  0.00     0.038 A 
HETATM   10  C14 UNK     1      16.942   7.973  10.264  1.00  0.00     0.001 A 
HETATM   11  C15 UNK     1      16.217   9.081   9.826  1.00  0.00     0.003 A 
ENDROOT
BRANCH   3  12
HETATM   12  C1  UNK     1      11.343   6.286   7.664  1.00  0.00     0.037 A 
HETATM   13  C6  UNK     1      10.173   6.057   8.391  1.00  0.00     0.114 A 
HETATM   14  C9  UNK     1       8.934   6.090   7.751  1.00  0.00     0.102 A 
HETATM   15  C13 UNK     1       8.862   6.351   6.382  1.00  0.00     0.040 A 
HETATM   16  C12 UNK     1      10.030   6.579   5.654  1.00  0.00     0.004 A 
HETATM   17  C8  UNK     1      11.269   6.547   6.294  1.00  0.00     0.017 A 
BRANCH  13  18
HETATM   18  O2  UNK     1      10.228   5.801   9.730  1.00  0.00    -0.352 OA
HETATM   19  C16 UNK     1       9.925   4.473  10.146  1.00  0.00     0.210 C 
ENDBRANCH  13  18
BRANCH  14  20
HETATM   20  O3  UNK     1       7.786   5.870   8.449  1.00  0.00    -0.353 OA
HETATM   21  C17 UNK     1       7.225   6.982   9.143  1.00  0.00     0.210 C 
ENDBRANCH  14  20
ENDBRANCH   3  12
BRANCH   6  22
HETATM   22  O4  UNK     1      12.703   3.868   8.480  1.00  0.00    -0.355 OA
HETATM   23  H8  UNK     1      11.756   3.962   8.288  1.00  0.00     0.218 HD
ENDBRANCH   6  22
TORSDOF 4
ENDMDL
MODEL 2
REMARK VINA RESULT:      -8.3      1.283      1.562
REMARK  4 active torsions:
REMARK  status: ('A' for Active; 'I' for Inactive)
REMARK    1  A    between atoms: C6_11  and  O2_2 
REMARK    2  A    between atoms: C9_14  and  O3_3 
REMARK    3  A    between atoms: C5_10  and  O4_4 
REMARK    4  A    between atoms: C1_6  and  C2_7 
ROOT
HETATM    1  O1  UNK     1      13.092   8.297   8.159  1.00  0.00    -0.306 OA
HETATM    2  O5  UNK     1      14.949   5.726  10.718  1.00  0.00    -0.284 OA
HETATM    3  C2  UNK     1      12.526   7.077   8.497  1.00  0.00     0.126 A 
HETATM    4  C3  UNK     1      14.981   7.802   9.601  1.00  0.00     0.051 A 
HETATM    5  C4  UNK     1      14.298   8.635   8.718  1.00  0.00     0.090 A 
HETATM    6  C5  UNK     1      13.087   6.180   9.328  1.00  0.00     0.152 A 
HETATM    7  C7  UNK     1      14.392   6.502   9.953  1.00  0.00     0.220 A 
HETATM    8  C10 UNK     1      16.208   8.200  10.139  1.00  0.00     0.018 A 
HETATM    9  C11 UNK     1      14.837   9.873   8.367  1.00  0.00     0.038 A 
HETATM   10  C14 UNK     1      16.744   9.440   9.787  1.00  0.00     0.001 A 
HETATM   11  C15 UNK     1      16.060  10.274   8.902  1.00  0.00     0.003 A 
ENDROOT
BRANCH   3  12
HETATM   12  C1  UNK     1      11.236   6.838   7.827  1.00  0.00     0.037 A 
HETATM   13  C6  UNK     1      10.027   7.163   8.447  1.00  0.00     0.114 A 
HETATM   14  C9  UNK     1       8.818   6.926   7.792  1.00  0.00     0.102 A 
HETATM   15  C13 UNK     1       8.816   6.364   6.514  1.00  0.00     0.040 A 
HETATM   16  C12 UNK     1      10.022   6.040   5.893  1.00  0.00     0.004 A 
HETATM   17  C8  UNK     1      11.230   6.276   6.549  1.00  0.00     0.017 A 
BRANCH  13  18
HETATM   18  O2  UNK     1      10.015   7.713   9.696  1.00  0.00    -0.352 OA
HETATM   19  C16 UNK     1       9.973   9.135   9.774  1.00  0.00     0.210 C 
ENDBRANCH  13  18
BRANCH  14  20
HETATM   20  O3  UNK     1       7.634   7.239   8.385  1.00  0.00    -0.353 OA
HETATM   21  C17 UNK     1       7.173   6.366   9.414  1.00  0.00     0.210 C 
ENDBRANCH  14  20
ENDBRANCH   3  12
BRANCH   6  22
HETATM   22  O4  UNK     1      12.512   4.961   9.618  1.00  0.00    -0.355 OA
HETATM   23  H8  UNK     1      11.704   4.844   9.092  1.00  0.00     0.218 HD
ENDBRANCH   6  22
TORSDOF 4
ENDMDL
MODEL 3
REMARK VINA RESULT:      -8.0     24.083     26.204
REMARK  4 active torsions:
REMARK  status: ('A' for Active; 'I' for Inactive)
REMARK    1  A    between atoms: C6_11  and  O2_2 
REMARK    2  A    between atoms: C9_14  and  O3_3 
REMARK    3  A    between atoms: C5_10  and  O4_4 
REMARK    4  A    between atoms: C1_6  and  C2_7 
ROOT
HETATM    1  O1  UNK     1      19.136   0.101  32.720  1.00  0.00    -0.306 OA
HETATM    2  O5  UNK     1      18.472   2.968  29.900  1.00  0.00    -0.284 OA
HETATM    3  C2  UNK     1      18.561   1.320  33.048  1.00  0.00     0.126 A 
HETATM    4  C3  UNK     1      19.266   0.804  30.400  1.00  0.00     0.051 A 
HETATM    5  C4  UNK     1      19.469  -0.132  31.412  1.00  0.00     0.090 A 
HETATM    6  C5  UNK     1      18.320   2.310  32.171  1.00  0.00     0.152 A 
HETATM    7  C7  UNK     1      18.669   2.103  30.744  1.00  0.00     0.220 A 
HETATM    8  C10 UNK     1      19.627   0.510  29.083  1.00  0.00     0.018 A 
HETATM    9  C11 UNK     1      20.037  -1.372  31.111  1.00  0.00     0.038 A 
HETATM   10  C14 UNK     1      20.193  -0.731  28.786  1.00  0.00     0.001 A 
HETATM   11  C15 UNK     1      20.398  -1.670  29.798  1.00  0.00     0.003 A 
ENDROOT
BRANCH   3  12
HETATM   12  C1  UNK     1      18.253   1.442  34.484  1.00  0.00     0.037 A 
HETATM   13  C6  UNK     1      17.112   0.851  35.032  1.00  0.00     0.114 A 
HETATM   14  C9  UNK     1      16.843   0.981  36.395  1.00  0.00     0.102 A 
HETATM   15  C13 UNK     1      17.714   1.703  37.212  1.00  0.00     0.040 A 
HETATM   16  C12 UNK     1      18.854   2.293  36.667  1.00  0.00     0.004 A 
HETATM   17  C8  UNK     1      19.123   2.163  35.304  1.00  0.00     0.017 A 
BRANCH  13  18
HETATM   18  O2  UNK     1      16.252   0.143  34.244  1.00  0.00    -0.352 OA
HETATM   19  C16 UNK     1      16.227  -1.271  34.425  1.00  0.00     0.210 C 
ENDBRANCH  13  18
BRANCH  14  20
HETATM   20  O3  UNK     1      15.735   0.409  36.942  1.00  0.00    -0.353 OA
HETATM   21  C17 UNK     1      14.542   1.189  36.956  1.00  0.00     0.210 C 
ENDBRANCH  14  20
ENDBRANCH   3  12
BRANCH   6  22
HETATM   22  O4  UNK     1      17.777   3.523  32.535  1.00  0.00    -0.355 OA
HETATM   23  H8  UNK     1      17.483   3.489  33.460  1.00  0.00     0.218 HD
ENDBRANCH   6  22
TORSDOF 4
ENDMDL
MODEL 4
REMARK VINA RESULT:      -7.9     24.608     26.783
REMARK  4 active torsions:
REMARK  status: ('A' for Active; 'I' for Inactive)
REMARK    1  A    between atoms: C6_11  and  O2_2 
REMARK    2  A    between atoms: C9_14  and  O3_3 
REMARK    3  A    between atoms: C5_10  and  O4_4 
REMARK    4  A    between atoms: C1_6  and  C2_7 
ROOT
HETATM    1  O1  UNK     1      18.746  -0.460  32.873  1.00  0.00    -0.306 OA
HETATM    2  O5  UNK     1      19.050   2.797  30.443  1.00  0.00    -0.284 OA
HETATM    3  C2  UNK     1      18.216   0.767  33.239  1.00  0.00     0.126 A 
HETATM    4  C3  UNK     1      19.504   0.508  30.780  1.00  0.00     0.051 A 
HETATM    5  C4  UNK     1      19.371  -0.566  31.657  1.00  0.00     0.090 A 
HETATM    6  C5  UNK     1      18.287   1.882  32.490  1.00  0.00     0.152 A 
HETATM    7  C7  UNK     1      18.957   1.815  31.169  1.00  0.00     0.220 A 
HETATM    8  C10 UNK     1      20.152   0.340  29.554  1.00  0.00     0.018 A 
HETATM    9  C11 UNK     1      19.885  -1.817  31.313  1.00  0.00     0.038 A 
HETATM   10  C14 UNK     1      20.664  -0.912  29.211  1.00  0.00     0.001 A 
HETATM   11  C15 UNK     1      20.531  -1.989  30.089  1.00  0.00     0.003 A 
ENDROOT
BRANCH   3  12
HETATM   12  C1  UNK     1      17.576   0.744  34.566  1.00  0.00     0.037 A 
HETATM   13  C6  UNK     1      18.283   1.101  35.717  1.00  0.00     0.114 A 
HETATM   14  C9  UNK     1      17.653   1.071  36.962  1.00  0.00     0.102 A 
HETATM   15  C13 UNK     1      16.316   0.684  37.058  1.00  0.00     0.040 A 
HETATM   16  C12 UNK     1      15.609   0.327  35.910  1.00  0.00     0.004 A 
HETATM   17  C8  UNK     1      16.238   0.357  34.665  1.00  0.00     0.017 A 
BRANCH  13  18
HETATM   18  O2  UNK     1      19.590   1.483  35.637  1.00  0.00    -0.352 OA
HETATM   19  C16 UNK     1      19.886   2.843  35.941  1.00  0.00     0.210 C 
ENDBRANCH  13  18
BRANCH  14  20
HETATM   20  O3  UNK     1      18.331   1.418  38.091  1.00  0.00    -0.353 OA
HETATM   21  C17 UNK     1      17.554   1.839  39.210  1.00  0.00     0.210 C 
ENDBRANCH  14  20
ENDBRANCH   3  12
BRANCH   6  22
HETATM   22  O4  UNK     1      17.778   3.097  32.898  1.00  0.00    -0.355 OA
HETATM   23  H8  UNK     1      17.461   3.031  33.813  1.00  0.00     0.218 HD
ENDBRANCH   6  22
TORSDOF 4
ENDMDL
MODEL 5
REMARK VINA RESULT:      -7.9     22.625     24.894
REMARK  4 active torsions:
REMARK  status: ('A' for Active; 'I' for Inactive)
REMARK    1  A    between atoms: C6_11  and  O2_2 
REMARK    2  A    between atoms: C9_14  and  O3_3 
REMARK    3  A    between atoms: C5_10  and  O4_4 
REMARK    4  A    between atoms: C1_6  and  C2_7 
ROOT
HETATM    1  O1  UNK     1      19.189   6.681  33.304  1.00  0.00    -0.306 OA
HETATM    2  O5  UNK     1      15.763   8.838  32.834  1.00  0.00    -0.284 OA
HETATM    3  C2  UNK     1      18.039   6.109  32.782  1.00  0.00     0.126 A 
HETATM    4  C3  UNK     1      18.022   8.799  33.512  1.00  0.00     0.051 A 
HETATM    5  C4  UNK     1      19.159   8.007  33.651  1.00  0.00     0.090 A 
HETATM    6  C5  UNK     1      16.875   6.759  32.607  1.00  0.00     0.152 A 
HETATM    7  C7  UNK     1      16.796   8.194  32.973  1.00  0.00     0.220 A 
HETATM    8  C10 UNK     1      18.050  10.145  33.884  1.00  0.00     0.018 A 
HETATM    9  C11 UNK     1      20.335   8.557  34.163  1.00  0.00     0.038 A 
HETATM   10  C14 UNK     1      19.228  10.693  34.395  1.00  0.00     0.001 A 
HETATM   11  C15 UNK     1      20.368   9.901  34.535  1.00  0.00     0.003 A 
ENDROOT
BRANCH   3  12
HETATM   12  C1  UNK     1      18.206   4.682  32.453  1.00  0.00     0.037 A 
HETATM   13  C6  UNK     1      18.517   4.270  31.154  1.00  0.00     0.114 A 
HETATM   14  C9  UNK     1      18.670   2.913  30.869  1.00  0.00     0.102 A 
HETATM   15  C13 UNK     1      18.513   1.965  31.881  1.00  0.00     0.040 A 
HETATM   16  C12 UNK     1      18.203   2.374  33.178  1.00  0.00     0.004 A 
HETATM   17  C8  UNK     1      18.050   3.731  33.464  1.00  0.00     0.017 A 
BRANCH  13  18
HETATM   18  O2  UNK     1      18.674   5.187  30.156  1.00  0.00    -0.352 OA
HETATM   19  C16 UNK     1      19.960   5.786  30.027  1.00  0.00     0.210 C 
ENDBRANCH  13  18
BRANCH  14  20
HETATM   20  O3  UNK     1      18.973   2.499  29.608  1.00  0.00    -0.353 OA
HETATM   21  C17 UNK     1      17.929   1.882  28.858  1.00  0.00     0.210 C 
ENDBRANCH  14  20
ENDBRANCH   3  12
BRANCH   6  22
HETATM   22  O4  UNK     1      15.739   6.151  32.116  1.00  0.00    -0.355 OA
HETATM   23  H8  UNK     1      15.032   6.808  32.013  1.00  0.00     0.218 HD
ENDBRANCH   6  22
TORSDOF 4
ENDMDL
MODEL 6
REMARK VINA RESULT:      -7.8     22.865     25.103
REMARK  4 active torsions:
REMARK  status: ('A' for Active; 'I' for Inactive)
REMARK    1  A    between atoms: C6_11  and  O2_2 
REMARK    2  A    between atoms: C9_14  and  O3_3 
REMARK    3  A    between atoms: C5_10  and  O4_4 
REMARK    4  A    between atoms: C1_6  and  C2_7 
ROOT
HETATM    1  O1  UNK     1      16.566   6.374  33.149  1.00  0.00    -0.306 OA
HETATM    2  O5  UNK     1      19.460   9.000  34.306  1.00  0.00    -0.284 OA
HETATM    3  C2  UNK     1      17.907   6.027  33.131  1.00  0.00     0.126 A 
HETATM    4  C3  UNK     1      17.162   8.571  33.994  1.00  0.00     0.051 A 
HETATM    5  C4  UNK     1      16.222   7.629  33.582  1.00  0.00     0.090 A 
HETATM    6  C5  UNK     1      18.912   6.844  33.492  1.00  0.00     0.152 A 
HETATM    7  C7  UNK     1      18.587   8.212  33.963  1.00  0.00     0.220 A 
HETATM    8  C10 UNK     1      16.753   9.835  34.424  1.00  0.00     0.018 A 
HETATM    9  C11 UNK     1      14.863   7.946  33.599  1.00  0.00     0.038 A 
HETATM   10  C14 UNK     1      15.392  10.149  34.441  1.00  0.00     0.001 A 
HETATM   11  C15 UNK     1      14.450   9.206  34.029  1.00  0.00     0.003 A 
ENDROOT
BRANCH   3  12
HETATM   12  C1  UNK     1      18.139   4.655  32.645  1.00  0.00     0.037 A 
HETATM   13  C6  UNK     1      18.401   4.399  31.297  1.00  0.00     0.114 A 
HETATM   14  C9  UNK     1      18.617   3.091  30.862  1.00  0.00     0.102 A 
HETATM   15  C13 UNK     1      18.570   2.036  31.773  1.00  0.00     0.040 A 
HETATM   16  C12 UNK     1      18.308   2.289  33.120  1.00  0.00     0.004 A 
HETATM   17  C8  UNK     1      18.093   3.597  33.555  1.00  0.00     0.017 A 
BRANCH  13  18
HETATM   18  O2  UNK     1      18.450   5.422  30.395  1.00  0.00    -0.352 OA
HETATM   19  C16 UNK     1      19.743   5.882  30.011  1.00  0.00     0.210 C 
ENDBRANCH  13  18
BRANCH  14  20
HETATM   20  O3  UNK     1      18.875   2.830  29.551  1.00  0.00    -0.353 OA
HETATM   21  C17 UNK     1      17.924   2.033  28.848  1.00  0.00     0.210 C 
ENDBRANCH  14  20
ENDBRANCH   3  12
BRANCH   6  22
HETATM   22  O4  UNK     1      20.240   6.478  33.431  1.00  0.00    -0.355 OA
HETATM   23  H8  UNK     1      20.653   6.864  32.641  1.00  0.00     0.218 HD
ENDBRANCH   6  22
TORSDOF 4
ENDMDL
MODEL 7
REMARK VINA RESULT:      -7.6     23.158     25.317
REMARK  4 active torsions:
REMARK  status: ('A' for Active; 'I' for Inactive)
REMARK    1  A    between atoms: C6_11  and  O2_2 
REMARK    2  A    between atoms: C9_14  and  O3_3 
REMARK    3  A    between atoms: C5_10  and  O4_4 
REMARK    4  A    between atoms: C1_6  and  C2_7 
ROOT
HETATM    1  O1  UNK     1      16.569   5.899  32.484  1.00  0.00    -0.306 OA
HETATM    2  O5  UNK     1      19.073   7.991  34.926  1.00  0.00    -0.284 OA
HETATM    3  C2  UNK     1      17.887   5.513  32.671  1.00  0.00     0.126 A 
HETATM    4  C3  UNK     1      16.914   7.760  34.005  1.00  0.00     0.051 A 
HETATM    5  C4  UNK     1      16.111   7.004  33.154  1.00  0.00     0.090 A 
HETATM    6  C5  UNK     1      18.768   6.160  33.455  1.00  0.00     0.152 A 
HETATM    7  C7  UNK     1      18.317   7.363  34.196  1.00  0.00     0.220 A 
HETATM    8  C10 UNK     1      16.392   8.877  34.661  1.00  0.00     0.018 A 
HETATM    9  C11 UNK     1      14.777   7.362  32.954  1.00  0.00     0.038 A 
HETATM   10  C14 UNK     1      15.057   9.231  34.459  1.00  0.00     0.001 A 
HETATM   11  C15 UNK     1      14.251   8.476  33.608  1.00  0.00     0.003 A 
ENDROOT
BRANCH   3  12
HETATM   12  C1  UNK     1      18.250   4.315  31.894  1.00  0.00     0.037 A 
HETATM   13  C6  UNK     1      18.146   3.035  32.445  1.00  0.00     0.114 A 
HETATM   14  C9  UNK     1      18.496   1.917  31.688  1.00  0.00     0.102 A 
HETATM   15  C13 UNK     1      18.951   2.075  30.379  1.00  0.00     0.040 A 
HETATM   16  C12 UNK     1      19.055   3.352  29.826  1.00  0.00     0.004 A 
HETATM   17  C8  UNK     1      18.705   4.470  30.583  1.00  0.00     0.017 A 
BRANCH  13  18
HETATM   18  O2  UNK     1      17.702   2.866  33.724  1.00  0.00    -0.352 OA
HETATM   19  C16 UNK     1      18.693   2.699  34.734  1.00  0.00     0.210 C 
ENDBRANCH  13  18
BRANCH  14  20
HETATM   20  O3  UNK     1      18.398   0.665  32.214  1.00  0.00    -0.353 OA
HETATM   21  C17 UNK     1      19.296  -0.322  31.712  1.00  0.00     0.210 C 
ENDBRANCH  14  20
ENDBRANCH   3  12
BRANCH   6  22
HETATM   22  O4  UNK     1      20.082   5.768  33.594  1.00  0.00    -0.355 OA
HETATM   23  H8  UNK     1      20.672   6.496  33.337  1.00  0.00     0.218 HD
ENDBRANCH   6  22
TORSDOF 4
ENDMDL
MODEL 8
REMARK VINA RESULT:      -7.6      1.951      6.322
REMARK  4 active torsions:
REMARK  status: ('A' for Active; 'I' for Inactive)
REMARK    1  A    between atoms: C6_11  and  O2_2 
REMARK    2  A    between atoms: C9_14  and  O3_3 
REMARK    3  A    between atoms: C5_10  and  O4_4 
REMARK    4  A    between atoms: C1_6  and  C2_7 
ROOT
HETATM    1  O1  UNK     1      11.543   8.175   9.001  1.00  0.00    -0.306 OA
HETATM    2  O5  UNK     1      11.183   5.768   5.732  1.00  0.00    -0.284 OA
HETATM    3  C2  UNK     1      12.646   7.814   8.243  1.00  0.00     0.126 A 
HETATM    4  C3  UNK     1      10.119   6.891   7.512  1.00  0.00     0.051 A 
HETATM    5  C4  UNK     1      10.310   7.714   8.620  1.00  0.00     0.090 A 
HETATM    6  C5  UNK     1      12.600   7.019   7.159  1.00  0.00     0.152 A 
HETATM    7  C7  UNK     1      11.287   6.494   6.713  1.00  0.00     0.220 A 
HETATM    8  C10 UNK     1       8.838   6.451   7.172  1.00  0.00     0.018 A 
HETATM    9  C11 UNK     1       9.217   8.103   9.396  1.00  0.00     0.038 A 
HETATM   10  C14 UNK     1       7.747   6.842   7.950  1.00  0.00     0.001 A 
HETATM   11  C15 UNK     1       7.936   7.666   9.060  1.00  0.00     0.003 A 
ENDROOT
BRANCH   3  12
HETATM   12  C1  UNK     1      13.907   8.375   8.761  1.00  0.00     0.037 A 
HETATM   13  C6  UNK     1      14.635   7.719   9.757  1.00  0.00     0.114 A 
HETATM   14  C9  UNK     1      15.826   8.271  10.230  1.00  0.00     0.102 A 
HETATM   15  C13 UNK     1      16.291   9.478   9.708  1.00  0.00     0.040 A 
HETATM   16  C12 UNK     1      15.566  10.134   8.713  1.00  0.00     0.004 A 
HETATM   17  C8  UNK     1      14.375   9.583   8.240  1.00  0.00     0.017 A 
BRANCH  13  18
HETATM   18  O2  UNK     1      14.191   6.538  10.276  1.00  0.00    -0.352 OA
HETATM   19  C16 UNK     1      14.754   5.345   9.736  1.00  0.00     0.210 C 
ENDBRANCH  13  18
BRANCH  14  20
HETATM   20  O3  UNK     1      16.545   7.642  11.200  1.00  0.00    -0.353 OA
HETATM   21  C17 UNK     1      17.868   7.231  10.864  1.00  0.00     0.210 C 
ENDBRANCH  14  20
ENDBRANCH   3  12
BRANCH   6  22
HETATM   22  O4  UNK     1      13.721   6.653   6.446  1.00  0.00    -0.355 OA
HETATM   23  H8  UNK     1      13.554   5.822   5.972  1.00  0.00     0.218 HD
ENDBRANCH   6  22
TORSDOF 4
ENDMDL
MODEL 9
REMARK VINA RESULT:      -7.6     23.359     25.289
REMARK  4 active torsions:
REMARK  status: ('A' for Active; 'I' for Inactive)
REMARK    1  A    between atoms: C6_11  and  O2_2 
REMARK    2  A    between atoms: C9_14  and  O3_3 
REMARK    3  A    between atoms: C5_10  and  O4_4 
REMARK    4  A    between atoms: C1_6  and  C2_7 
ROOT
HETATM    1  O1  UNK     1      17.975   3.384  33.297  1.00  0.00    -0.306 OA
HETATM    2  O5  UNK     1      19.285   2.040  29.680  1.00  0.00    -0.284 OA
HETATM    3  C2  UNK     1      18.158   4.246  32.228  1.00  0.00     0.126 A 
HETATM    4  C3  UNK     1      18.679   1.527  31.901  1.00  0.00     0.051 A 
HETATM    5  C4  UNK     1      18.233   2.050  33.112  1.00  0.00     0.090 A 
HETATM    6  C5  UNK     1      18.593   3.872  31.012  1.00  0.00     0.152 A 
HETATM    7  C7  UNK     1      18.888   2.440  30.767  1.00  0.00     0.220 A 
HETATM    8  C10 UNK     1      18.926   0.159  31.771  1.00  0.00     0.018 A 
HETATM    9  C11 UNK     1      18.029   1.205  34.204  1.00  0.00     0.038 A 
HETATM   10  C14 UNK     1      18.721  -0.684  32.865  1.00  0.00     0.001 A 
HETATM   11  C15 UNK     1      18.274  -0.162  34.079  1.00  0.00     0.003 A 
ENDROOT
BRANCH   3  12
HETATM   12  C1  UNK     1      17.847   5.648  32.561  1.00  0.00     0.037 A 
HETATM   13  C6  UNK     1      18.786   6.467  33.194  1.00  0.00     0.114 A 
HETATM   14  C9  UNK     1      18.468   7.790  33.499  1.00  0.00     0.102 A 
HETATM   15  C13 UNK     1      17.210   8.299  33.171  1.00  0.00     0.040 A 
HETATM   16  C12 UNK     1      16.272   7.483  32.538  1.00  0.00     0.004 A 
HETATM   17  C8  UNK     1      16.590   6.160  32.234  1.00  0.00     0.017 A 
BRANCH  13  18
HETATM   18  O2  UNK     1      20.020   5.982  33.520  1.00  0.00    -0.352 OA
HETATM   19  C16 UNK     1      21.093   6.306  32.640  1.00  0.00     0.210 C 
ENDBRANCH  13  18
BRANCH  14  20
HETATM   20  O3  UNK     1      19.375   8.598  34.114  1.00  0.00    -0.353 OA
HETATM   21  C17 UNK     1      19.122  10.001  34.081  1.00  0.00     0.210 C 
ENDBRANCH  14  20
ENDBRANCH   3  12
BRANCH   6  22
HETATM   22  O4  UNK     1      18.795   4.761  29.978  1.00  0.00    -0.355 OA
HETATM   23  H8  UNK     1      18.215   4.537  29.232  1.00  0.00     0.218 HD
ENDBRANCH   6  22
TORSDOF 4
ENDMDL
MODEL 10
REMARK VINA RESULT:      -7.6      2.150      6.672
REMARK  4 active torsions:
REMARK  status: ('A' for Active; 'I' for Inactive)
REMARK    1  A    between atoms: C6_11  and  O2_2 
REMARK    2  A    between atoms: C9_14  and  O3_3 
REMARK    3  A    between atoms: C5_10  and  O4_4 
REMARK    4  A    between atoms: C1_6  and  C2_7 
ROOT
HETATM    1  O1  UNK     1       7.932   7.388   9.651  1.00  0.00    -0.306 OA
HETATM    2  O5  UNK     1       5.451   4.283  10.553  1.00  0.00    -0.284 OA
HETATM    3  C2  UNK     1       8.037   6.166   9.005  1.00  0.00     0.126 A 
HETATM    4  C3  UNK     1       6.076   6.522  10.954  1.00  0.00     0.051 A 
HETATM    5  C4  UNK     1       6.957   7.542  10.602  1.00  0.00     0.090 A 
HETATM    6  C5  UNK     1       7.258   5.100   9.258  1.00  0.00     0.152 A 
HETATM    7  C7  UNK     1       6.192   5.220  10.282  1.00  0.00     0.220 A 
HETATM    8  C10 UNK     1       5.102   6.737  11.932  1.00  0.00     0.018 A 
HETATM    9  C11 UNK     1       6.869   8.787  11.227  1.00  0.00     0.038 A 
HETATM   10  C14 UNK     1       5.016   7.984  12.554  1.00  0.00     0.001 A 
HETATM   11  C15 UNK     1       5.897   9.006  12.203  1.00  0.00     0.003 A 
ENDROOT
BRANCH   3  12
HETATM   12  C1  UNK     1       9.124   6.134   8.010  1.00  0.00     0.037 A 
HETATM   13  C6  UNK     1      10.440   5.849   8.384  1.00  0.00     0.114 A 
HETATM   14  C9  UNK     1      11.451   5.825   7.423  1.00  0.00     0.102 A 
HETATM   15  C13 UNK     1      11.148   6.085   6.086  1.00  0.00     0.040 A 
HETATM   16  C12 UNK     1       9.835   6.369   5.710  1.00  0.00     0.004 A 
HETATM   17  C8  UNK     1       8.824   6.394   6.671  1.00  0.00     0.017 A 
BRANCH  13  18
HETATM   18  O2  UNK     1      10.749   5.592   9.688  1.00  0.00    -0.352 OA
HETATM   19  C16 UNK     1      10.665   4.235  10.115  1.00  0.00     0.210 C 
ENDBRANCH  13  18
BRANCH  14  20
HETATM   20  O3  UNK     1      12.736   5.547   7.774  1.00  0.00    -0.353 OA
HETATM   21  C17 UNK     1      13.647   6.643   7.824  1.00  0.00     0.210 C 
ENDBRANCH  14  20
ENDBRANCH   3  12
BRANCH   6  22
HETATM   22  O4  UNK     1       7.410   3.887   8.620  1.00  0.00    -0.355 OA
HETATM   23  H8  UNK     1       6.753   3.254   8.953  1.00  0.00     0.218 HD
ENDBRANCH   6  22
TORSDOF 4
ENDMDL
