MODEL 1
REMARK VINA RESULT:      -9.0      0.000      0.000
REMARK  2 active torsions:
REMARK  status: ('A' for Active; 'I' for Inactive)
REMARK    1  A    between atoms: C13_18  and  O3_4 
REMARK    2  A    between atoms: C1_6  and  C3_8 
ROOT
HETATM    1  O2  UNK     1      18.629   0.666  33.078  1.00  0.00    -0.275 OA
HETATM    2  O4  UNK     1      18.391   0.719  35.351  1.00  0.00    -0.260 OA
HETATM    3  C1  UNK     1      18.283   3.488  33.080  1.00  0.00     0.017 A 
HETATM    4  C2  UNK     1      18.501   2.754  31.821  1.00  0.00     0.011 A 
HETATM    5  C6  UNK     1      18.667   1.370  31.860  1.00  0.00     0.093 A 
HETATM    6  C8  UNK     1      18.253   2.784  34.225  1.00  0.00     0.097 A 
HETATM    7  C9  UNK     1      18.552   3.386  30.572  1.00  0.00     0.018 A 
HETATM    8  C10 UNK     1      18.878   0.616  30.705  1.00  0.00     0.075 A 
HETATM    9  C13 UNK     1      18.926   1.259  29.473  1.00  0.00     0.070 A 
HETATM   10  C14 UNK     1      18.763   2.642  29.405  1.00  0.00     0.038 A 
HETATM   11  C15 UNK     1      18.426   1.321  34.282  1.00  0.00     0.289 A 
ENDROOT
BRANCH   3  12
HETATM   12  C3  UNK     1      18.100   4.881  33.199  1.00  0.00     0.088 A 
HETATM   13  O1  UNK     1      16.959   5.500  32.792  1.00  0.00    -0.309 OA
HETATM   14  C7  UNK     1      17.112   6.829  33.050  1.00  0.00     0.086 A 
HETATM   15  C12 UNK     1      16.171   7.822  32.783  1.00  0.00     0.040 A 
HETATM   16  C4  UNK     1      18.356   7.067  33.625  1.00  0.00     0.002 A 
HETATM   17  C17 UNK     1      16.532   9.128  33.128  1.00  0.00     0.026 A 
HETATM   18  C16 UNK     1      17.772   9.409  33.708  1.00  0.00     0.035 A 
HETATM   19  C11 UNK     1      18.697   8.388  33.964  1.00  0.00     0.038 A 
HETATM   20 Cl1  UNK     1      18.171  11.035  34.115  1.00  0.00    -0.084 Cl
HETATM   21  C5  UNK     1      18.988   5.799  33.718  1.00  0.00     0.052 A 
ENDBRANCH   3  12
BRANCH   9  22
HETATM   22  O3  UNK     1      19.130   0.542  28.335  1.00  0.00    -0.356 OA
HETATM   23  C18 UNK     1      19.835  -0.692  28.463  1.00  0.00     0.210 C 
ENDBRANCH   9  22
TORSDOF 2
ENDMDL
MODEL 2
REMARK VINA RESULT:      -8.9      1.278      3.585
REMARK  2 active torsions:
REMARK  status: ('A' for Active; 'I' for Inactive)
REMARK    1  A    between atoms: C13_18  and  O3_4 
REMARK    2  A    between atoms: C1_6  and  C3_8 
ROOT
HETATM    1  O2  UNK     1      18.770   0.544  30.956  1.00  0.00    -0.275 OA
HETATM    2  O4  UNK     1      18.950   1.415  28.850  1.00  0.00    -0.260 OA
HETATM    3  C1  UNK     1      18.367   3.192  31.906  1.00  0.00     0.017 A 
HETATM    4  C2  UNK     1      18.367   2.048  32.834  1.00  0.00     0.011 A 
HETATM    5  C6  UNK     1      18.568   0.763  32.331  1.00  0.00     0.093 A 
HETATM    6  C8  UNK     1      18.562   2.945  30.599  1.00  0.00     0.097 A 
HETATM    7  C9  UNK     1      18.173   2.190  34.215  1.00  0.00     0.018 A 
HETATM    8  C10 UNK     1      18.579  -0.363  33.156  1.00  0.00     0.075 A 
HETATM    9  C13 UNK     1      18.384  -0.204  34.524  1.00  0.00     0.070 A 
HETATM   10  C14 UNK     1      18.181   1.069  35.053  1.00  0.00     0.038 A 
HETATM   11  C15 UNK     1      18.776   1.593  30.052  1.00  0.00     0.289 A 
ENDROOT
BRANCH   3  12
HETATM   12  C3  UNK     1      18.178   4.544  32.264  1.00  0.00     0.088 A 
HETATM   13  O1  UNK     1      16.957   5.142  32.215  1.00  0.00    -0.309 OA
HETATM   14  C7  UNK     1      17.127   6.431  32.623  1.00  0.00     0.086 A 
HETATM   15  C12 UNK     1      16.124   7.393  32.719  1.00  0.00     0.040 A 
HETATM   16  C4  UNK     1      18.463   6.663  32.936  1.00  0.00     0.002 A 
HETATM   17  C17 UNK     1      16.517   8.659  33.161  1.00  0.00     0.026 A 
HETATM   18  C16 UNK     1      17.848   8.933  33.485  1.00  0.00     0.035 A 
HETATM   19  C11 UNK     1      18.836   7.944  33.379  1.00  0.00     0.038 A 
HETATM   20 Cl1  UNK     1      18.285  10.510  34.026  1.00  0.00    -0.084 Cl
HETATM   21  C5  UNK     1      19.134   5.434  32.701  1.00  0.00     0.052 A 
ENDBRANCH   3  12
BRANCH   9  22
HETATM   22  O3  UNK     1      18.392  -1.289  35.345  1.00  0.00    -0.356 OA
HETATM   23  C18 UNK     1      17.570  -1.229  36.510  1.00  0.00     0.210 C 
ENDBRANCH   9  22
TORSDOF 2
ENDMDL
MODEL 3
REMARK VINA RESULT:      -8.4     14.482     18.627
REMARK  2 active torsions:
REMARK  status: ('A' for Active; 'I' for Inactive)
REMARK    1  A    between atoms: C13_18  and  O3_4 
REMARK    2  A    between atoms: C1_6  and  C3_8 
ROOT
HETATM    1  O2  UNK     1      18.642  -4.387  12.935  1.00  0.00    -0.275 OA
HETATM    2  O4  UNK     1      17.309  -5.490  14.429  1.00  0.00    -0.260 OA
HETATM    3  C1  UNK     1      18.890  -2.303  14.851  1.00  0.00     0.017 A 
HETATM    4  C2  UNK     1      19.566  -2.213  13.545  1.00  0.00     0.011 A 
HETATM    5  C6  UNK     1      19.421  -3.256  12.631  1.00  0.00     0.093 A 
HETATM    6  C8  UNK     1      18.154  -3.398  15.108  1.00  0.00     0.097 A 
HETATM    7  C9  UNK     1      20.358  -1.119  13.173  1.00  0.00     0.018 A 
HETATM    8  C10 UNK     1      20.035  -3.233  11.378  1.00  0.00     0.075 A 
HETATM    9  C13 UNK     1      20.818  -2.139  11.024  1.00  0.00     0.070 A 
HETATM   10  C14 UNK     1      20.980  -1.083  11.920  1.00  0.00     0.038 A 
HETATM   11  C15 UNK     1      17.991  -4.508  14.151  1.00  0.00     0.289 A 
ENDROOT
BRANCH   3  12
HETATM   12  C3  UNK     1      18.943  -1.333  15.874  1.00  0.00     0.088 A 
HETATM   13  O1  UNK     1      19.024  -0.002  15.606  1.00  0.00    -0.309 OA
HETATM   14  C7  UNK     1      19.055   0.645  16.806  1.00  0.00     0.086 A 
HETATM   15  C12 UNK     1      19.137   2.025  16.983  1.00  0.00     0.040 A 
HETATM   16  C4  UNK     1      18.993  -0.273  17.849  1.00  0.00     0.002 A 
HETATM   17  C17 UNK     1      19.155   2.481  18.304  1.00  0.00     0.026 A 
HETATM   18  C16 UNK     1      19.095   1.591  19.380  1.00  0.00     0.035 A 
HETATM   19  C11 UNK     1      19.013   0.208  19.169  1.00  0.00     0.038 A 
HETATM   20 Cl1  UNK     1      19.122   2.202  20.991  1.00  0.00    -0.084 Cl
HETATM   21  C5  UNK     1      18.920  -1.551  17.235  1.00  0.00     0.052 A 
ENDBRANCH   3  12
BRANCH   9  22
HETATM   22  O3  UNK     1      21.425  -2.098   9.807  1.00  0.00    -0.356 OA
HETATM   23  C18 UNK     1      21.426  -3.302   9.041  1.00  0.00     0.210 C 
ENDBRANCH   9  22
TORSDOF 2
ENDMDL
MODEL 4
REMARK VINA RESULT:      -8.3      3.354      7.173
REMARK  2 active torsions:
REMARK  status: ('A' for Active; 'I' for Inactive)
REMARK    1  A    between atoms: C13_18  and  O3_4 
REMARK    2  A    between atoms: C1_6  and  C3_8 
ROOT
HETATM    1  O2  UNK     1      18.448   5.678  30.346  1.00  0.00    -0.275 OA
HETATM    2  O4  UNK     1      18.896   3.907  28.973  1.00  0.00    -0.260 OA
HETATM    3  C1  UNK     1      18.191   3.823  32.484  1.00  0.00     0.017 A 
HETATM    4  C2  UNK     1      18.007   5.267  32.711  1.00  0.00     0.011 A 
HETATM    5  C6  UNK     1      18.142   6.147  31.638  1.00  0.00     0.093 A 
HETATM    6  C8  UNK     1      18.483   3.411  31.239  1.00  0.00     0.097 A 
HETATM    7  C9  UNK     1      17.702   5.807  33.968  1.00  0.00     0.018 A 
HETATM    8  C10 UNK     1      17.981   7.526  31.784  1.00  0.00     0.075 A 
HETATM    9  C13 UNK     1      17.678   8.044  33.039  1.00  0.00     0.070 A 
HETATM   10  C14 UNK     1      17.538   7.187  34.129  1.00  0.00     0.038 A 
HETATM   11  C15 UNK     1      18.628   4.329  30.094  1.00  0.00     0.289 A 
ENDROOT
BRANCH   3  12
HETATM   12  C3  UNK     1      18.087   2.816  33.467  1.00  0.00     0.088 A 
HETATM   13  O1  UNK     1      17.401   1.661  33.251  1.00  0.00    -0.309 OA
HETATM   14  C7  UNK     1      17.502   0.918  34.389  1.00  0.00     0.086 A 
HETATM   15  C12 UNK     1      16.939  -0.340  34.591  1.00  0.00     0.040 A 
HETATM   16  C4  UNK     1      18.256   1.598  35.341  1.00  0.00     0.002 A 
HETATM   17  C17 UNK     1      17.166  -0.929  35.838  1.00  0.00     0.026 A 
HETATM   18  C16 UNK     1      17.917  -0.280  36.821  1.00  0.00     0.035 A 
HETATM   19  C11 UNK     1      18.471   0.986  36.588  1.00  0.00     0.038 A 
HETATM   20 Cl1  UNK     1      18.169  -1.047  38.344  1.00  0.00    -0.084 Cl
HETATM   21  C5  UNK     1      18.631   2.825  34.733  1.00  0.00     0.052 A 
ENDBRANCH   3  12
BRANCH   9  22
HETATM   22  O3  UNK     1      17.517   9.386  33.203  1.00  0.00    -0.356 OA
HETATM   23  C18 UNK     1      18.523  10.075  33.944  1.00  0.00     0.210 C 
ENDBRANCH   9  22
TORSDOF 2
ENDMDL
MODEL 5
REMARK VINA RESULT:      -8.2      7.546     11.532
REMARK  2 active torsions:
REMARK  status: ('A' for Active; 'I' for Inactive)
REMARK    1  A    between atoms: C13_18  and  O3_4 
REMARK    2  A    between atoms: C1_6  and  C3_8 
ROOT
HETATM    1  O2  UNK     1      19.452  -0.866  34.041  1.00  0.00    -0.275 OA
HETATM    2  O4  UNK     1      20.593  -2.020  32.432  1.00  0.00    -0.260 OA
HETATM    3  C1  UNK     1      19.819  -3.100  35.759  1.00  0.00     0.017 A 
HETATM    4  C2  UNK     1      19.096  -1.902  36.221  1.00  0.00     0.011 A 
HETATM    5  C6  UNK     1      18.936  -0.825  35.350  1.00  0.00     0.093 A 
HETATM    6  C8  UNK     1      20.299  -3.103  34.504  1.00  0.00     0.097 A 
HETATM    7  C9  UNK     1      18.555  -1.790  37.509  1.00  0.00     0.018 A 
HETATM    8  C10 UNK     1      18.262   0.338  35.724  1.00  0.00     0.075 A 
HETATM    9  C13 UNK     1      17.732   0.433  37.007  1.00  0.00     0.070 A 
HETATM   10  C14 UNK     1      17.878  -0.629  37.898  1.00  0.00     0.038 A 
HETATM   11  C15 UNK     1      20.137  -1.973  33.570  1.00  0.00     0.289 A 
ENDROOT
BRANCH   3  12
HETATM   12  C3  UNK     1      20.060  -4.262  36.522  1.00  0.00     0.088 A 
HETATM   13  O1  UNK     1      21.218  -4.449  37.210  1.00  0.00    -0.309 OA
HETATM   14  C7  UNK     1      21.122  -5.658  37.832  1.00  0.00     0.086 A 
HETATM   15  C12 UNK     1      22.098  -6.235  38.642  1.00  0.00     0.040 A 
HETATM   16  C4  UNK     1      19.897  -6.251  37.543  1.00  0.00     0.002 A 
HETATM   17  C17 UNK     1      21.794  -7.488  39.184  1.00  0.00     0.026 A 
HETATM   18  C16 UNK     1      20.575  -8.117  38.917  1.00  0.00     0.035 A 
HETATM   19  C11 UNK     1      19.613  -7.511  38.098  1.00  0.00     0.038 A 
HETATM   20 Cl1  UNK     1      20.247  -9.662  39.607  1.00  0.00    -0.084 Cl
HETATM   21  C5  UNK     1      19.217  -5.338  36.694  1.00  0.00     0.052 A 
ENDBRANCH   3  12
BRANCH   9  22
HETATM   22  O3  UNK     1      17.071   1.558  37.391  1.00  0.00    -0.356 OA
HETATM   23  C18 UNK     1      15.668   1.609  37.133  1.00  0.00     0.210 C 
ENDBRANCH   9  22
TORSDOF 2
ENDMDL
MODEL 6
REMARK VINA RESULT:      -8.2      3.365      7.798
REMARK  2 active torsions:
REMARK  status: ('A' for Active; 'I' for Inactive)
REMARK    1  A    between atoms: C13_18  and  O3_4 
REMARK    2  A    between atoms: C1_6  and  C3_8 
ROOT
HETATM    1  O2  UNK     1      18.289   9.654  34.225  1.00  0.00    -0.275 OA
HETATM    2  O4  UNK     1      20.525   9.353  34.593  1.00  0.00    -0.260 OA
HETATM    3  C1  UNK     1      18.269   7.129  32.920  1.00  0.00     0.017 A 
HETATM    4  C2  UNK     1      17.036   7.926  33.042  1.00  0.00     0.011 A 
HETATM    5  C6  UNK     1      17.085   9.160  33.690  1.00  0.00     0.093 A 
HETATM    6  C8  UNK     1      19.401   7.631  33.443  1.00  0.00     0.097 A 
HETATM    7  C9  UNK     1      15.801   7.499  32.535  1.00  0.00     0.018 A 
HETATM    8  C10 UNK     1      15.954   9.964  33.840  1.00  0.00     0.075 A 
HETATM    9  C13 UNK     1      14.736   9.525  33.330  1.00  0.00     0.070 A 
HETATM   10  C14 UNK     1      14.659   8.295  32.679  1.00  0.00     0.038 A 
HETATM   11  C15 UNK     1      19.469   8.934  34.130  1.00  0.00     0.289 A 
ENDROOT
BRANCH   3  12
HETATM   12  C3  UNK     1      18.376   5.868  32.296  1.00  0.00     0.088 A 
HETATM   13  O1  UNK     1      18.203   4.705  32.980  1.00  0.00    -0.309 OA
HETATM   14  C7  UNK     1      18.371   3.689  32.087  1.00  0.00     0.086 A 
HETATM   15  C12 UNK     1      18.279   2.329  32.377  1.00  0.00     0.040 A 
HETATM   16  C4  UNK     1      18.654   4.200  30.825  1.00  0.00     0.002 A 
HETATM   17  C17 UNK     1      18.488   1.451  31.309  1.00  0.00     0.026 A 
HETATM   18  C16 UNK     1      18.774   1.924  30.026  1.00  0.00     0.035 A 
HETATM   19  C11 UNK     1      18.861   3.299  29.766  1.00  0.00     0.038 A 
HETATM   20 Cl1  UNK     1      19.025   0.802  28.742  1.00  0.00    -0.084 Cl
HETATM   21  C5  UNK     1      18.654   5.613  30.971  1.00  0.00     0.052 A 
ENDBRANCH   3  12
BRANCH   9  22
HETATM   22  O3  UNK     1      13.622  10.294  33.467  1.00  0.00    -0.356 OA
HETATM   23  C18 UNK     1      13.576  11.509  32.719  1.00  0.00     0.210 C 
ENDBRANCH   9  22
TORSDOF 2
ENDMDL
MODEL 7
REMARK VINA RESULT:      -8.1      6.644     10.055
REMARK  2 active torsions:
REMARK  status: ('A' for Active; 'I' for Inactive)
REMARK    1  A    between atoms: C13_18  and  O3_4 
REMARK    2  A    between atoms: C1_6  and  C3_8 
ROOT
HETATM    1  O2  UNK     1      17.779   0.749  35.982  1.00  0.00    -0.275 OA
HETATM    2  O4  UNK     1      17.295   0.843  38.214  1.00  0.00    -0.260 OA
HETATM    3  C1  UNK     1      18.916  -1.815  36.442  1.00  0.00     0.017 A 
HETATM    4  C2  UNK     1      18.899  -1.227  35.091  1.00  0.00     0.011 A 
HETATM    5  C6  UNK     1      18.332   0.033  34.904  1.00  0.00     0.093 A 
HETATM    6  C8  UNK     1      18.377  -1.104  37.448  1.00  0.00     0.097 A 
HETATM    7  C9  UNK     1      19.430  -1.881  33.971  1.00  0.00     0.018 A 
HETATM    8  C10 UNK     1      18.284   0.646  33.652  1.00  0.00     0.075 A 
HETATM    9  C13 UNK     1      18.816  -0.017  32.550  1.00  0.00     0.070 A 
HETATM   10  C14 UNK     1      19.388  -1.278  32.709  1.00  0.00     0.038 A 
HETATM   11  C15 UNK     1      17.775   0.230  37.266  1.00  0.00     0.289 A 
ENDROOT
BRANCH   3  12
HETATM   12  C3  UNK     1      19.450  -3.075  36.785  1.00  0.00     0.088 A 
HETATM   13  O1  UNK     1      18.791  -4.236  36.527  1.00  0.00    -0.309 OA
HETATM   14  C7  UNK     1      19.580  -5.252  36.980  1.00  0.00     0.086 A 
HETATM   15  C12 UNK     1      19.275  -6.610  36.911  1.00  0.00     0.040 A 
HETATM   16  C4  UNK     1      20.750  -4.741  37.531  1.00  0.00     0.002 A 
HETATM   17  C17 UNK     1      20.228  -7.487  37.437  1.00  0.00     0.026 A 
HETATM   18  C16 UNK     1      21.416  -7.015  37.999  1.00  0.00     0.035 A 
HETATM   19  C11 UNK     1      21.695  -5.642  38.054  1.00  0.00     0.038 A 
HETATM   20 Cl1  UNK     1      22.560  -8.136  38.636  1.00  0.00    -0.084 Cl
HETATM   21  C5  UNK     1      20.657  -3.331  37.400  1.00  0.00     0.052 A 
ENDBRANCH   3  12
BRANCH   9  22
HETATM   22  O3  UNK     1      18.779   0.564  31.320  1.00  0.00    -0.356 OA
HETATM   23  C18 UNK     1      19.864   0.285  30.437  1.00  0.00     0.210 C 
ENDBRANCH   9  22
TORSDOF 2
ENDMDL
MODEL 8
REMARK VINA RESULT:      -8.1     16.537     18.416
REMARK  2 active torsions:
REMARK  status: ('A' for Active; 'I' for Inactive)
REMARK    1  A    between atoms: C13_18  and  O3_4 
REMARK    2  A    between atoms: C1_6  and  C3_8 
ROOT
HETATM    1  O2  UNK     1      28.650  -5.354  39.627  1.00  0.00    -0.275 OA
HETATM    2  O4  UNK     1      29.485  -3.256  39.979  1.00  0.00    -0.260 OA
HETATM    3  C1  UNK     1      30.756  -5.767  37.763  1.00  0.00     0.017 A 
HETATM    4  C2  UNK     1      29.768  -6.826  38.033  1.00  0.00     0.011 A 
HETATM    5  C6  UNK     1      28.749  -6.587  38.955  1.00  0.00     0.093 A 
HETATM    6  C8  UNK     1      30.632  -4.603  38.423  1.00  0.00     0.097 A 
HETATM    7  C9  UNK     1      29.803  -8.077  37.404  1.00  0.00     0.018 A 
HETATM    8  C10 UNK     1      27.782  -7.547  39.257  1.00  0.00     0.075 A 
HETATM    9  C13 UNK     1      27.832  -8.784  38.622  1.00  0.00     0.070 A 
HETATM   10  C14 UNK     1      28.840  -9.049  37.697  1.00  0.00     0.038 A 
HETATM   11  C15 UNK     1      29.560  -4.334  39.399  1.00  0.00     0.289 A 
ENDROOT
BRANCH   3  12
HETATM   12  C3  UNK     1      31.838  -5.861  36.862  1.00  0.00     0.088 A 
HETATM   13  O1  UNK     1      33.125  -5.976  37.287  1.00  0.00    -0.309 OA
HETATM   14  C7  UNK     1      33.908  -6.045  36.173  1.00  0.00     0.086 A 
HETATM   15  C12 UNK     1      35.296  -6.167  36.161  1.00  0.00     0.040 A 
HETATM   16  C4  UNK     1      33.121  -5.974  35.028  1.00  0.00     0.002 A 
HETATM   17  C17 UNK     1      35.904  -6.221  34.903  1.00  0.00     0.026 A 
HETATM   18  C16 UNK     1      35.149  -6.153  33.730  1.00  0.00     0.035 A 
HETATM   19  C11 UNK     1      33.754  -6.030  33.774  1.00  0.00     0.038 A 
HETATM   20 Cl1  UNK     1      35.945  -6.222  32.202  1.00  0.00    -0.084 Cl
HETATM   21  C5  UNK     1      31.782  -5.856  35.486  1.00  0.00     0.052 A 
ENDBRANCH   3  12
BRANCH   9  22
HETATM   22  O3  UNK     1      26.898  -9.733  38.903  1.00  0.00    -0.356 OA
HETATM   23  C18 UNK     1      26.948 -10.331  40.198  1.00  0.00     0.210 C 
ENDBRANCH   9  22
TORSDOF 2
ENDMDL
MODEL 9
REMARK VINA RESULT:      -8.0      7.893     10.577
REMARK  2 active torsions:
REMARK  status: ('A' for Active; 'I' for Inactive)
REMARK    1  A    between atoms: C13_18  and  O3_4 
REMARK    2  A    between atoms: C1_6  and  C3_8 
ROOT
HETATM    1  O2  UNK     1      22.223  -7.011  38.370  1.00  0.00    -0.275 OA
HETATM    2  O4  UNK     1      23.843  -5.525  38.997  1.00  0.00    -0.260 OA
HETATM    3  C1  UNK     1      20.707  -4.801  37.423  1.00  0.00     0.017 A 
HETATM    4  C2  UNK     1      20.189  -6.176  37.311  1.00  0.00     0.011 A 
HETATM    5  C6  UNK     1      20.962  -7.235  37.787  1.00  0.00     0.093 A 
HETATM    6  C8  UNK     1      21.916  -4.625  37.984  1.00  0.00     0.097 A 
HETATM    7  C9  UNK     1      18.944  -6.475  36.743  1.00  0.00     0.018 A 
HETATM    8  C10 UNK     1      20.530  -8.560  37.712  1.00  0.00     0.075 A 
HETATM    9  C13 UNK     1      19.291  -8.839  37.145  1.00  0.00     0.070 A 
HETATM   10  C14 UNK     1      18.499  -7.799  36.662  1.00  0.00     0.038 A 
HETATM   11  C15 UNK     1      22.744  -5.734  38.492  1.00  0.00     0.289 A 
ENDROOT
BRANCH   3  12
HETATM   12  C3  UNK     1      20.045  -3.634  36.988  1.00  0.00     0.088 A 
HETATM   13  O1  UNK     1      19.269  -2.889  37.821  1.00  0.00    -0.309 OA
HETATM   14  C7  UNK     1      18.787  -1.845  37.090  1.00  0.00     0.086 A 
HETATM   15  C12 UNK     1      17.946  -0.840  37.564  1.00  0.00     0.040 A 
HETATM   16  C4  UNK     1      19.255  -1.918  35.782  1.00  0.00     0.002 A 
HETATM   17  C17 UNK     1      17.569   0.141  36.642  1.00  0.00     0.026 A 
HETATM   18  C16 UNK     1      18.017   0.103  35.319  1.00  0.00     0.035 A 
HETATM   19  C11 UNK     1      18.863  -0.921  34.871  1.00  0.00     0.038 A 
HETATM   20 Cl1  UNK     1      17.524   1.335  34.219  1.00  0.00    -0.084 Cl
HETATM   21  C5  UNK     1      20.069  -3.080  35.727  1.00  0.00     0.052 A 
ENDBRANCH   3  12
BRANCH   9  22
HETATM   22  O3  UNK     1      18.852 -10.125  37.063  1.00  0.00    -0.356 OA
HETATM   23  C18 UNK     1      19.611 -11.116  37.755  1.00  0.00     0.210 C 
ENDBRANCH   9  22
TORSDOF 2
ENDMDL
MODEL 10
REMARK VINA RESULT:      -7.9     23.345     25.455
REMARK  2 active torsions:
REMARK  status: ('A' for Active; 'I' for Inactive)
REMARK    1  A    between atoms: C13_18  and  O3_4 
REMARK    2  A    between atoms: C1_6  and  C3_8 
ROOT
HETATM    1  O2  UNK     1      11.089   6.384   5.952  1.00  0.00    -0.275 OA
HETATM    2  O4  UNK     1       9.212   6.820   4.722  1.00  0.00    -0.260 OA
HETATM    3  C1  UNK     1       9.385   5.716   8.126  1.00  0.00     0.017 A 
HETATM    4  C2  UNK     1      10.850   5.641   8.264  1.00  0.00     0.011 A 
HETATM    5  C6  UNK     1      11.654   5.977   7.175  1.00  0.00     0.093 A 
HETATM    6  C8  UNK     1       8.880   6.108   6.944  1.00  0.00     0.097 A 
HETATM    7  C9  UNK     1      11.483   5.244   9.449  1.00  0.00     0.018 A 
HETATM    8  C10 UNK     1      13.047   5.927   7.239  1.00  0.00     0.075 A 
HETATM    9  C13 UNK     1      13.659   5.531   8.423  1.00  0.00     0.070 A 
HETATM   10  C14 UNK     1      12.879   5.190   9.527  1.00  0.00     0.038 A 
HETATM   11  C15 UNK     1       9.717   6.467   5.784  1.00  0.00     0.289 A 
ENDROOT
BRANCH   3  12
HETATM   12  C3  UNK     1       8.447   5.409   9.134  1.00  0.00     0.088 A 
HETATM   13  O1  UNK     1       7.873   4.180   9.239  1.00  0.00    -0.309 OA
HETATM   14  C7  UNK     1       7.028   4.224  10.307  1.00  0.00     0.086 A 
HETATM   15  C12 UNK     1       6.238   3.171  10.764  1.00  0.00     0.040 A 
HETATM   16  C4  UNK     1       7.057   5.487  10.891  1.00  0.00     0.002 A 
HETATM   17  C17 UNK     1       5.440   3.431  11.881  1.00  0.00     0.026 A 
HETATM   18  C16 UNK     1       5.441   4.686  12.497  1.00  0.00     0.035 A 
HETATM   19  C11 UNK     1       6.246   5.727  12.014  1.00  0.00     0.038 A 
HETATM   20 Cl1  UNK     1       4.438   4.959  13.872  1.00  0.00    -0.084 Cl
HETATM   21  C5  UNK     1       7.980   6.246  10.124  1.00  0.00     0.052 A 
ENDBRANCH   3  12
BRANCH   9  22
HETATM   22  O3  UNK     1      15.016   5.476   8.506  1.00  0.00    -0.356 OA
HETATM   23  C18 UNK     1      15.583   5.340   9.808  1.00  0.00     0.210 C 
ENDBRANCH   9  22
TORSDOF 2
ENDMDL
