MODEL 1
REMARK VINA RESULT:      -8.3      0.000      0.000
REMARK  2 active torsions:
REMARK  status: ('A' for Active; 'I' for Inactive)
REMARK       I    between atoms: C5_10  and  N1_5 
REMARK    1  A    between atoms: C1_6  and  C4_9 
REMARK    2  A    between atoms: C5_10  and  C6_11 
ROOT
HETATM    1  S1  UNK     1      26.896  -8.378  37.308  1.00  0.00    -0.137 SA
HETATM    2  O1  UNK     1      30.854 -10.674  39.145  1.00  0.00    -0.267 OA
HETATM    3  N1  UNK     1      29.204  -9.333  38.214  1.00  0.00    -0.329 N 
HETATM    4  C1  UNK     1      28.726  -8.300  37.277  1.00  0.00     0.183 C 
HETATM    5  C2  UNK     1      28.143  -9.877  39.061  1.00  0.00     0.138 C 
HETATM    6  C3  UNK     1      26.855  -9.909  38.262  1.00  0.00     0.096 C 
HETATM    7  C5  UNK     1      30.504  -9.804  38.346  1.00  0.00     0.261 C 
ENDROOT
BRANCH   7   8
HETATM    8  C6  UNK     1      31.533  -9.218  37.464  1.00  0.00     0.108 A 
HETATM    9  C11 UNK     1      31.772  -9.724  36.093  1.00  0.00     0.304 A 
HETATM   10  O2  UNK     1      32.768  -9.089  35.358  1.00  0.00    -0.274 OA
HETATM   11  O3  UNK     1      31.125 -10.654  35.623  1.00  0.00    -0.259 OA
HETATM   12  C14 UNK     1      33.516  -8.019  35.887  1.00  0.00     0.089 A 
HETATM   13  C10 UNK     1      33.276  -7.559  37.178  1.00  0.00    -0.001 A 
HETATM   14  C17 UNK     1      34.493  -7.446  35.075  1.00  0.00     0.038 A 
HETATM   15  C9  UNK     1      32.240  -8.202  37.972  1.00  0.00     0.037 A 
HETATM   16  C16 UNK     1      34.037  -6.497  37.669  1.00  0.00     0.014 A 
HETATM   17  C18 UNK     1      35.022  -5.912  36.865  1.00  0.00     0.001 A 
HETATM   18  C19 UNK     1      35.248  -6.387  35.572  1.00  0.00     0.003 A 
ENDBRANCH   7   8
BRANCH   4  19
HETATM   19  C4  UNK     1      29.201  -6.894  37.586  1.00  0.00    -0.025 A 
HETATM   20  C7  UNK     1      29.845  -6.144  36.603  1.00  0.00     0.010 A 
HETATM   21  C12 UNK     1      30.283  -4.851  36.889  1.00  0.00     0.001 A 
HETATM   22  C15 UNK     1      30.077  -4.309  38.157  1.00  0.00     0.000 A 
HETATM   23  C13 UNK     1      29.434  -5.061  39.141  1.00  0.00     0.001 A 
HETATM   24  C8  UNK     1      28.995  -6.353  38.855  1.00  0.00     0.010 A 
ENDBRANCH   4  19
TORSDOF 2
ENDMDL
MODEL 2
REMARK VINA RESULT:      -7.4      3.155      6.248
REMARK  2 active torsions:
REMARK  status: ('A' for Active; 'I' for Inactive)
REMARK       I    between atoms: C5_10  and  N1_5 
REMARK    1  A    between atoms: C1_6  and  C4_9 
REMARK    2  A    between atoms: C5_10  and  C6_11 
ROOT
HETATM    1  S1  UNK     1      32.277  -5.219  34.094  1.00  0.00    -0.137 SA
HETATM    2  O1  UNK     1      32.330  -5.201  39.025  1.00  0.00    -0.267 OA
HETATM    3  N1  UNK     1      32.104  -5.485  36.732  1.00  0.00    -0.329 N 
HETATM    4  C1  UNK     1      31.358  -5.894  35.527  1.00  0.00     0.183 C 
HETATM    5  C2  UNK     1      33.432  -4.951  36.433  1.00  0.00     0.138 C 
HETATM    6  C3  UNK     1      33.368  -4.206  35.115  1.00  0.00     0.096 C 
HETATM    7  C5  UNK     1      31.669  -5.560  38.049  1.00  0.00     0.261 C 
ENDROOT
BRANCH   7   8
HETATM    8  C6  UNK     1      30.318  -6.107  38.290  1.00  0.00     0.108 A 
HETATM    9  C11 UNK     1      29.120  -5.239  38.354  1.00  0.00     0.304 A 
HETATM   10  O2  UNK     1      27.903  -5.872  38.585  1.00  0.00    -0.274 OA
HETATM   11  O3  UNK     1      29.191  -4.024  38.208  1.00  0.00    -0.259 OA
HETATM   12  C14 UNK     1      27.809  -7.268  38.753  1.00  0.00     0.089 A 
HETATM   13  C10 UNK     1      28.948  -8.065  38.689  1.00  0.00    -0.001 A 
HETATM   14  C17 UNK     1      26.547  -7.811  38.979  1.00  0.00     0.038 A 
HETATM   15  C9  UNK     1      30.237  -7.433  38.448  1.00  0.00     0.037 A 
HETATM   16  C16 UNK     1      28.817  -9.445  38.861  1.00  0.00     0.014 A 
HETATM   17  C18 UNK     1      27.555 -10.003  39.090  1.00  0.00     0.001 A 
HETATM   18  C19 UNK     1      26.424  -9.188  39.149  1.00  0.00     0.003 A 
ENDBRANCH   7   8
BRANCH   4  19
HETATM   19  C4  UNK     1      31.167  -7.390  35.377  1.00  0.00    -0.025 A 
HETATM   20  C7  UNK     1      29.918  -7.902  35.029  1.00  0.00     0.010 A 
HETATM   21  C12 UNK     1      29.742  -9.279  34.892  1.00  0.00     0.001 A 
HETATM   22  C15 UNK     1      30.816 -10.143  35.102  1.00  0.00     0.000 A 
HETATM   23  C13 UNK     1      32.066  -9.630  35.452  1.00  0.00     0.001 A 
HETATM   24  C8  UNK     1      32.241  -8.253  35.588  1.00  0.00     0.010 A 
ENDBRANCH   4  19
TORSDOF 2
ENDMDL
MODEL 3
REMARK VINA RESULT:      -7.3      3.858      5.814
REMARK  2 active torsions:
REMARK  status: ('A' for Active; 'I' for Inactive)
REMARK       I    between atoms: C5_10  and  N1_5 
REMARK    1  A    between atoms: C1_6  and  C4_9 
REMARK    2  A    between atoms: C5_10  and  C6_11 
ROOT
HETATM    1  S1  UNK     1      31.334  -4.299  36.812  1.00  0.00    -0.137 SA
HETATM    2  O1  UNK     1      27.283  -7.105  37.005  1.00  0.00    -0.267 OA
HETATM    3  N1  UNK     1      29.315  -6.022  36.702  1.00  0.00    -0.329 N 
HETATM    4  C1  UNK     1      30.500  -5.655  35.906  1.00  0.00     0.183 C 
HETATM    5  C2  UNK     1      29.317  -5.438  38.043  1.00  0.00     0.138 C 
HETATM    6  C3  UNK     1      29.970  -4.071  37.973  1.00  0.00     0.096 C 
HETATM    7  C5  UNK     1      28.257  -6.829  36.302  1.00  0.00     0.261 C 
ENDROOT
BRANCH   7   8
HETATM    8  C6  UNK     1      28.308  -7.390  34.937  1.00  0.00     0.108 A 
HETATM    9  C11 UNK     1      28.727  -8.786  34.677  1.00  0.00     0.304 A 
HETATM   10  O2  UNK     1      28.732  -9.199  33.348  1.00  0.00    -0.274 OA
HETATM   11  O3  UNK     1      29.052  -9.546  35.583  1.00  0.00    -0.259 OA
HETATM   12  C14 UNK     1      28.360  -8.336  32.299  1.00  0.00     0.089 A 
HETATM   13  C10 UNK     1      27.970  -7.027  32.565  1.00  0.00    -0.001 A 
HETATM   14  C17 UNK     1      28.396  -8.840  31.000  1.00  0.00     0.038 A 
HETATM   15  C9  UNK     1      27.953  -6.565  33.945  1.00  0.00     0.037 A 
HETATM   16  C16 UNK     1      27.608  -6.201  31.499  1.00  0.00     0.014 A 
HETATM   17  C18 UNK     1      27.641  -6.693  30.191  1.00  0.00     0.001 A 
HETATM   18  C19 UNK     1      28.034  -8.010  29.943  1.00  0.00     0.003 A 
ENDBRANCH   7   8
BRANCH   4  19
HETATM   19  C4  UNK     1      31.468  -6.793  35.649  1.00  0.00    -0.025 A 
HETATM   20  C7  UNK     1      31.938  -7.029  34.357  1.00  0.00     0.010 A 
HETATM   21  C12 UNK     1      32.828  -8.076  34.121  1.00  0.00     0.001 A 
HETATM   22  C15 UNK     1      33.248  -8.887  35.175  1.00  0.00     0.000 A 
HETATM   23  C13 UNK     1      32.776  -8.651  36.467  1.00  0.00     0.001 A 
HETATM   24  C8  UNK     1      31.887  -7.603  36.703  1.00  0.00     0.010 A 
ENDBRANCH   4  19
TORSDOF 2
ENDMDL
MODEL 4
REMARK VINA RESULT:      -7.2      5.583      7.379
REMARK  2 active torsions:
REMARK  status: ('A' for Active; 'I' for Inactive)
REMARK       I    between atoms: C5_10  and  N1_5 
REMARK    1  A    between atoms: C1_6  and  C4_9 
REMARK    2  A    between atoms: C5_10  and  C6_11 
ROOT
HETATM    1  S1  UNK     1      32.722  -7.242  34.905  1.00  0.00    -0.137 SA
HETATM    2  O1  UNK     1      30.099  -4.304  31.938  1.00  0.00    -0.267 OA
HETATM    3  N1  UNK     1      31.073  -5.908  33.305  1.00  0.00    -0.329 N 
HETATM    4  C1  UNK     1      31.324  -7.299  33.724  1.00  0.00     0.183 C 
HETATM    5  C2  UNK     1      31.773  -4.923  34.130  1.00  0.00     0.138 C 
HETATM    6  C3  UNK     1      33.103  -5.512  34.560  1.00  0.00     0.096 C 
HETATM    7  C5  UNK     1      30.274  -5.483  32.251  1.00  0.00     0.261 C 
ENDROOT
BRANCH   7   8
HETATM    8  C6  UNK     1      29.593  -6.521  31.453  1.00  0.00     0.108 A 
HETATM    9  C11 UNK     1      28.171  -6.872  31.669  1.00  0.00     0.304 A 
HETATM   10  O2  UNK     1      27.641  -7.866  30.853  1.00  0.00    -0.274 OA
HETATM   11  O3  UNK     1      27.489  -6.316  32.523  1.00  0.00    -0.259 OA
HETATM   12  C14 UNK     1      28.415  -8.511  29.868  1.00  0.00     0.089 A 
HETATM   13  C10 UNK     1      29.750  -8.167  29.681  1.00  0.00    -0.001 A 
HETATM   14  C17 UNK     1      27.797  -9.494  29.098  1.00  0.00     0.038 A 
HETATM   15  C9  UNK     1      30.334  -7.131  30.519  1.00  0.00     0.037 A 
HETATM   16  C16 UNK     1      30.486  -8.829  28.696  1.00  0.00     0.014 A 
HETATM   17  C18 UNK     1      29.878  -9.818  27.916  1.00  0.00     0.001 A 
HETATM   18  C19 UNK     1      28.537 -10.150  28.117  1.00  0.00     0.003 A 
ENDBRANCH   7   8
BRANCH   4  19
HETATM   19  C4  UNK     1      30.132  -7.997  34.347  1.00  0.00    -0.025 A 
HETATM   20  C7  UNK     1      29.776  -9.278  33.927  1.00  0.00     0.010 A 
HETATM   21  C12 UNK     1      28.679  -9.920  34.501  1.00  0.00     0.001 A 
HETATM   22  C15 UNK     1      27.938  -9.281  35.495  1.00  0.00     0.000 A 
HETATM   23  C13 UNK     1      28.294  -7.999  35.914  1.00  0.00     0.001 A 
HETATM   24  C8  UNK     1      29.392  -7.358  35.341  1.00  0.00     0.010 A 
ENDBRANCH   4  19
TORSDOF 2
ENDMDL
MODEL 5
REMARK VINA RESULT:      -7.2      2.888      4.395
REMARK  2 active torsions:
REMARK  status: ('A' for Active; 'I' for Inactive)
REMARK       I    between atoms: C5_10  and  N1_5 
REMARK    1  A    between atoms: C1_6  and  C4_9 
REMARK    2  A    between atoms: C5_10  and  C6_11 
ROOT
HETATM    1  S1  UNK     1      28.497 -10.198  39.639  1.00  0.00    -0.137 SA
HETATM    2  O1  UNK     1      26.611  -5.969  37.943  1.00  0.00    -0.267 OA
HETATM    3  N1  UNK     1      27.753  -7.908  38.516  1.00  0.00    -0.329 N 
HETATM    4  C1  UNK     1      28.981  -8.704  38.697  1.00  0.00     0.183 C 
HETATM    5  C2  UNK     1      26.535  -8.642  38.861  1.00  0.00     0.138 C 
HETATM    6  C3  UNK     1      26.845  -9.577  40.014  1.00  0.00     0.096 C 
HETATM    7  C5  UNK     1      27.665  -6.595  38.074  1.00  0.00     0.261 C 
ENDROOT
BRANCH   7   8
HETATM    8  C6  UNK     1      28.927  -5.903  37.742  1.00  0.00     0.108 A 
HETATM    9  C11 UNK     1      29.607  -5.004  38.702  1.00  0.00     0.304 A 
HETATM   10  O2  UNK     1      30.790  -4.411  38.273  1.00  0.00    -0.274 OA
HETATM   11  O3  UNK     1      29.155  -4.790  39.822  1.00  0.00    -0.259 OA
HETATM   12  C14 UNK     1      31.320  -4.651  36.990  1.00  0.00     0.089 A 
HETATM   13  C10 UNK     1      30.665  -5.499  36.102  1.00  0.00    -0.001 A 
HETATM   14  C17 UNK     1      32.511  -4.013  36.650  1.00  0.00     0.038 A 
HETATM   15  C9  UNK     1      29.425  -6.135  36.521  1.00  0.00     0.037 A 
HETATM   16  C16 UNK     1      31.220  -5.712  34.838  1.00  0.00     0.014 A 
HETATM   17  C18 UNK     1      32.415  -5.077  34.484  1.00  0.00     0.001 A 
HETATM   18  C19 UNK     1      33.058  -4.230  35.388  1.00  0.00     0.003 A 
ENDBRANCH   7   8
BRANCH   4  19
HETATM   19  C4  UNK     1      29.678  -9.093  37.409  1.00  0.00    -0.025 A 
HETATM   20  C7  UNK     1      31.071  -9.105  37.346  1.00  0.00     0.010 A 
HETATM   21  C12 UNK     1      31.713  -9.463  36.161  1.00  0.00     0.001 A 
HETATM   22  C15 UNK     1      30.961  -9.808  35.038  1.00  0.00     0.000 A 
HETATM   23  C13 UNK     1      29.568  -9.795  35.101  1.00  0.00     0.001 A 
HETATM   24  C8  UNK     1      28.926  -9.439  36.287  1.00  0.00     0.010 A 
ENDBRANCH   4  19
TORSDOF 2
ENDMDL
MODEL 6
REMARK VINA RESULT:      -7.1      3.328      4.843
REMARK  2 active torsions:
REMARK  status: ('A' for Active; 'I' for Inactive)
REMARK       I    between atoms: C5_10  and  N1_5 
REMARK    1  A    between atoms: C1_6  and  C4_9 
REMARK    2  A    between atoms: C5_10  and  C6_11 
ROOT
HETATM    1  S1  UNK     1      30.272  -3.969  38.280  1.00  0.00    -0.137 SA
HETATM    2  O1  UNK     1      29.242  -8.521  36.687  1.00  0.00    -0.267 OA
HETATM    3  N1  UNK     1      29.981  -6.382  37.207  1.00  0.00    -0.329 N 
HETATM    4  C1  UNK     1      30.593  -5.085  36.864  1.00  0.00     0.183 C 
HETATM    5  C2  UNK     1      29.583  -6.477  38.611  1.00  0.00     0.138 C 
HETATM    6  C3  UNK     1      29.122  -5.110  39.076  1.00  0.00     0.096 C 
HETATM    7  C5  UNK     1      29.763  -7.455  36.353  1.00  0.00     0.261 C 
ENDROOT
BRANCH   7   8
HETATM    8  C6  UNK     1      30.184  -7.302  34.946  1.00  0.00     0.108 A 
HETATM    9  C11 UNK     1      31.417  -7.933  34.421  1.00  0.00     0.304 A 
HETATM   10  O2  UNK     1      31.707  -7.716  33.078  1.00  0.00    -0.274 OA
HETATM   11  O3  UNK     1      32.148  -8.616  35.130  1.00  0.00    -0.259 OA
HETATM   12  C14 UNK     1      30.874  -6.934  32.253  1.00  0.00     0.089 A 
HETATM   13  C10 UNK     1      29.720  -6.349  32.767  1.00  0.00    -0.001 A 
HETATM   14  C17 UNK     1      31.246  -6.774  30.920  1.00  0.00     0.038 A 
HETATM   15  C9  UNK     1      29.389  -6.558  34.168  1.00  0.00     0.037 A 
HETATM   16  C16 UNK     1      28.919  -5.580  31.919  1.00  0.00     0.014 A 
HETATM   17  C18 UNK     1      29.281  -5.410  30.579  1.00  0.00     0.001 A 
HETATM   18  C19 UNK     1      30.442  -6.006  30.082  1.00  0.00     0.003 A 
ENDBRANCH   7   8
BRANCH   4  19
HETATM   19  C4  UNK     1      32.078  -5.146  36.563  1.00  0.00    -0.025 A 
HETATM   20  C7  UNK     1      32.585  -4.519  35.425  1.00  0.00     0.010 A 
HETATM   21  C12 UNK     1      33.950  -4.575  35.149  1.00  0.00     0.001 A 
HETATM   22  C15 UNK     1      34.809  -5.258  36.010  1.00  0.00     0.000 A 
HETATM   23  C13 UNK     1      34.301  -5.885  37.148  1.00  0.00     0.001 A 
HETATM   24  C8  UNK     1      32.935  -5.828  37.425  1.00  0.00     0.010 A 
ENDBRANCH   4  19
TORSDOF 2
ENDMDL
MODEL 7
REMARK VINA RESULT:      -7.1      3.211      6.165
REMARK  2 active torsions:
REMARK  status: ('A' for Active; 'I' for Inactive)
REMARK       I    between atoms: C5_10  and  N1_5 
REMARK    1  A    between atoms: C1_6  and  C4_9 
REMARK    2  A    between atoms: C5_10  and  C6_11 
ROOT
HETATM    1  S1  UNK     1      33.918  -6.960  33.162  1.00  0.00    -0.137 SA
HETATM    2  O1  UNK     1      34.427  -6.033  37.978  1.00  0.00    -0.267 OA
HETATM    3  N1  UNK     1      33.875  -6.587  35.792  1.00  0.00    -0.329 N 
HETATM    4  C1  UNK     1      32.918  -6.765  34.684  1.00  0.00     0.183 C 
HETATM    5  C2  UNK     1      35.254  -6.898  35.417  1.00  0.00     0.138 C 
HETATM    6  C3  UNK     1      35.463  -6.496  33.970  1.00  0.00     0.096 C 
HETATM    7  C5  UNK     1      33.588  -6.171  37.085  1.00  0.00     0.261 C 
ENDROOT
BRANCH   7   8
HETATM    8  C6  UNK     1      32.178  -5.870  37.406  1.00  0.00     0.108 A 
HETATM    9  C11 UNK     1      31.584  -4.537  37.161  1.00  0.00     0.304 A 
HETATM   10  O2  UNK     1      30.245  -4.377  37.504  1.00  0.00    -0.274 OA
HETATM   11  O3  UNK     1      32.233  -3.616  36.677  1.00  0.00    -0.259 OA
HETATM   12  C14 UNK     1      29.488  -5.428  38.059  1.00  0.00     0.089 A 
HETATM   13  C10 UNK     1      30.067  -6.674  38.282  1.00  0.00    -0.001 A 
HETATM   14  C17 UNK     1      28.154  -5.173  38.370  1.00  0.00     0.038 A 
HETATM   15  C9  UNK     1      31.465  -6.873  37.934  1.00  0.00     0.037 A 
HETATM   16  C16 UNK     1      29.285  -7.691  38.835  1.00  0.00     0.014 A 
HETATM   17  C18 UNK     1      27.945  -7.449  39.152  1.00  0.00     0.001 A 
HETATM   18  C19 UNK     1      27.382  -6.193  38.920  1.00  0.00     0.003 A 
ENDBRANCH   7   8
BRANCH   4  19
HETATM   19  C4  UNK     1      31.969  -7.935  34.849  1.00  0.00    -0.025 A 
HETATM   20  C7  UNK     1      30.606  -7.766  34.612  1.00  0.00     0.010 A 
HETATM   21  C12 UNK     1      29.733  -8.843  34.764  1.00  0.00     0.001 A 
HETATM   22  C15 UNK     1      30.223 -10.089  35.152  1.00  0.00     0.000 A 
HETATM   23  C13 UNK     1      31.588 -10.258  35.390  1.00  0.00     0.001 A 
HETATM   24  C8  UNK     1      32.461  -9.181  35.237  1.00  0.00     0.010 A 
ENDBRANCH   4  19
TORSDOF 2
ENDMDL
MODEL 8
REMARK VINA RESULT:      -7.1      5.861      8.142
REMARK  2 active torsions:
REMARK  status: ('A' for Active; 'I' for Inactive)
REMARK       I    between atoms: C5_10  and  N1_5 
REMARK    1  A    between atoms: C1_6  and  C4_9 
REMARK    2  A    between atoms: C5_10  and  C6_11 
ROOT
HETATM    1  S1  UNK     1      34.966 -10.136  32.964  1.00  0.00    -0.137 SA
HETATM    2  O1  UNK     1      33.857  -8.222  28.557  1.00  0.00    -0.267 OA
HETATM    3  N1  UNK     1      34.086  -8.981  30.739  1.00  0.00    -0.329 N 
HETATM    4  C1  UNK     1      33.548  -9.452  32.028  1.00  0.00     0.183 C 
HETATM    5  C2  UNK     1      35.548  -8.930  30.709  1.00  0.00     0.138 C 
HETATM    6  C3  UNK     1      36.088 -10.069  31.552  1.00  0.00     0.096 C 
HETATM    7  C5  UNK     1      33.359  -8.606  29.617  1.00  0.00     0.261 C 
ENDROOT
BRANCH   7   8
HETATM    8  C6  UNK     1      31.887  -8.679  29.704  1.00  0.00     0.108 A 
HETATM    9  C11 UNK     1      31.147  -9.941  29.475  1.00  0.00     0.304 A 
HETATM   10  O2  UNK     1      29.762  -9.883  29.587  1.00  0.00    -0.274 OA
HETATM   11  O3  UNK     1      31.722 -10.989  29.202  1.00  0.00    -0.259 OA
HETATM   12  C14 UNK     1      29.090  -8.685  29.902  1.00  0.00     0.089 A 
HETATM   13  C10 UNK     1      29.805  -7.509  30.113  1.00  0.00    -0.001 A 
HETATM   14  C17 UNK     1      27.701  -8.725  29.993  1.00  0.00     0.038 A 
HETATM   15  C9  UNK     1      31.255  -7.538  30.003  1.00  0.00     0.037 A 
HETATM   16  C16 UNK     1      29.105  -6.341  30.422  1.00  0.00     0.014 A 
HETATM   17  C18 UNK     1      27.709  -6.366  30.516  1.00  0.00     0.001 A 
HETATM   18  C19 UNK     1      27.010  -7.555  30.302  1.00  0.00     0.003 A 
ENDBRANCH   7   8
BRANCH   4  19
HETATM   19  C4  UNK     1      32.839  -8.390  32.844  1.00  0.00    -0.025 A 
HETATM   20  C7  UNK     1      31.571  -8.643  33.368  1.00  0.00     0.010 A 
HETATM   21  C12 UNK     1      30.919  -7.666  34.119  1.00  0.00     0.001 A 
HETATM   22  C15 UNK     1      31.533  -6.434  34.345  1.00  0.00     0.000 A 
HETATM   23  C13 UNK     1      32.801  -6.181  33.820  1.00  0.00     0.001 A 
HETATM   24  C8  UNK     1      33.454  -7.159  33.070  1.00  0.00     0.010 A 
ENDBRANCH   4  19
TORSDOF 2
ENDMDL
MODEL 9
REMARK VINA RESULT:      -7.1      2.213      5.392
REMARK  2 active torsions:
REMARK  status: ('A' for Active; 'I' for Inactive)
REMARK       I    between atoms: C5_10  and  N1_5 
REMARK    1  A    between atoms: C1_6  and  C4_9 
REMARK    2  A    between atoms: C5_10  and  C6_11 
ROOT
HETATM    1  S1  UNK     1      34.371  -6.279  37.151  1.00  0.00    -0.137 SA
HETATM    2  O1  UNK     1      31.275  -8.976  34.421  1.00  0.00    -0.267 OA
HETATM    3  N1  UNK     1      32.455  -7.614  35.885  1.00  0.00    -0.329 N 
HETATM    4  C1  UNK     1      32.684  -6.989  37.201  1.00  0.00     0.183 C 
HETATM    5  C2  UNK     1      33.462  -7.247  34.890  1.00  0.00     0.138 C 
HETATM    6  C3  UNK     1      34.796  -7.082  35.591  1.00  0.00     0.096 C 
HETATM    7  C5  UNK     1      31.422  -8.475  35.537  1.00  0.00     0.261 C 
ENDROOT
BRANCH   7   8
HETATM    8  C6  UNK     1      30.435  -8.811  36.583  1.00  0.00     0.108 A 
HETATM    9  C11 UNK     1      30.722  -9.802  37.645  1.00  0.00     0.304 A 
HETATM   10  O2  UNK     1      29.712 -10.032  38.574  1.00  0.00    -0.274 OA
HETATM   11  O3  UNK     1      31.795 -10.392  37.708  1.00  0.00    -0.259 OA
HETATM   12  C14 UNK     1      28.476  -9.360  38.512  1.00  0.00     0.089 A 
HETATM   13  C10 UNK     1      28.226  -8.432  37.505  1.00  0.00    -0.001 A 
HETATM   14  C17 UNK     1      27.527  -9.656  39.487  1.00  0.00     0.038 A 
HETATM   15  C9  UNK     1      29.262  -8.169  36.518  1.00  0.00     0.037 A 
HETATM   16  C16 UNK     1      26.989  -7.785  37.476  1.00  0.00     0.014 A 
HETATM   17  C18 UNK     1      26.026  -8.074  38.448  1.00  0.00     0.001 A 
HETATM   18  C19 UNK     1      26.295  -9.007  39.451  1.00  0.00     0.003 A 
ENDBRANCH   7   8
BRANCH   4  19
HETATM   19  C4  UNK     1      31.673  -5.927  37.582  1.00  0.00    -0.025 A 
HETATM   20  C7  UNK     1      31.595  -4.743  36.848  1.00  0.00     0.010 A 
HETATM   21  C12 UNK     1      30.665  -3.765  37.199  1.00  0.00     0.001 A 
HETATM   22  C15 UNK     1      29.813  -3.971  38.284  1.00  0.00     0.000 A 
HETATM   23  C13 UNK     1      29.892  -5.154  39.019  1.00  0.00     0.001 A 
HETATM   24  C8  UNK     1      30.822  -6.132  38.667  1.00  0.00     0.010 A 
ENDBRANCH   4  19
TORSDOF 2
ENDMDL
MODEL 10
REMARK VINA RESULT:      -7.0      4.045      6.077
REMARK  2 active torsions:
REMARK  status: ('A' for Active; 'I' for Inactive)
REMARK       I    between atoms: C5_10  and  N1_5 
REMARK    1  A    between atoms: C1_6  and  C4_9 
REMARK    2  A    between atoms: C5_10  and  C6_11 
ROOT
HETATM    1  S1  UNK     1      32.535  -8.087  37.407  1.00  0.00    -0.137 SA
HETATM    2  O1  UNK     1      32.121  -4.313  34.261  1.00  0.00    -0.267 OA
HETATM    3  N1  UNK     1      32.018  -6.198  35.612  1.00  0.00    -0.329 N 
HETATM    4  C1  UNK     1      31.636  -7.595  35.889  1.00  0.00     0.183 C 
HETATM    5  C2  UNK     1      32.723  -5.562  36.724  1.00  0.00     0.138 C 
HETATM    6  C3  UNK     1      33.571  -6.609  37.420  1.00  0.00     0.096 C 
HETATM    7  C5  UNK     1      31.777  -5.482  34.447  1.00  0.00     0.261 C 
ENDROOT
BRANCH   7   8
HETATM    8  C6  UNK     1      31.062  -6.175  33.357  1.00  0.00     0.108 A 
HETATM    9  C11 UNK     1      31.750  -7.107  32.434  1.00  0.00     0.304 A 
HETATM   10  O2  UNK     1      30.968  -7.700  31.448  1.00  0.00    -0.274 OA
HETATM   11  O3  UNK     1      32.948  -7.350  32.531  1.00  0.00    -0.259 OA
HETATM   12  C14 UNK     1      29.590  -7.431  31.328  1.00  0.00     0.089 A 
HETATM   13  C10 UNK     1      28.963  -6.551  32.205  1.00  0.00    -0.001 A 
HETATM   14  C17 UNK     1      28.890  -8.073  30.309  1.00  0.00     0.038 A 
HETATM   15  C9  UNK     1      29.754  -5.914  33.248  1.00  0.00     0.037 A 
HETATM   16  C16 UNK     1      27.597  -6.308  32.054  1.00  0.00     0.014 A 
HETATM   17  C18 UNK     1      26.881  -6.945  31.036  1.00  0.00     0.001 A 
HETATM   18  C19 UNK     1      27.527  -7.825  30.166  1.00  0.00     0.003 A 
ENDBRANCH   7   8
BRANCH   4  19
HETATM   19  C4  UNK     1      30.147  -7.823  36.058  1.00  0.00    -0.025 A 
HETATM   20  C7  UNK     1      29.392  -6.950  36.840  1.00  0.00     0.010 A 
HETATM   21  C12 UNK     1      28.023  -7.161  36.996  1.00  0.00     0.001 A 
HETATM   22  C15 UNK     1      27.408  -8.244  36.370  1.00  0.00     0.000 A 
HETATM   23  C13 UNK     1      28.164  -9.118  35.588  1.00  0.00     0.001 A 
HETATM   24  C8  UNK     1      29.533  -8.907  35.431  1.00  0.00     0.010 A 
ENDBRANCH   4  19
TORSDOF 2
ENDMDL
