MODEL 1
REMARK VINA RESULT:      -8.4      0.000      0.000
REMARK  2 active torsions:
REMARK  status: ('A' for Active; 'I' for Inactive)
REMARK    1  A    between atoms: C8_14  and  N1_5 
REMARK    2  A    between atoms: C1_7  and  C4_10 
ROOT
HETATM    1  O1  UNK     1      16.872   8.247   9.816  1.00  0.00    -0.291 OA
HETATM    2  O2  UNK     1      13.699  10.422  11.461  1.00  0.00    -0.274 OA
HETATM    3  O3  UNK     1      12.450   8.518  11.576  1.00  0.00    -0.259 OA
HETATM    4  N2  UNK     1      15.790   3.555   9.885  1.00  0.00    -0.191 NA
HETATM    5  C1  UNK     1      14.427   6.828  10.344  1.00  0.00     0.108 C 
HETATM    6  C2  UNK     1      14.622   8.308  10.633  1.00  0.00     0.066 A 
HETATM    7  C3  UNK     1      15.784   8.915  10.350  1.00  0.00     0.104 A 
HETATM    8  C5  UNK     1      15.746   6.144   9.982  1.00  0.00     0.086 C 
HETATM    9  C6  UNK     1      15.970  10.344  10.589  1.00  0.00     0.033 A 
HETATM   10  C7  UNK     1      13.502   9.061  11.255  1.00  0.00     0.298 A 
HETATM   11  C8  UNK     1      16.868   6.857   9.729  1.00  0.00     0.159 C 
HETATM   12  C9  UNK     1      14.911  11.062  11.137  1.00  0.00     0.092 A 
HETATM   13  C12 UNK     1      17.151  11.033  10.296  1.00  0.00     0.017 A 
HETATM   14  C13 UNK     1      14.996  12.430  11.396  1.00  0.00     0.038 A 
HETATM   15  C16 UNK     1      17.255  12.405  10.549  1.00  0.00     0.001 A 
HETATM   16  C17 UNK     1      15.770   4.714   9.928  1.00  0.00     0.100 C 
HETATM   17  C18 UNK     1      16.178  13.102  11.098  1.00  0.00     0.003 A 
ENDROOT
BRANCH   5  18
HETATM   18  C4  UNK     1      13.421   6.631   9.247  1.00  0.00    -0.044 A 
HETATM   19  C10 UNK     1      13.624   7.235   8.012  1.00  0.00     0.011 A 
HETATM   20  C14 UNK     1      12.689   7.052   6.993  1.00  0.00     0.043 A 
HETATM   21  C19 UNK     1      11.558   6.266   7.216  1.00  0.00     0.116 A 
HETATM   22  C15 UNK     1      11.363   5.663   8.458  1.00  0.00     0.043 A 
HETATM   23  F1  UNK     1      10.661   6.091   6.237  1.00  0.00    -0.206 F 
HETATM   24  C11 UNK     1      12.297   5.846   9.478  1.00  0.00     0.011 A 
ENDBRANCH   5  18
BRANCH  11  25
HETATM   25  N1  UNK     1      18.078   6.325   9.379  1.00  0.00    -0.379 N 
HETATM   26  H10 UNK     1      18.330   5.409   9.730  1.00  0.00     0.158 HD
HETATM   27  H11 UNK     1      18.718   6.833   8.781  1.00  0.00     0.158 HD
ENDBRANCH  11  25
TORSDOF 2
ENDMDL
MODEL 2
REMARK VINA RESULT:      -8.2     34.098     35.282
REMARK  2 active torsions:
REMARK  status: ('A' for Active; 'I' for Inactive)
REMARK    1  A    between atoms: C8_14  and  N1_5 
REMARK    2  A    between atoms: C1_7  and  C4_10 
ROOT
HETATM    1  O1  UNK     1      30.896  -5.335  38.252  1.00  0.00    -0.291 OA
HETATM    2  O2  UNK     1      31.636  -7.789  34.946  1.00  0.00    -0.274 OA
HETATM    3  O3  UNK     1      29.399  -8.168  34.722  1.00  0.00    -0.259 OA
HETATM    4  N2  UNK     1      26.143  -4.744  38.763  1.00  0.00    -0.191 NA
HETATM    5  C1  UNK     1      28.637  -6.638  37.038  1.00  0.00     0.108 C 
HETATM    6  C2  UNK     1      30.067  -6.791  36.542  1.00  0.00     0.066 A 
HETATM    7  C3  UNK     1      31.079  -6.167  37.162  1.00  0.00     0.104 A 
HETATM    8  C5  UNK     1      28.518  -5.527  38.083  1.00  0.00     0.086 C 
HETATM    9  C6  UNK     1      32.460  -6.338  36.717  1.00  0.00     0.033 A 
HETATM   10  C7  UNK     1      30.312  -7.632  35.342  1.00  0.00     0.298 A 
HETATM   11  C8  UNK     1      29.612  -4.954  38.635  1.00  0.00     0.159 C 
HETATM   12  C9  UNK     1      32.700  -7.155  35.616  1.00  0.00     0.092 A 
HETATM   13  C12 UNK     1      33.556  -5.728  37.337  1.00  0.00     0.017 A 
HETATM   14  C13 UNK     1      33.985  -7.379  35.124  1.00  0.00     0.038 A 
HETATM   15  C16 UNK     1      34.852  -5.941  36.856  1.00  0.00     0.001 A 
HETATM   16  C17 UNK     1      27.206  -5.095  38.459  1.00  0.00     0.100 C 
HETATM   17  C18 UNK     1      35.066  -6.766  35.751  1.00  0.00     0.003 A 
ENDROOT
BRANCH   5  18
HETATM   18  C4  UNK     1      28.129  -7.934  37.596  1.00  0.00    -0.044 A 
HETATM   19  C10 UNK     1      28.796  -8.535  38.656  1.00  0.00     0.011 A 
HETATM   20  C14 UNK     1      28.323  -9.741  39.175  1.00  0.00     0.043 A 
HETATM   21  C19 UNK     1      27.185 -10.337  38.631  1.00  0.00     0.116 A 
HETATM   22  C15 UNK     1      26.521  -9.726  37.567  1.00  0.00     0.043 A 
HETATM   23  F1  UNK     1      26.732 -11.493  39.129  1.00  0.00    -0.206 F 
HETATM   24  C11 UNK     1      26.993  -8.521  37.047  1.00  0.00     0.011 A 
ENDBRANCH   5  18
BRANCH  11  25
HETATM   25  N1  UNK     1      29.592  -3.973  39.589  1.00  0.00    -0.379 N 
HETATM   26  H10 UNK     1      30.208  -3.177  39.484  1.00  0.00     0.158 HD
HETATM   27  H11 UNK     1      28.975  -4.037  40.389  1.00  0.00     0.158 HD
ENDBRANCH  11  25
TORSDOF 2
ENDMDL
MODEL 3
REMARK VINA RESULT:      -8.1     33.498     35.140
REMARK  2 active torsions:
REMARK  status: ('A' for Active; 'I' for Inactive)
REMARK    1  A    between atoms: C8_14  and  N1_5 
REMARK    2  A    between atoms: C1_7  and  C4_10 
ROOT
HETATM    1  O1  UNK     1      32.333  -6.618  37.066  1.00  0.00    -0.291 OA
HETATM    2  O2  UNK     1      30.078  -8.136  33.886  1.00  0.00    -0.274 OA
HETATM    3  O3  UNK     1      28.192  -7.223  34.783  1.00  0.00    -0.259 OA
HETATM    4  N2  UNK     1      29.540  -3.800  39.795  1.00  0.00    -0.191 NA
HETATM    5  C1  UNK     1      29.490  -6.186  37.134  1.00  0.00     0.108 C 
HETATM    6  C2  UNK     1      30.205  -6.925  36.012  1.00  0.00     0.066 A 
HETATM    7  C3  UNK     1      31.534  -7.106  36.048  1.00  0.00     0.104 A 
HETATM    8  C5  UNK     1      30.479  -5.494  38.074  1.00  0.00     0.086 C 
HETATM    9  C6  UNK     1      32.225  -7.846  34.995  1.00  0.00     0.033 A 
HETATM   10  C7  UNK     1      29.399  -7.424  34.868  1.00  0.00     0.298 A 
HETATM   11  C8  UNK     1      31.808  -5.741  38.011  1.00  0.00     0.159 C 
HETATM   12  C9  UNK     1      31.469  -8.348  33.939  1.00  0.00     0.092 A 
HETATM   13  C12 UNK     1      33.604  -8.082  34.989  1.00  0.00     0.017 A 
HETATM   14  C13 UNK     1      32.043  -9.070  32.893  1.00  0.00     0.038 A 
HETATM   15  C16 UNK     1      34.196  -8.803  33.947  1.00  0.00     0.001 A 
HETATM   16  C17 UNK     1      29.960  -4.559  39.025  1.00  0.00     0.100 C 
HETATM   17  C18 UNK     1      33.415  -9.297  32.901  1.00  0.00     0.003 A 
ENDROOT
BRANCH   5  18
HETATM   18  C4  UNK     1      28.607  -7.123  37.905  1.00  0.00    -0.044 A 
HETATM   19  C10 UNK     1      27.271  -6.799  38.106  1.00  0.00     0.011 A 
HETATM   20  C14 UNK     1      26.451  -7.670  38.824  1.00  0.00     0.043 A 
HETATM   21  C19 UNK     1      26.972  -8.859  39.334  1.00  0.00     0.116 A 
HETATM   22  C15 UNK     1      28.314  -9.177  39.127  1.00  0.00     0.043 A 
HETATM   23  F1  UNK     1      26.184  -9.694  40.023  1.00  0.00    -0.206 F 
HETATM   24  C11 UNK     1      29.135  -8.306  38.410  1.00  0.00     0.011 A 
ENDBRANCH   5  18
BRANCH  11  25
HETATM   25  N1  UNK     1      32.752  -5.182  38.827  1.00  0.00    -0.379 N 
HETATM   26  H10 UNK     1      33.062  -5.698  39.641  1.00  0.00     0.158 HD
HETATM   27  H11 UNK     1      33.138  -4.267  38.627  1.00  0.00     0.158 HD
ENDBRANCH  11  25
TORSDOF 2
ENDMDL
MODEL 4
REMARK VINA RESULT:      -8.0     32.695     34.556
REMARK  2 active torsions:
REMARK  status: ('A' for Active; 'I' for Inactive)
REMARK    1  A    between atoms: C8_14  and  N1_5 
REMARK    2  A    between atoms: C1_7  and  C4_10 
ROOT
HETATM    1  O1  UNK     1      30.509  -5.220  37.087  1.00  0.00    -0.291 OA
HETATM    2  O2  UNK     1      30.647  -9.399  37.202  1.00  0.00    -0.274 OA
HETATM    3  O3  UNK     1      32.443  -9.382  35.799  1.00  0.00    -0.259 OA
HETATM    4  N2  UNK     1      34.331  -3.568  34.665  1.00  0.00    -0.191 NA
HETATM    5  C1  UNK     1      32.482  -6.525  35.450  1.00  0.00     0.108 C 
HETATM    6  C2  UNK     1      31.502  -7.269  36.346  1.00  0.00     0.066 A 
HETATM    7  C3  UNK     1      30.596  -6.601  37.075  1.00  0.00     0.104 A 
HETATM    8  C5  UNK     1      32.457  -5.019  35.715  1.00  0.00     0.086 C 
HETATM    9  C6  UNK     1      29.627  -7.306  37.910  1.00  0.00     0.033 A 
HETATM   10  C7  UNK     1      31.588  -8.751  36.410  1.00  0.00     0.298 A 
HETATM   11  C8  UNK     1      31.500  -4.449  36.482  1.00  0.00     0.159 C 
HETATM   12  C9  UNK     1      29.678  -8.697  37.945  1.00  0.00     0.092 A 
HETATM   13  C12 UNK     1      28.647  -6.663  38.675  1.00  0.00     0.017 A 
HETATM   14  C13 UNK     1      28.791  -9.453  38.709  1.00  0.00     0.038 A 
HETATM   15  C16 UNK     1      27.750  -7.406  39.448  1.00  0.00     0.001 A 
HETATM   16  C17 UNK     1      33.492  -4.217  35.135  1.00  0.00     0.100 C 
HETATM   17  C18 UNK     1      27.822  -8.800  39.464  1.00  0.00     0.003 A 
ENDROOT
BRANCH   5  18
HETATM   18  C4  UNK     1      32.192  -6.804  34.005  1.00  0.00    -0.044 A 
HETATM   19  C10 UNK     1      30.927  -6.540  33.494  1.00  0.00     0.011 A 
HETATM   20  C14 UNK     1      30.659  -6.800  32.149  1.00  0.00     0.043 A 
HETATM   21  C19 UNK     1      31.657  -7.320  31.325  1.00  0.00     0.116 A 
HETATM   22  C15 UNK     1      32.924  -7.582  31.847  1.00  0.00     0.043 A 
HETATM   23  F1  UNK     1      31.398  -7.569  30.036  1.00  0.00    -0.206 F 
HETATM   24  C11 UNK     1      33.193  -7.323  33.191  1.00  0.00     0.011 A 
ENDBRANCH   5  18
BRANCH  11  25
HETATM   25  N1  UNK     1      31.396  -3.112  36.749  1.00  0.00    -0.379 N 
HETATM   26  H10 UNK     1      31.799  -2.451  36.098  1.00  0.00     0.158 HD
HETATM   27  H11 UNK     1      30.926  -2.782  37.583  1.00  0.00     0.158 HD
ENDBRANCH  11  25
TORSDOF 2
ENDMDL
MODEL 5
REMARK VINA RESULT:      -7.9     13.013     15.533
REMARK  2 active torsions:
REMARK  status: ('A' for Active; 'I' for Inactive)
REMARK    1  A    between atoms: C8_14  and  N1_5 
REMARK    2  A    between atoms: C1_7  and  C4_10 
ROOT
HETATM    1  O1  UNK     1      20.916  -2.581  15.220  1.00  0.00    -0.291 OA
HETATM    2  O2  UNK     1      22.524  -6.283  16.319  1.00  0.00    -0.274 OA
HETATM    3  O3  UNK     1      21.469  -7.269  14.555  1.00  0.00    -0.259 OA
HETATM    4  N2  UNK     1      18.620  -3.030  11.009  1.00  0.00    -0.191 NA
HETATM    5  C1  UNK     1      20.139  -4.875  13.669  1.00  0.00     0.108 C 
HETATM    6  C2  UNK     1      21.096  -4.939  14.850  1.00  0.00     0.066 A 
HETATM    7  C3  UNK     1      21.406  -3.833  15.542  1.00  0.00     0.104 A 
HETATM    8  C5  UNK     1      19.846  -3.431  13.257  1.00  0.00     0.086 C 
HETATM    9  C6  UNK     1      22.294  -3.890  16.700  1.00  0.00     0.033 A 
HETATM   10  C7  UNK     1      21.692  -6.253  15.205  1.00  0.00     0.298 A 
HETATM   11  C8  UNK     1      20.221  -2.385  14.028  1.00  0.00     0.159 C 
HETATM   12  C9  UNK     1      22.827  -5.125  17.061  1.00  0.00     0.092 A 
HETATM   13  C12 UNK     1      22.638  -2.774  17.471  1.00  0.00     0.017 A 
HETATM   14  C13 UNK     1      23.679  -5.274  18.154  1.00  0.00     0.038 A 
HETATM   15  C16 UNK     1      23.492  -2.906  18.570  1.00  0.00     0.001 A 
HETATM   16  C17 UNK     1      19.169  -3.210  12.016  1.00  0.00     0.100 C 
HETATM   17  C18 UNK     1      24.011  -4.155  18.912  1.00  0.00     0.003 A 
ENDROOT
BRANCH   5  18
HETATM   18  C4  UNK     1      18.861  -5.596  13.983  1.00  0.00    -0.044 A 
HETATM   19  C10 UNK     1      18.366  -6.539  13.091  1.00  0.00     0.011 A 
HETATM   20  C14 UNK     1      17.177  -7.209  13.384  1.00  0.00     0.043 A 
HETATM   21  C19 UNK     1      16.493  -6.931  14.567  1.00  0.00     0.116 A 
HETATM   22  C15 UNK     1      16.998  -5.984  15.458  1.00  0.00     0.043 A 
HETATM   23  F1  UNK     1      15.353  -7.574  14.847  1.00  0.00    -0.206 F 
HETATM   24  C11 UNK     1      18.186  -5.313  15.166  1.00  0.00     0.011 A 
ENDBRANCH   5  18
BRANCH  11  25
HETATM   25  N1  UNK     1      19.979  -1.069  13.744  1.00  0.00    -0.379 N 
HETATM   26  H10 UNK     1      19.666  -0.457  14.488  1.00  0.00     0.158 HD
HETATM   27  H11 UNK     1      20.107  -0.706  12.807  1.00  0.00     0.158 HD
ENDBRANCH  11  25
TORSDOF 2
ENDMDL
MODEL 6
REMARK VINA RESULT:      -7.9     31.583     33.504
REMARK  2 active torsions:
REMARK  status: ('A' for Active; 'I' for Inactive)
REMARK    1  A    between atoms: C8_14  and  N1_5 
REMARK    2  A    between atoms: C1_7  and  C4_10 
ROOT
HETATM    1  O1  UNK     1      28.086  -8.279  34.555  1.00  0.00    -0.291 OA
HETATM    2  O2  UNK     1      30.716  -5.453  32.943  1.00  0.00    -0.274 OA
HETATM    3  O3  UNK     1      32.003  -5.575  34.821  1.00  0.00    -0.259 OA
HETATM    4  N2  UNK     1      29.906  -9.976  38.679  1.00  0.00    -0.191 NA
HETATM    5  C1  UNK     1      30.286  -7.427  36.201  1.00  0.00     0.108 C 
HETATM    6  C2  UNK     1      30.037  -6.911  34.792  1.00  0.00     0.066 A 
HETATM    7  C3  UNK     1      28.983  -7.338  34.081  1.00  0.00     0.104 A 
HETATM    8  C5  UNK     1      29.386  -8.619  36.533  1.00  0.00     0.086 C 
HETATM    9  C6  UNK     1      28.715  -6.822  32.741  1.00  0.00     0.033 A 
HETATM   10  C7  UNK     1      31.001  -5.939  34.215  1.00  0.00     0.298 A 
HETATM   11  C8  UNK     1      28.355  -8.973  35.732  1.00  0.00     0.159 C 
HETATM   12  C9  UNK     1      29.593  -5.882  32.210  1.00  0.00     0.092 A 
HETATM   13  C12 UNK     1      27.621  -7.216  31.962  1.00  0.00     0.017 A 
HETATM   14  C13 UNK     1      29.413  -5.331  30.941  1.00  0.00     0.038 A 
HETATM   15  C16 UNK     1      27.426  -6.674  30.687  1.00  0.00     0.001 A 
HETATM   16  C17 UNK     1      29.673  -9.368  37.718  1.00  0.00     0.100 C 
HETATM   17  C18 UNK     1      28.321  -5.732  30.179  1.00  0.00     0.003 A 
ENDROOT
BRANCH   5  18
HETATM   18  C4  UNK     1      30.089  -6.331  37.207  1.00  0.00    -0.044 A 
HETATM   19  C10 UNK     1      28.808  -5.866  37.476  1.00  0.00     0.011 A 
HETATM   20  C14 UNK     1      28.626  -4.847  38.412  1.00  0.00     0.043 A 
HETATM   21  C19 UNK     1      29.727  -4.302  39.073  1.00  0.00     0.116 A 
HETATM   22  C15 UNK     1      31.010  -4.776  38.798  1.00  0.00     0.043 A 
HETATM   23  F1  UNK     1      29.552  -3.324  39.971  1.00  0.00    -0.206 F 
HETATM   24  C11 UNK     1      31.193  -5.794  37.862  1.00  0.00     0.011 A 
ENDBRANCH   5  18
BRANCH  11  25
HETATM   25  N1  UNK     1      27.493 -10.009  35.968  1.00  0.00    -0.379 N 
HETATM   26  H10 UNK     1      26.501  -9.862  35.825  1.00  0.00     0.158 HD
HETATM   27  H11 UNK     1      27.834 -10.909  36.283  1.00  0.00     0.158 HD
ENDBRANCH  11  25
TORSDOF 2
ENDMDL
MODEL 7
REMARK VINA RESULT:      -7.7     30.923     32.577
REMARK  2 active torsions:
REMARK  status: ('A' for Active; 'I' for Inactive)
REMARK    1  A    between atoms: C8_14  and  N1_5 
REMARK    2  A    between atoms: C1_7  and  C4_10 
ROOT
HETATM    1  O1  UNK     1      31.498  -6.034  34.951  1.00  0.00    -0.291 OA
HETATM    2  O2  UNK     1      28.042  -7.316  36.930  1.00  0.00    -0.274 OA
HETATM    3  O3  UNK     1      27.736  -8.934  35.353  1.00  0.00    -0.259 OA
HETATM    4  N2  UNK     1      32.491  -9.075  31.350  1.00  0.00    -0.191 NA
HETATM    5  C1  UNK     1      29.993  -8.166  33.741  1.00  0.00     0.108 C 
HETATM    6  C2  UNK     1      29.602  -7.493  35.048  1.00  0.00     0.066 A 
HETATM    7  C3  UNK     1      30.340  -6.493  35.553  1.00  0.00     0.104 A 
HETATM    8  C5  UNK     1      31.394  -7.750  33.289  1.00  0.00     0.086 C 
HETATM    9  C6  UNK     1      29.954  -5.817  36.788  1.00  0.00     0.033 A 
HETATM   10  C7  UNK     1      28.396  -7.985  35.763  1.00  0.00     0.298 A 
HETATM   11  C8  UNK     1      32.057  -6.730  33.882  1.00  0.00     0.159 C 
HETATM   12  C9  UNK     1      28.804  -6.248  37.443  1.00  0.00     0.092 A 
HETATM   13  C12 UNK     1      30.673  -4.756  37.350  1.00  0.00     0.017 A 
HETATM   14  C13 UNK     1      28.356  -5.658  38.625  1.00  0.00     0.038 A 
HETATM   15  C16 UNK     1      30.239  -4.154  38.535  1.00  0.00     0.001 A 
HETATM   16  C17 UNK     1      32.000  -8.481  32.218  1.00  0.00     0.100 C 
HETATM   17  C18 UNK     1      29.082  -4.604  39.171  1.00  0.00     0.003 A 
ENDROOT
BRANCH   5  18
HETATM   18  C4  UNK     1      28.988  -7.860  32.669  1.00  0.00    -0.044 A 
HETATM   19  C10 UNK     1      28.492  -6.569  32.539  1.00  0.00     0.011 A 
HETATM   20  C14 UNK     1      27.558  -6.286  31.542  1.00  0.00     0.043 A 
HETATM   21  C19 UNK     1      27.127  -7.296  30.681  1.00  0.00     0.116 A 
HETATM   22  C15 UNK     1      27.631  -8.590  30.818  1.00  0.00     0.043 A 
HETATM   23  F1  UNK     1      26.231  -7.024  29.725  1.00  0.00    -0.206 F 
HETATM   24  C11 UNK     1      28.564  -8.874  31.815  1.00  0.00     0.011 A 
ENDBRANCH   5  18
BRANCH  11  25
HETATM   25  N1  UNK     1      33.299  -6.284  33.524  1.00  0.00    -0.379 N 
HETATM   26  H10 UNK     1      33.403  -5.326  33.212  1.00  0.00     0.158 HD
HETATM   27  H11 UNK     1      34.105  -6.895  33.566  1.00  0.00     0.158 HD
ENDBRANCH  11  25
TORSDOF 2
ENDMDL
MODEL 8
REMARK VINA RESULT:      -7.7     30.148     32.003
REMARK  2 active torsions:
REMARK  status: ('A' for Active; 'I' for Inactive)
REMARK    1  A    between atoms: C8_14  and  N1_5 
REMARK    2  A    between atoms: C1_7  and  C4_10 
ROOT
HETATM    1  O1  UNK     1      33.213  -7.019  31.492  1.00  0.00    -0.291 OA
HETATM    2  O2  UNK     1      31.233  -8.393  34.911  1.00  0.00    -0.274 OA
HETATM    3  O3  UNK     1      29.811  -9.605  33.604  1.00  0.00    -0.259 OA
HETATM    4  N2  UNK     1      31.472  -9.295  27.621  1.00  0.00    -0.191 NA
HETATM    5  C1  UNK     1      30.916  -8.706  31.103  1.00  0.00     0.108 C 
HETATM    6  C2  UNK     1      31.442  -8.298  32.471  1.00  0.00     0.066 A 
HETATM    7  C3  UNK     1      32.511  -7.496  32.584  1.00  0.00     0.104 A 
HETATM    8  C5  UNK     1      31.891  -8.325  29.988  1.00  0.00     0.086 C 
HETATM    9  C6  UNK     1      33.001  -7.068  33.892  1.00  0.00     0.033 A 
HETATM   10  C7  UNK     1      30.755  -8.825  33.679  1.00  0.00     0.298 A 
HETATM   11  C8  UNK     1      32.951  -7.517  30.218  1.00  0.00     0.159 C 
HETATM   12  C9  UNK     1      32.338  -7.529  35.026  1.00  0.00     0.092 A 
HETATM   13  C12 UNK     1      34.098  -6.217  34.070  1.00  0.00     0.017 A 
HETATM   14  C13 UNK     1      32.733  -7.169  36.314  1.00  0.00     0.038 A 
HETATM   15  C16 UNK     1      34.508  -5.847  35.355  1.00  0.00     0.001 A 
HETATM   16  C17 UNK     1      31.659  -8.860  28.680  1.00  0.00     0.100 C 
HETATM   17  C18 UNK     1      33.825  -6.322  36.475  1.00  0.00     0.003 A 
ENDROOT
BRANCH   5  18
HETATM   18  C4  UNK     1      29.570  -8.094  30.850  1.00  0.00    -0.044 A 
HETATM   19  C10 UNK     1      28.486  -8.913  30.560  1.00  0.00     0.011 A 
HETATM   20  C14 UNK     1      27.234  -8.343  30.324  1.00  0.00     0.043 A 
HETATM   21  C19 UNK     1      27.076  -6.959  30.381  1.00  0.00     0.116 A 
HETATM   22  C15 UNK     1      28.169  -6.144  30.673  1.00  0.00     0.043 A 
HETATM   23  F1  UNK     1      25.875  -6.413  30.154  1.00  0.00    -0.206 F 
HETATM   24  C11 UNK     1      29.421  -6.712  30.909  1.00  0.00     0.011 A 
ENDBRANCH   5  18
BRANCH  11  25
HETATM   25  N1  UNK     1      33.854  -7.113  29.273  1.00  0.00    -0.379 N 
HETATM   26  H10 UNK     1      34.274  -7.808  28.669  1.00  0.00     0.158 HD
HETATM   27  H11 UNK     1      34.104  -6.136  29.176  1.00  0.00     0.158 HD
ENDBRANCH  11  25
TORSDOF 2
ENDMDL
MODEL 9
REMARK VINA RESULT:      -7.6     32.555     34.483
REMARK  2 active torsions:
REMARK  status: ('A' for Active; 'I' for Inactive)
REMARK    1  A    between atoms: C8_14  and  N1_5 
REMARK    2  A    between atoms: C1_7  and  C4_10 
ROOT
HETATM    1  O1  UNK     1      28.616  -8.307  35.053  1.00  0.00    -0.291 OA
HETATM    2  O2  UNK     1      28.915  -6.455  38.792  1.00  0.00    -0.274 OA
HETATM    3  O3  UNK     1      29.994  -4.689  37.835  1.00  0.00    -0.259 OA
HETATM    4  N2  UNK     1      30.192  -5.285  31.650  1.00  0.00    -0.191 NA
HETATM    5  C1  UNK     1      30.033  -5.807  35.183  1.00  0.00     0.108 C 
HETATM    6  C2  UNK     1      29.392  -6.478  36.389  1.00  0.00     0.066 A 
HETATM    7  C3  UNK     1      28.757  -7.653  36.264  1.00  0.00     0.104 A 
HETATM    8  C5  UNK     1      29.621  -6.484  33.875  1.00  0.00     0.086 C 
HETATM    9  C6  UNK     1      28.171  -8.323  37.421  1.00  0.00     0.033 A 
HETATM   10  C7  UNK     1      29.469  -5.790  37.704  1.00  0.00     0.298 A 
HETATM   11  C8  UNK     1      28.966  -7.668  33.865  1.00  0.00     0.159 C 
HETATM   12  C9  UNK     1      28.273  -7.701  38.662  1.00  0.00     0.092 A 
HETATM   13  C12 UNK     1      27.515  -9.557  37.354  1.00  0.00     0.017 A 
HETATM   14  C13 UNK     1      27.747  -8.270  39.822  1.00  0.00     0.038 A 
HETATM   15  C16 UNK     1      26.981 -10.141  38.507  1.00  0.00     0.001 A 
HETATM   16  C17 UNK     1      29.937  -5.822  32.646  1.00  0.00     0.100 C 
HETATM   17  C18 UNK     1      27.098  -9.498  39.740  1.00  0.00     0.003 A 
ENDROOT
BRANCH   5  18
HETATM   18  C4  UNK     1      31.528  -5.797  35.315  1.00  0.00    -0.044 A 
HETATM   19  C10 UNK     1      32.205  -6.989  35.543  1.00  0.00     0.011 A 
HETATM   20  C14 UNK     1      33.595  -6.979  35.666  1.00  0.00     0.043 A 
HETATM   21  C19 UNK     1      34.297  -5.778  35.559  1.00  0.00     0.116 A 
HETATM   22  C15 UNK     1      33.609  -4.587  35.330  1.00  0.00     0.043 A 
HETATM   23  F1  UNK     1      35.630  -5.770  35.678  1.00  0.00    -0.206 F 
HETATM   24  C11 UNK     1      32.219  -4.595  35.207  1.00  0.00     0.011 A 
ENDBRANCH   5  18
BRANCH  11  25
HETATM   25  N1  UNK     1      28.583  -8.348  32.742  1.00  0.00    -0.379 N 
HETATM   26  H10 UNK     1      28.928  -9.289  32.599  1.00  0.00     0.158 HD
HETATM   27  H11 UNK     1      27.966  -7.923  32.061  1.00  0.00     0.158 HD
ENDBRANCH  11  25
TORSDOF 2
ENDMDL
MODEL 10
REMARK VINA RESULT:      -7.6     31.644     33.352
REMARK  2 active torsions:
REMARK  status: ('A' for Active; 'I' for Inactive)
REMARK    1  A    between atoms: C8_14  and  N1_5 
REMARK    2  A    between atoms: C1_7  and  C4_10 
ROOT
HETATM    1  O1  UNK     1      32.416  -4.795  35.666  1.00  0.00    -0.291 OA
HETATM    2  O2  UNK     1      29.462  -7.666  36.397  1.00  0.00    -0.274 OA
HETATM    3  O3  UNK     1      30.382  -9.021  34.812  1.00  0.00    -0.259 OA
HETATM    4  N2  UNK     1      35.664  -6.600  32.601  1.00  0.00    -0.191 NA
HETATM    5  C1  UNK     1      32.436  -7.162  34.032  1.00  0.00     0.108 C 
HETATM    6  C2  UNK     1      31.422  -6.908  35.136  1.00  0.00     0.066 A 
HETATM    7  C3  UNK     1      31.458  -5.775  35.854  1.00  0.00     0.104 A 
HETATM    8  C5  UNK     1      33.576  -6.142  34.066  1.00  0.00     0.086 C 
HETATM    9  C6  UNK     1      30.466  -5.505  36.891  1.00  0.00     0.033 A 
HETATM   10  C7  UNK     1      30.403  -7.953  35.414  1.00  0.00     0.298 A 
HETATM   11  C8  UNK     1      33.514  -5.036  34.842  1.00  0.00     0.159 C 
HETATM   12  C9  UNK     1      29.486  -6.464  37.130  1.00  0.00     0.092 A 
HETATM   13  C12 UNK     1      30.443  -4.334  37.656  1.00  0.00     0.017 A 
HETATM   14  C13 UNK     1      28.497  -6.288  38.098  1.00  0.00     0.038 A 
HETATM   15  C16 UNK     1      29.459  -4.142  38.631  1.00  0.00     0.001 A 
HETATM   16  C17 UNK     1      34.729  -6.395  33.256  1.00  0.00     0.100 C 
HETATM   17  C18 UNK     1      28.486  -5.118  38.850  1.00  0.00     0.003 A 
ENDROOT
BRANCH   5  18
HETATM   18  C4  UNK     1      31.769  -7.152  32.688  1.00  0.00    -0.044 A 
HETATM   19  C10 UNK     1      32.012  -8.186  31.791  1.00  0.00     0.011 A 
HETATM   20  C14 UNK     1      31.392  -8.175  30.542  1.00  0.00     0.043 A 
HETATM   21  C19 UNK     1      30.531  -7.132  30.198  1.00  0.00     0.116 A 
HETATM   22  C15 UNK     1      30.292  -6.099  31.104  1.00  0.00     0.043 A 
HETATM   23  F1  UNK     1      29.936  -7.123  28.999  1.00  0.00    -0.206 F 
HETATM   24  C11 UNK     1      30.913  -6.109  32.353  1.00  0.00     0.011 A 
ENDBRANCH   5  18
BRANCH  11  25
HETATM   25  N1  UNK     1      34.477  -4.068  34.913  1.00  0.00    -0.379 N 
HETATM   26  H10 UNK     1      35.371  -4.235  34.468  1.00  0.00     0.158 HD
HETATM   27  H11 UNK     1      34.307  -3.198  35.402  1.00  0.00     0.158 HD
ENDBRANCH  11  25
TORSDOF 2
ENDMDL
