MODEL 1
REMARK VINA RESULT:      -9.5      0.000      0.000
REMARK  9 active torsions:
REMARK  status: ('A' for Active; 'I' for Inactive)
REMARK    1  A    between atoms: C2_11  and  O1_1 
REMARK    2  A    between atoms: C3_12  and  O1_1 
REMARK    3  A    between atoms: C12_21  and  O2_2 
REMARK    4  A    between atoms: C5_14  and  O2_2 
REMARK    5  A    between atoms: C15_24  and  N1_7 
REMARK    6  A    between atoms: C20_29  and  N2_8 
REMARK    7  A    between atoms: C1_10  and  C7_16 
REMARK    8  A    between atoms: C3_12  and  C5_14 
REMARK    9  A    between atoms: C6_15  and  C8_17 
ROOT
HETATM    1  N3  UNK     1      20.336   5.819  29.711  1.00  0.00    -0.191 NA
HETATM    2  C7  UNK     1      17.948   4.177  31.580  1.00  0.00     0.035 C 
HETATM    3  C8  UNK     1      18.445   5.436  31.455  1.00  0.00     0.055 C 
HETATM    4  C23 UNK     1      19.492   5.639  30.488  1.00  0.00     0.100 C 
ENDROOT
BRANCH   3   5
HETATM    5  C6  UNK     1      17.975   6.573  32.231  1.00  0.00    -0.015 A 
HETATM    6  C13 UNK     1      16.639   6.967  32.153  1.00  0.00     0.015 A 
HETATM    7  C16 UNK     1      16.189   8.056  32.900  1.00  0.00     0.037 A 
HETATM    8  C15 UNK     1      17.074   8.751  33.724  1.00  0.00     0.102 A 
HETATM    9  C17 UNK     1      18.410   8.356  33.803  1.00  0.00     0.037 A 
HETATM   10  C14 UNK     1      18.860   7.267  33.056  1.00  0.00     0.015 A 
BRANCH   8  11
HETATM   11  N1  UNK     1      16.616   9.858  34.484  1.00  0.00    -0.116 N 
HETATM   12  O3  UNK     1      15.714   9.679  35.338  1.00  0.00    -0.532 OA
HETATM   13  O4  UNK     1      17.124  10.988  34.281  1.00  0.00    -0.532 OA
ENDBRANCH   8  11
ENDBRANCH   3   5
BRANCH   2  14
HETATM   14  C1  UNK     1      18.388   3.002  30.813  1.00  0.00    -0.032 A 
HETATM   15  C9  UNK     1      17.938   2.831  29.512  1.00  0.00     0.011 A 
HETATM   16  C11 UNK     1      18.355   1.718  28.782  1.00  0.00     0.004 A 
HETATM   17  C10 UNK     1      19.217   0.787  29.362  1.00  0.00     0.037 A 
HETATM   18  C2  UNK     1      19.663   0.971  30.671  1.00  0.00     0.069 A 
HETATM   19  C4  UNK     1      19.246   2.085  31.401  1.00  0.00     0.048 A 
BRANCH  18  20
HETATM   20  O1  UNK     1      20.505   0.064  31.238  1.00  0.00    -0.349 OA
BRANCH  20  21
HETATM   21  C3  UNK     1      20.118  -1.309  31.173  1.00  0.00     0.202 C 
BRANCH  21  22
HETATM   22  C5  UNK     1      18.991  -1.551  32.157  1.00  0.00     0.202 C 
BRANCH  22  23
HETATM   23  O2  UNK     1      19.541  -1.762  33.452  1.00  0.00    -0.349 OA
BRANCH  23  24
HETATM   24  C12 UNK     1      18.993  -1.043  34.481  1.00  0.00     0.069 A 
HETATM   25  C18 UNK     1      19.092  -1.521  35.783  1.00  0.00     0.039 A 
HETATM   26  C21 UNK     1      18.536  -0.789  36.832  1.00  0.00     0.039 A 
HETATM   27  C20 UNK     1      17.884   0.417  36.571  1.00  0.00     0.103 A 
HETATM   28  C22 UNK     1      17.788   0.889  35.263  1.00  0.00     0.039 A 
HETATM   29  C19 UNK     1      18.345   0.157  34.214  1.00  0.00     0.039 A 
BRANCH  27  30
HETATM   30  N2  UNK     1      17.314   1.161  37.639  1.00  0.00    -0.116 N 
HETATM   31  O5  UNK     1      16.249   1.791  37.439  1.00  0.00    -0.532 OA
HETATM   32  O6  UNK     1      17.892   1.165  38.753  1.00  0.00    -0.532 OA
ENDBRANCH  27  30
ENDBRANCH  23  24
ENDBRANCH  22  23
ENDBRANCH  21  22
ENDBRANCH  20  21
ENDBRANCH  18  20
ENDBRANCH   2  14
TORSDOF 9
ENDMDL
MODEL 2
REMARK VINA RESULT:      -8.9      4.083     11.076
REMARK  9 active torsions:
REMARK  status: ('A' for Active; 'I' for Inactive)
REMARK    1  A    between atoms: C2_11  and  O1_1 
REMARK    2  A    between atoms: C3_12  and  O1_1 
REMARK    3  A    between atoms: C12_21  and  O2_2 
REMARK    4  A    between atoms: C5_14  and  O2_2 
REMARK    5  A    between atoms: C15_24  and  N1_7 
REMARK    6  A    between atoms: C20_29  and  N2_8 
REMARK    7  A    between atoms: C1_10  and  C7_16 
REMARK    8  A    between atoms: C3_12  and  C5_14 
REMARK    9  A    between atoms: C6_15  and  C8_17 
ROOT
HETATM    1  N3  UNK     1      21.477  -1.605  35.568  1.00  0.00    -0.191 NA
HETATM    2  C7  UNK     1      18.503  -2.909  36.730  1.00  0.00     0.035 C 
HETATM    3  C8  UNK     1      19.741  -3.357  36.391  1.00  0.00     0.055 C 
HETATM    4  C23 UNK     1      20.695  -2.381  35.936  1.00  0.00     0.100 C 
ENDROOT
BRANCH   3   5
HETATM    5  C6  UNK     1      20.146  -4.752  36.472  1.00  0.00    -0.015 A 
HETATM    6  C13 UNK     1      20.862  -5.208  37.579  1.00  0.00     0.015 A 
HETATM    7  C16 UNK     1      21.248  -6.546  37.657  1.00  0.00     0.037 A 
HETATM    8  C15 UNK     1      20.918  -7.428  36.627  1.00  0.00     0.102 A 
HETATM    9  C17 UNK     1      20.202  -6.973  35.520  1.00  0.00     0.037 A 
HETATM   10  C14 UNK     1      19.816  -5.634  35.443  1.00  0.00     0.015 A 
BRANCH   8  11
HETATM   11  N1  UNK     1      21.311  -8.790  36.706  1.00  0.00    -0.116 N 
HETATM   12  O3  UNK     1      20.470  -9.646  37.075  1.00  0.00    -0.532 OA
HETATM   13  O4  UNK     1      22.488  -9.103  36.406  1.00  0.00    -0.532 OA
ENDBRANCH   8  11
ENDBRANCH   3   5
BRANCH   2  14
HETATM   14  C1  UNK     1      18.053  -1.510  36.670  1.00  0.00    -0.032 A 
HETATM   15  C9  UNK     1      17.928  -0.784  37.846  1.00  0.00     0.011 A 
HETATM   16  C11 UNK     1      17.503   0.543  37.790  1.00  0.00     0.004 A 
HETATM   17  C10 UNK     1      17.206   1.130  36.560  1.00  0.00     0.037 A 
HETATM   18  C2  UNK     1      17.336   0.389  35.385  1.00  0.00     0.069 A 
HETATM   19  C4  UNK     1      17.762  -0.938  35.440  1.00  0.00     0.048 A 
BRANCH  18  20
HETATM   20  O1  UNK     1      17.048   0.962  34.184  1.00  0.00    -0.349 OA
BRANCH  20  21
HETATM   21  C3  UNK     1      18.135   1.544  33.465  1.00  0.00     0.202 C 
BRANCH  21  22
HETATM   22  C5  UNK     1      18.324   2.975  33.928  1.00  0.00     0.202 C 
BRANCH  22  23
HETATM   23  O2  UNK     1      17.861   3.857  32.912  1.00  0.00    -0.349 OA
BRANCH  23  24
HETATM   24  C12 UNK     1      18.047   5.197  33.125  1.00  0.00     0.069 A 
HETATM   25  C18 UNK     1      17.080   6.102  32.700  1.00  0.00     0.039 A 
HETATM   26  C21 UNK     1      17.268   7.466  32.918  1.00  0.00     0.039 A 
HETATM   27  C20 UNK     1      18.420   7.918  33.561  1.00  0.00     0.103 A 
HETATM   28  C22 UNK     1      19.386   7.005  33.984  1.00  0.00     0.039 A 
HETATM   29  C19 UNK     1      19.198   5.640  33.766  1.00  0.00     0.039 A 
BRANCH  27  30
HETATM   30  N2  UNK     1      18.613   9.308  33.780  1.00  0.00    -0.116 N 
HETATM   31  O5  UNK     1      19.646   9.691  34.380  1.00  0.00    -0.532 OA
HETATM   32  O6  UNK     1      17.745  10.114  33.367  1.00  0.00    -0.532 OA
ENDBRANCH  27  30
ENDBRANCH  23  24
ENDBRANCH  22  23
ENDBRANCH  21  22
ENDBRANCH  20  21
ENDBRANCH  18  20
ENDBRANCH   2  14
TORSDOF 9
ENDMDL
MODEL 3
REMARK VINA RESULT:      -8.7      4.048     10.422
REMARK  9 active torsions:
REMARK  status: ('A' for Active; 'I' for Inactive)
REMARK    1  A    between atoms: C2_11  and  O1_1 
REMARK    2  A    between atoms: C3_12  and  O1_1 
REMARK    3  A    between atoms: C12_21  and  O2_2 
REMARK    4  A    between atoms: C5_14  and  O2_2 
REMARK    5  A    between atoms: C15_24  and  N1_7 
REMARK    6  A    between atoms: C20_29  and  N2_8 
REMARK    7  A    between atoms: C1_10  and  C7_16 
REMARK    8  A    between atoms: C3_12  and  C5_14 
REMARK    9  A    between atoms: C6_15  and  C8_17 
ROOT
HETATM    1  N3  UNK     1      22.117  -1.870  35.221  1.00  0.00    -0.191 NA
HETATM    2  C7  UNK     1      18.839  -2.352  36.179  1.00  0.00     0.035 C 
HETATM    3  C8  UNK     1      20.026  -3.009  36.267  1.00  0.00     0.055 C 
HETATM    4  C23 UNK     1      21.178  -2.371  35.686  1.00  0.00     0.100 C 
ENDROOT
BRANCH   3   5
HETATM    5  C6  UNK     1      20.190  -4.301  36.916  1.00  0.00    -0.015 A 
HETATM    6  C13 UNK     1      21.311  -4.547  37.709  1.00  0.00     0.015 A 
HETATM    7  C16 UNK     1      21.465  -5.784  38.333  1.00  0.00     0.037 A 
HETATM    8  C15 UNK     1      20.499  -6.777  38.163  1.00  0.00     0.102 A 
HETATM    9  C17 UNK     1      19.378  -6.531  37.370  1.00  0.00     0.037 A 
HETATM   10  C14 UNK     1      19.224  -5.292  36.747  1.00  0.00     0.015 A 
BRANCH   8  11
HETATM   11  N1  UNK     1      20.656  -8.037  38.798  1.00  0.00    -0.116 N 
HETATM   12  O3  UNK     1      19.699  -8.509  39.458  1.00  0.00    -0.532 OA
HETATM   13  O4  UNK     1      21.748  -8.644  38.683  1.00  0.00    -0.532 OA
ENDBRANCH   8  11
ENDBRANCH   3   5
BRANCH   2  14
HETATM   14  C1  UNK     1      18.629  -1.045  35.540  1.00  0.00    -0.032 A 
HETATM   15  C9  UNK     1      18.534   0.092  36.329  1.00  0.00     0.011 A 
HETATM   16  C11 UNK     1      18.337   1.333  35.724  1.00  0.00     0.004 A 
HETATM   17  C10 UNK     1      18.235   1.424  34.336  1.00  0.00     0.037 A 
HETATM   18  C2  UNK     1      18.332   0.273  33.553  1.00  0.00     0.069 A 
HETATM   19  C4  UNK     1      18.531  -0.968  34.159  1.00  0.00     0.048 A 
BRANCH  18  20
HETATM   20  O1  UNK     1      18.234   0.361  32.198  1.00  0.00    -0.349 OA
BRANCH  20  21
HETATM   21  C3  UNK     1      19.418   0.714  31.483  1.00  0.00     0.202 C 
BRANCH  21  22
HETATM   22  C5  UNK     1      19.030   1.479  30.233  1.00  0.00     0.202 C 
BRANCH  22  23
HETATM   23  O2  UNK     1      17.976   2.381  30.548  1.00  0.00    -0.349 OA
BRANCH  23  24
HETATM   24  C12 UNK     1      18.333   3.569  31.130  1.00  0.00     0.069 A 
HETATM   25  C18 UNK     1      19.132   4.466  30.429  1.00  0.00     0.039 A 
HETATM   26  C21 UNK     1      19.494   5.676  31.020  1.00  0.00     0.039 A 
HETATM   27  C20 UNK     1      19.055   5.981  32.309  1.00  0.00     0.103 A 
HETATM   28  C22 UNK     1      18.254   5.076  33.006  1.00  0.00     0.039 A 
HETATM   29  C19 UNK     1      17.892   3.867  32.414  1.00  0.00     0.039 A 
BRANCH  27  30
HETATM   30  N2  UNK     1      19.426   7.212  32.912  1.00  0.00    -0.116 N 
HETATM   31  O5  UNK     1      20.600   7.354  33.331  1.00  0.00    -0.532 OA
HETATM   32  O6  UNK     1      18.570   8.124  33.008  1.00  0.00    -0.532 OA
ENDBRANCH  27  30
ENDBRANCH  23  24
ENDBRANCH  22  23
ENDBRANCH  21  22
ENDBRANCH  20  21
ENDBRANCH  18  20
ENDBRANCH   2  14
TORSDOF 9
ENDMDL
MODEL 4
REMARK VINA RESULT:      -8.5     21.732     25.200
REMARK  9 active torsions:
REMARK  status: ('A' for Active; 'I' for Inactive)
REMARK    1  A    between atoms: C2_11  and  O1_1 
REMARK    2  A    between atoms: C3_12  and  O1_1 
REMARK    3  A    between atoms: C12_21  and  O2_2 
REMARK    4  A    between atoms: C5_14  and  O2_2 
REMARK    5  A    between atoms: C15_24  and  N1_7 
REMARK    6  A    between atoms: C20_29  and  N2_8 
REMARK    7  A    between atoms: C1_10  and  C7_16 
REMARK    8  A    between atoms: C3_12  and  C5_14 
REMARK    9  A    between atoms: C6_15  and  C8_17 
ROOT
HETATM    1  N3  UNK     1       4.355   3.312  10.964  1.00  0.00    -0.191 NA
HETATM    2  C7  UNK     1       6.299   5.397  12.904  1.00  0.00     0.035 C 
HETATM    3  C8  UNK     1       5.545   4.278  13.065  1.00  0.00     0.055 C 
HETATM    4  C23 UNK     1       4.890   3.751  11.897  1.00  0.00     0.100 C 
ENDROOT
BRANCH   3   5
HETATM    5  C6  UNK     1       5.375   3.592  14.336  1.00  0.00    -0.015 A 
HETATM    6  C13 UNK     1       5.304   4.325  15.521  1.00  0.00     0.015 A 
HETATM    7  C16 UNK     1       5.139   3.666  16.739  1.00  0.00     0.037 A 
HETATM    8  C15 UNK     1       5.046   2.274  16.773  1.00  0.00     0.102 A 
HETATM    9  C17 UNK     1       5.116   1.541  15.589  1.00  0.00     0.037 A 
HETATM   10  C14 UNK     1       5.281   2.201  14.370  1.00  0.00     0.015 A 
BRANCH   8  11
HETATM   11  N1  UNK     1       4.878   1.604  18.013  1.00  0.00    -0.116 N 
HETATM   12  O3  UNK     1       3.717   1.336  18.408  1.00  0.00    -0.532 OA
HETATM   13  O4  UNK     1       5.894   1.298  18.682  1.00  0.00    -0.532 OA
ENDBRANCH   8  11
ENDBRANCH   3   5
BRANCH   2  14
HETATM   14  C1  UNK     1       6.504   6.118  11.639  1.00  0.00    -0.032 A 
HETATM   15  C9  UNK     1       5.768   7.266  11.382  1.00  0.00     0.011 A 
HETATM   16  C11 UNK     1       5.963   7.951  10.183  1.00  0.00     0.004 A 
HETATM   17  C10 UNK     1       6.890   7.480   9.253  1.00  0.00     0.037 A 
HETATM   18  C2  UNK     1       7.623   6.325   9.524  1.00  0.00     0.069 A 
HETATM   19  C4  UNK     1       7.429   5.640  10.723  1.00  0.00     0.048 A 
BRANCH  18  20
HETATM   20  O1  UNK     1       8.529   5.865   8.617  1.00  0.00    -0.349 OA
BRANCH  20  21
HETATM   21  C3  UNK     1       9.042   6.809   7.676  1.00  0.00     0.202 C 
BRANCH  21  22
HETATM   22  C5  UNK     1       9.714   6.061   6.542  1.00  0.00     0.202 C 
BRANCH  22  23
HETATM   23  O2  UNK     1      10.979   6.655   6.279  1.00  0.00    -0.349 OA
BRANCH  23  24
HETATM   24  C12 UNK     1      11.991   6.367   7.157  1.00  0.00     0.069 A 
HETATM   25  C18 UNK     1      12.114   5.079   7.667  1.00  0.00     0.039 A 
HETATM   26  C21 UNK     1      13.145   4.785   8.559  1.00  0.00     0.039 A 
HETATM   27  C20 UNK     1      14.046   5.781   8.936  1.00  0.00     0.103 A 
HETATM   28  C22 UNK     1      13.915   7.071   8.421  1.00  0.00     0.039 A 
HETATM   29  C19 UNK     1      12.885   7.365   7.529  1.00  0.00     0.039 A 
BRANCH  27  30
HETATM   30  N2  UNK     1      15.093   5.483   9.848  1.00  0.00    -0.116 N 
HETATM   31  O5  UNK     1      15.263   6.228  10.842  1.00  0.00    -0.532 OA
HETATM   32  O6  UNK     1      15.818   4.482   9.634  1.00  0.00    -0.532 OA
ENDBRANCH  27  30
ENDBRANCH  23  24
ENDBRANCH  22  23
ENDBRANCH  21  22
ENDBRANCH  20  21
ENDBRANCH  18  20
ENDBRANCH   2  14
TORSDOF 9
ENDMDL
MODEL 5
REMARK VINA RESULT:      -8.4      8.155     11.900
REMARK  9 active torsions:
REMARK  status: ('A' for Active; 'I' for Inactive)
REMARK    1  A    between atoms: C2_11  and  O1_1 
REMARK    2  A    between atoms: C3_12  and  O1_1 
REMARK    3  A    between atoms: C12_21  and  O2_2 
REMARK    4  A    between atoms: C5_14  and  O2_2 
REMARK    5  A    between atoms: C15_24  and  N1_7 
REMARK    6  A    between atoms: C20_29  and  N2_8 
REMARK    7  A    between atoms: C1_10  and  C7_16 
REMARK    8  A    between atoms: C3_12  and  C5_14 
REMARK    9  A    between atoms: C6_15  and  C8_17 
ROOT
HETATM    1  N3  UNK     1      20.174  -6.243  34.920  1.00  0.00    -0.191 NA
HETATM    2  C7  UNK     1      20.408  -4.264  37.735  1.00  0.00     0.035 C 
HETATM    3  C8  UNK     1      19.978  -4.150  36.450  1.00  0.00     0.055 C 
HETATM    4  C23 UNK     1      20.091  -5.313  35.610  1.00  0.00     0.100 C 
ENDROOT
BRANCH   3   5
HETATM    5  C6  UNK     1      19.410  -2.932  35.892  1.00  0.00    -0.015 A 
HETATM    6  C13 UNK     1      18.434  -2.229  36.599  1.00  0.00     0.015 A 
HETATM    7  C16 UNK     1      17.893  -1.060  36.065  1.00  0.00     0.037 A 
HETATM    8  C15 UNK     1      18.326  -0.594  34.823  1.00  0.00     0.102 A 
HETATM    9  C17 UNK     1      19.302  -1.297  34.116  1.00  0.00     0.037 A 
HETATM   10  C14 UNK     1      19.844  -2.466  34.651  1.00  0.00     0.015 A 
BRANCH   8  11
HETATM   11  N1  UNK     1      17.775   0.595  34.278  1.00  0.00    -0.116 N 
HETATM   12  O3  UNK     1      18.551   1.492  33.865  1.00  0.00    -0.532 OA
HETATM   13  O4  UNK     1      16.528   0.720  34.227  1.00  0.00    -0.532 OA
ENDBRANCH   8  11
ENDBRANCH   3   5
BRANCH   2  14
HETATM   14  C1  UNK     1      20.981  -5.475  38.341  1.00  0.00    -0.032 A 
HETATM   15  C9  UNK     1      20.133  -6.448  38.851  1.00  0.00     0.011 A 
HETATM   16  C11 UNK     1      20.675  -7.597  39.425  1.00  0.00     0.004 A 
HETATM   17  C10 UNK     1      22.059  -7.762  39.484  1.00  0.00     0.037 A 
HETATM   18  C2  UNK     1      22.900  -6.777  38.968  1.00  0.00     0.069 A 
HETATM   19  C4  UNK     1      22.359  -5.627  38.393  1.00  0.00     0.048 A 
BRANCH  18  20
HETATM   20  O1  UNK     1      24.251  -6.937  39.024  1.00  0.00    -0.349 OA
BRANCH  20  21
HETATM   21  C3  UNK     1      24.767  -8.221  38.674  1.00  0.00     0.202 C 
BRANCH  21  22
HETATM   22  C5  UNK     1      26.276  -8.130  38.551  1.00  0.00     0.202 C 
BRANCH  22  23
HETATM   23  O2  UNK     1      26.603  -7.251  37.482  1.00  0.00    -0.349 OA
BRANCH  23  24
HETATM   24  C12 UNK     1      27.818  -6.622  37.548  1.00  0.00     0.069 A 
HETATM   25  C18 UNK     1      28.162  -5.912  38.694  1.00  0.00     0.039 A 
HETATM   26  C21 UNK     1      29.400  -5.272  38.763  1.00  0.00     0.039 A 
HETATM   27  C20 UNK     1      30.285  -5.347  37.688  1.00  0.00     0.103 A 
HETATM   28  C22 UNK     1      29.932  -6.061  36.543  1.00  0.00     0.039 A 
HETATM   29  C19 UNK     1      28.695  -6.700  36.473  1.00  0.00     0.039 A 
BRANCH  27  30
HETATM   30  N2  UNK     1      31.544  -4.693  37.757  1.00  0.00    -0.116 N 
HETATM   31  O5  UNK     1      31.780  -3.745  36.970  1.00  0.00    -0.532 OA
HETATM   32  O6  UNK     1      32.384  -5.080  38.605  1.00  0.00    -0.532 OA
ENDBRANCH  27  30
ENDBRANCH  23  24
ENDBRANCH  22  23
ENDBRANCH  21  22
ENDBRANCH  20  21
ENDBRANCH  18  20
ENDBRANCH   2  14
TORSDOF 9
ENDMDL
MODEL 6
REMARK VINA RESULT:      -8.4      8.507     14.407
REMARK  9 active torsions:
REMARK  status: ('A' for Active; 'I' for Inactive)
REMARK    1  A    between atoms: C2_11  and  O1_1 
REMARK    2  A    between atoms: C3_12  and  O1_1 
REMARK    3  A    between atoms: C12_21  and  O2_2 
REMARK    4  A    between atoms: C5_14  and  O2_2 
REMARK    5  A    between atoms: C15_24  and  N1_7 
REMARK    6  A    between atoms: C20_29  and  N2_8 
REMARK    7  A    between atoms: C1_10  and  C7_16 
REMARK    8  A    between atoms: C3_12  and  C5_14 
REMARK    9  A    between atoms: C6_15  and  C8_17 
ROOT
HETATM    1  N3  UNK     1      23.273  -9.648  36.233  1.00  0.00    -0.191 NA
HETATM    2  C7  UNK     1      23.963  -7.857  39.098  1.00  0.00     0.035 C 
HETATM    3  C8  UNK     1      24.642  -8.583  38.170  1.00  0.00     0.055 C 
HETATM    4  C23 UNK     1      23.876  -9.169  37.102  1.00  0.00     0.100 C 
ENDROOT
BRANCH   3   5
HETATM    5  C6  UNK     1      26.082  -8.787  38.197  1.00  0.00    -0.015 A 
HETATM    6  C13 UNK     1      26.844  -8.542  37.055  1.00  0.00     0.015 A 
HETATM    7  C16 UNK     1      28.225  -8.736  37.083  1.00  0.00     0.037 A 
HETATM    8  C15 UNK     1      28.844  -9.175  38.254  1.00  0.00     0.102 A 
HETATM    9  C17 UNK     1      28.082  -9.420  39.397  1.00  0.00     0.037 A 
HETATM   10  C14 UNK     1      26.701  -9.226  39.368  1.00  0.00     0.015 A 
BRANCH   8  11
HETATM   11  N1  UNK     1      30.250  -9.373  38.283  1.00  0.00    -0.116 N 
HETATM   12  O3  UNK     1      31.003  -8.439  37.915  1.00  0.00    -0.532 OA
HETATM   13  O4  UNK     1      30.701 -10.476  38.675  1.00  0.00    -0.532 OA
ENDBRANCH   8  11
ENDBRANCH   3   5
BRANCH   2  14
HETATM   14  C1  UNK     1      22.513  -7.619  39.105  1.00  0.00    -0.032 A 
HETATM   15  C9  UNK     1      21.666  -8.590  39.621  1.00  0.00     0.011 A 
HETATM   16  C11 UNK     1      20.289  -8.365  39.630  1.00  0.00     0.004 A 
HETATM   17  C10 UNK     1      19.774  -7.172  39.122  1.00  0.00     0.037 A 
HETATM   18  C2  UNK     1      20.636  -6.204  38.606  1.00  0.00     0.069 A 
HETATM   19  C4  UNK     1      22.013  -6.429  38.598  1.00  0.00     0.048 A 
BRANCH  18  20
HETATM   20  O1  UNK     1      20.134  -5.040  38.110  1.00  0.00    -0.349 OA
BRANCH  20  21
HETATM   21  C3  UNK     1      20.363  -4.772  36.727  1.00  0.00     0.202 C 
BRANCH  21  22
HETATM   22  C5  UNK     1      20.753  -3.316  36.564  1.00  0.00     0.202 C 
BRANCH  22  23
HETATM   23  O2  UNK     1      20.018  -2.531  37.495  1.00  0.00    -0.349 OA
BRANCH  23  24
HETATM   24  C12 UNK     1      18.970  -1.801  36.997  1.00  0.00     0.069 A 
HETATM   25  C18 UNK     1      18.839  -1.637  35.622  1.00  0.00     0.039 A 
HETATM   26  C21 UNK     1      17.772  -0.896  35.114  1.00  0.00     0.039 A 
HETATM   27  C20 UNK     1      16.843  -0.325  35.984  1.00  0.00     0.103 A 
HETATM   28  C22 UNK     1      16.982  -0.493  37.362  1.00  0.00     0.039 A 
HETATM   29  C19 UNK     1      18.049  -1.234  37.870  1.00  0.00     0.039 A 
BRANCH  27  30
HETATM   30  N2  UNK     1      15.759   0.433  35.467  1.00  0.00    -0.116 N 
HETATM   31  O5  UNK     1      15.726   0.687  34.239  1.00  0.00    -0.532 OA
HETATM   32  O6  UNK     1      14.862   0.825  36.253  1.00  0.00    -0.532 OA
ENDBRANCH  27  30
ENDBRANCH  23  24
ENDBRANCH  22  23
ENDBRANCH  21  22
ENDBRANCH  20  21
ENDBRANCH  18  20
ENDBRANCH   2  14
TORSDOF 9
ENDMDL
MODEL 7
REMARK VINA RESULT:      -8.4     14.923     18.246
REMARK  9 active torsions:
REMARK  status: ('A' for Active; 'I' for Inactive)
REMARK    1  A    between atoms: C2_11  and  O1_1 
REMARK    2  A    between atoms: C3_12  and  O1_1 
REMARK    3  A    between atoms: C12_21  and  O2_2 
REMARK    4  A    between atoms: C5_14  and  O2_2 
REMARK    5  A    between atoms: C15_24  and  N1_7 
REMARK    6  A    between atoms: C20_29  and  N2_8 
REMARK    7  A    between atoms: C1_10  and  C7_16 
REMARK    8  A    between atoms: C3_12  and  C5_14 
REMARK    9  A    between atoms: C6_15  and  C8_17 
ROOT
HETATM    1  N3  UNK     1      29.414 -10.084  33.217  1.00  0.00    -0.191 NA
HETATM    2  C7  UNK     1      31.283  -7.667  34.816  1.00  0.00     0.035 C 
HETATM    3  C8  UNK     1      31.247  -8.281  33.603  1.00  0.00     0.055 C 
HETATM    4  C23 UNK     1      30.229  -9.278  33.398  1.00  0.00     0.100 C 
ENDROOT
BRANCH   3   5
HETATM    5  C6  UNK     1      32.165  -7.979  32.516  1.00  0.00    -0.015 A 
HETATM    6  C13 UNK     1      33.542  -8.075  32.718  1.00  0.00     0.015 A 
HETATM    7  C16 UNK     1      34.422  -7.788  31.674  1.00  0.00     0.037 A 
HETATM    8  C15 UNK     1      33.924  -7.403  30.428  1.00  0.00     0.102 A 
HETATM    9  C17 UNK     1      32.548  -7.308  30.226  1.00  0.00     0.037 A 
HETATM   10  C14 UNK     1      31.668  -7.595  31.271  1.00  0.00     0.015 A 
BRANCH   8  11
HETATM   11  N1  UNK     1      34.819  -7.111  29.366  1.00  0.00    -0.116 N 
HETATM   12  O3  UNK     1      35.538  -6.085  29.441  1.00  0.00    -0.532 OA
HETATM   13  O4  UNK     1      34.866  -7.885  28.379  1.00  0.00    -0.532 OA
ENDBRANCH   8  11
ENDBRANCH   3   5
BRANCH   2  14
HETATM   14  C1  UNK     1      30.373  -7.935  35.938  1.00  0.00    -0.032 A 
HETATM   15  C9  UNK     1      30.648  -8.984  36.804  1.00  0.00     0.011 A 
HETATM   16  C11 UNK     1      29.786  -9.238  37.870  1.00  0.00     0.004 A 
HETATM   17  C10 UNK     1      28.656  -8.441  38.059  1.00  0.00     0.037 A 
HETATM   18  C2  UNK     1      28.390  -7.390  37.181  1.00  0.00     0.069 A 
HETATM   19  C4  UNK     1      29.253  -7.135  36.115  1.00  0.00     0.048 A 
BRANCH  18  20
HETATM   20  O1  UNK     1      27.288  -6.612  37.365  1.00  0.00    -0.349 OA
BRANCH  20  21
HETATM   21  C3  UNK     1      27.138  -5.990  38.641  1.00  0.00     0.202 C 
BRANCH  21  22
HETATM   22  C5  UNK     1      27.801  -4.627  38.607  1.00  0.00     0.202 C 
BRANCH  22  23
HETATM   23  O2  UNK     1      29.014  -4.681  39.349  1.00  0.00    -0.349 OA
BRANCH  23  24
HETATM   24  C12 UNK     1      30.176  -4.760  38.628  1.00  0.00     0.069 A 
HETATM   25  C18 UNK     1      30.403  -3.862  37.590  1.00  0.00     0.039 A 
HETATM   26  C21 UNK     1      31.587  -3.940  36.857  1.00  0.00     0.039 A 
HETATM   27  C20 UNK     1      32.536  -4.915  37.167  1.00  0.00     0.103 A 
HETATM   28  C22 UNK     1      32.301  -5.811  38.209  1.00  0.00     0.039 A 
HETATM   29  C19 UNK     1      31.117  -5.733  38.942  1.00  0.00     0.039 A 
BRANCH  27  30
HETATM   30  N2  UNK     1      33.740  -4.996  36.418  1.00  0.00    -0.116 N 
HETATM   31  O5  UNK     1      33.838  -4.343  35.351  1.00  0.00    -0.532 OA
HETATM   32  O6  UNK     1      34.674  -5.718  36.845  1.00  0.00    -0.532 OA
ENDBRANCH  27  30
ENDBRANCH  23  24
ENDBRANCH  22  23
ENDBRANCH  21  22
ENDBRANCH  20  21
ENDBRANCH  18  20
ENDBRANCH   2  14
TORSDOF 9
ENDMDL
MODEL 8
REMARK VINA RESULT:      -8.3      5.239      7.416
REMARK  9 active torsions:
REMARK  status: ('A' for Active; 'I' for Inactive)
REMARK    1  A    between atoms: C2_11  and  O1_1 
REMARK    2  A    between atoms: C3_12  and  O1_1 
REMARK    3  A    between atoms: C12_21  and  O2_2 
REMARK    4  A    between atoms: C5_14  and  O2_2 
REMARK    5  A    between atoms: C15_24  and  N1_7 
REMARK    6  A    between atoms: C20_29  and  N2_8 
REMARK    7  A    between atoms: C1_10  and  C7_16 
REMARK    8  A    between atoms: C3_12  and  C5_14 
REMARK    9  A    between atoms: C6_15  and  C8_17 
ROOT
HETATM    1  N3  UNK     1      18.307  -0.684  32.562  1.00  0.00    -0.191 NA
HETATM    2  C7  UNK     1      18.336   1.565  35.176  1.00  0.00     0.035 C 
HETATM    3  C8  UNK     1      18.327   1.593  33.817  1.00  0.00     0.055 C 
HETATM    4  C23 UNK     1      18.316   0.328  33.131  1.00  0.00     0.100 C 
ENDROOT
BRANCH   3   5
HETATM    5  C6  UNK     1      18.320   2.819  33.033  1.00  0.00    -0.015 A 
HETATM    6  C13 UNK     1      18.366   2.757  31.641  1.00  0.00     0.015 A 
HETATM    7  C16 UNK     1      18.357   3.933  30.890  1.00  0.00     0.037 A 
HETATM    8  C15 UNK     1      18.303   5.170  31.533  1.00  0.00     0.102 A 
HETATM    9  C17 UNK     1      18.256   5.232  32.925  1.00  0.00     0.037 A 
HETATM   10  C14 UNK     1      18.265   4.056  33.676  1.00  0.00     0.015 A 
BRANCH   8  11
HETATM   11  N1  UNK     1      18.293   6.367  30.769  1.00  0.00    -0.116 N 
HETATM   12  O3  UNK     1      19.168   6.532  29.885  1.00  0.00    -0.532 OA
HETATM   13  O4  UNK     1      17.412   7.230  31.001  1.00  0.00    -0.532 OA
ENDBRANCH   8  11
ENDBRANCH   3   5
BRANCH   2  14
HETATM   14  C1  UNK     1      18.336   0.352  36.007  1.00  0.00    -0.032 A 
HETATM   15  C9  UNK     1      17.316   0.156  36.927  1.00  0.00     0.011 A 
HETATM   16  C11 UNK     1      17.314  -0.995  37.715  1.00  0.00     0.004 A 
HETATM   17  C10 UNK     1      18.334  -1.937  37.576  1.00  0.00     0.037 A 
HETATM   18  C2  UNK     1      19.354  -1.728  36.648  1.00  0.00     0.069 A 
HETATM   19  C4  UNK     1      19.355  -0.577  35.859  1.00  0.00     0.048 A 
BRANCH  18  20
HETATM   20  O1  UNK     1      20.349  -2.647  36.512  1.00  0.00    -0.349 OA
BRANCH  20  21
HETATM   21  C3  UNK     1      20.026  -4.003  36.819  1.00  0.00     0.202 C 
BRANCH  21  22
HETATM   22  C5  UNK     1      20.995  -4.516  37.866  1.00  0.00     0.202 C 
BRANCH  22  23
HETATM   23  O2  UNK     1      21.718  -5.618  37.330  1.00  0.00    -0.349 OA
BRANCH  23  24
HETATM   24  C12 UNK     1      21.173  -6.862  37.513  1.00  0.00     0.069 A 
HETATM   25  C18 UNK     1      21.373  -7.848  36.552  1.00  0.00     0.039 A 
HETATM   26  C21 UNK     1      20.820  -9.115  36.738  1.00  0.00     0.039 A 
HETATM   27  C20 UNK     1      20.071  -9.388  37.883  1.00  0.00     0.103 A 
HETATM   28  C22 UNK     1      19.875  -8.394  38.841  1.00  0.00     0.039 A 
HETATM   29  C19 UNK     1      20.427  -7.127  38.655  1.00  0.00     0.039 A 
BRANCH  27  30
HETATM   30  N2  UNK     1      19.506 -10.677  38.071  1.00  0.00    -0.116 N 
HETATM   31  O5  UNK     1      19.185 -11.037  39.229  1.00  0.00    -0.532 OA
HETATM   32  O6  UNK     1      19.340 -11.420  37.073  1.00  0.00    -0.532 OA
ENDBRANCH  27  30
ENDBRANCH  23  24
ENDBRANCH  22  23
ENDBRANCH  21  22
ENDBRANCH  20  21
ENDBRANCH  18  20
ENDBRANCH   2  14
TORSDOF 9
ENDMDL
MODEL 9
REMARK VINA RESULT:      -8.3      2.643      4.069
REMARK  9 active torsions:
REMARK  status: ('A' for Active; 'I' for Inactive)
REMARK    1  A    between atoms: C2_11  and  O1_1 
REMARK    2  A    between atoms: C3_12  and  O1_1 
REMARK    3  A    between atoms: C12_21  and  O2_2 
REMARK    4  A    between atoms: C5_14  and  O2_2 
REMARK    5  A    between atoms: C15_24  and  N1_7 
REMARK    6  A    between atoms: C20_29  and  N2_8 
REMARK    7  A    between atoms: C1_10  and  C7_16 
REMARK    8  A    between atoms: C3_12  and  C5_14 
REMARK    9  A    between atoms: C6_15  and  C8_17 
ROOT
HETATM    1  N3  UNK     1      14.795   6.983  31.541  1.00  0.00    -0.191 NA
HETATM    2  C7  UNK     1      18.020   7.359  32.703  1.00  0.00     0.035 C 
HETATM    3  C8  UNK     1      16.837   8.026  32.767  1.00  0.00     0.055 C 
HETATM    4  C23 UNK     1      15.712   7.442  32.085  1.00  0.00     0.100 C 
ENDROOT
BRANCH   3   5
HETATM    5  C6  UNK     1      16.652   9.278  33.484  1.00  0.00    -0.015 A 
HETATM    6  C13 UNK     1      17.743  10.115  33.720  1.00  0.00     0.015 A 
HETATM    7  C16 UNK     1      17.564  11.316  34.406  1.00  0.00     0.037 A 
HETATM    8  C15 UNK     1      16.295  11.680  34.858  1.00  0.00     0.102 A 
HETATM    9  C17 UNK     1      15.204  10.843  34.622  1.00  0.00     0.037 A 
HETATM   10  C14 UNK     1      15.383   9.641  33.935  1.00  0.00     0.015 A 
BRANCH   8  11
HETATM   11  N1  UNK     1      16.113  12.902  35.556  1.00  0.00    -0.116 N 
HETATM   12  O3  UNK     1      16.121  13.979  34.911  1.00  0.00    -0.532 OA
HETATM   13  O4  UNK     1      15.949  12.874  36.800  1.00  0.00    -0.532 OA
ENDBRANCH   8  11
ENDBRANCH   3   5
BRANCH   2  14
HETATM   14  C1  UNK     1      18.250   6.090  31.997  1.00  0.00    -0.032 A 
HETATM   15  C9  UNK     1      18.814   6.108  30.729  1.00  0.00     0.011 A 
HETATM   16  C11 UNK     1      19.034   4.905  30.059  1.00  0.00     0.004 A 
HETATM   17  C10 UNK     1      18.686   3.696  30.662  1.00  0.00     0.037 A 
HETATM   18  C2  UNK     1      18.120   3.691  31.937  1.00  0.00     0.069 A 
HETATM   19  C4  UNK     1      17.900   4.895  32.608  1.00  0.00     0.048 A 
BRANCH  18  20
HETATM   20  O1  UNK     1      17.781   2.512  32.527  1.00  0.00    -0.349 OA
BRANCH  20  21
HETATM   21  C3  UNK     1      18.241   2.298  33.861  1.00  0.00     0.202 C 
BRANCH  21  22
HETATM   22  C5  UNK     1      17.455   1.158  34.478  1.00  0.00     0.202 C 
BRANCH  22  23
HETATM   23  O2  UNK     1      17.961   0.897  35.782  1.00  0.00    -0.349 OA
BRANCH  23  24
HETATM   24  C12 UNK     1      18.447  -0.363  36.015  1.00  0.00     0.069 A 
HETATM   25  C18 UNK     1      19.398  -0.903  35.156  1.00  0.00     0.039 A 
HETATM   26  C21 UNK     1      19.893  -2.185  35.394  1.00  0.00     0.039 A 
HETATM   27  C20 UNK     1      19.435  -2.918  36.488  1.00  0.00     0.103 A 
HETATM   28  C22 UNK     1      18.481  -2.370  37.345  1.00  0.00     0.039 A 
HETATM   29  C19 UNK     1      17.985  -1.088  37.108  1.00  0.00     0.039 A 
BRANCH  27  30
HETATM   30  N2  UNK     1      19.937  -4.225  36.729  1.00  0.00    -0.116 N 
HETATM   31  O5  UNK     1      19.140  -5.193  36.720  1.00  0.00    -0.532 OA
HETATM   32  O6  UNK     1      21.165  -4.374  36.941  1.00  0.00    -0.532 OA
ENDBRANCH  27  30
ENDBRANCH  23  24
ENDBRANCH  22  23
ENDBRANCH  21  22
ENDBRANCH  20  21
ENDBRANCH  18  20
ENDBRANCH   2  14
TORSDOF 9
ENDMDL
MODEL 10
REMARK VINA RESULT:      -8.3      2.075      3.231
REMARK  9 active torsions:
REMARK  status: ('A' for Active; 'I' for Inactive)
REMARK    1  A    between atoms: C2_11  and  O1_1 
REMARK    2  A    between atoms: C3_12  and  O1_1 
REMARK    3  A    between atoms: C12_21  and  O2_2 
REMARK    4  A    between atoms: C5_14  and  O2_2 
REMARK    5  A    between atoms: C15_24  and  N1_7 
REMARK    6  A    between atoms: C20_29  and  N2_8 
REMARK    7  A    between atoms: C1_10  and  C7_16 
REMARK    8  A    between atoms: C3_12  and  C5_14 
REMARK    9  A    between atoms: C6_15  and  C8_17 
ROOT
HETATM    1  N3  UNK     1      14.681   6.923  31.229  1.00  0.00    -0.191 NA
HETATM    2  C7  UNK     1      17.735   7.486  32.729  1.00  0.00     0.035 C 
HETATM    3  C8  UNK     1      16.479   8.005  32.766  1.00  0.00     0.055 C 
HETATM    4  C23 UNK     1      15.491   7.400  31.912  1.00  0.00     0.100 C 
ENDROOT
BRANCH   3   5
HETATM    5  C6  UNK     1      16.088   9.117  33.617  1.00  0.00    -0.015 A 
HETATM    6  C13 UNK     1      14.824   9.133  34.208  1.00  0.00     0.015 A 
HETATM    7  C16 UNK     1      14.451  10.199  35.027  1.00  0.00     0.037 A 
HETATM    8  C15 UNK     1      15.341  11.250  35.253  1.00  0.00     0.102 A 
HETATM    9  C17 UNK     1      16.604  11.234  34.662  1.00  0.00     0.037 A 
HETATM   10  C14 UNK     1      16.977  10.167  33.844  1.00  0.00     0.015 A 
BRANCH   8  11
HETATM   11  N1  UNK     1      14.961  12.335  36.086  1.00  0.00    -0.116 N 
HETATM   12  O3  UNK     1      14.681  12.111  37.288  1.00  0.00    -0.532 OA
HETATM   13  O4  UNK     1      14.915  13.490  35.597  1.00  0.00    -0.532 OA
ENDBRANCH   8  11
ENDBRANCH   3   5
BRANCH   2  14
HETATM   14  C1  UNK     1      18.173   6.360  31.891  1.00  0.00    -0.032 A 
HETATM   15  C9  UNK     1      18.990   6.603  30.796  1.00  0.00     0.011 A 
HETATM   16  C11 UNK     1      19.407   5.536  30.001  1.00  0.00     0.004 A 
HETATM   17  C10 UNK     1      19.001   4.237  30.308  1.00  0.00     0.037 A 
HETATM   18  C2  UNK     1      18.179   4.006  31.411  1.00  0.00     0.069 A 
HETATM   19  C4  UNK     1      17.762   5.074  32.207  1.00  0.00     0.048 A 
BRANCH  18  20
HETATM   20  O1  UNK     1      17.782   2.739  31.712  1.00  0.00    -0.349 OA
BRANCH  20  21
HETATM   21  C3  UNK     1      18.343   1.682  30.933  1.00  0.00     0.202 C 
BRANCH  21  22
HETATM   22  C5  UNK     1      19.148   0.773  31.841  1.00  0.00     0.202 C 
BRANCH  22  23
HETATM   23  O2  UNK     1      18.263  -0.113  32.516  1.00  0.00    -0.349 OA
BRANCH  23  24
HETATM   24  C12 UNK     1      18.214  -0.017  33.882  1.00  0.00     0.069 A 
HETATM   25  C18 UNK     1      17.666  -1.057  34.625  1.00  0.00     0.039 A 
HETATM   26  C21 UNK     1      17.617  -0.961  36.015  1.00  0.00     0.039 A 
HETATM   27  C20 UNK     1      18.118   0.173  36.654  1.00  0.00     0.103 A 
HETATM   28  C22 UNK     1      18.666   1.212  35.902  1.00  0.00     0.039 A 
HETATM   29  C19 UNK     1      18.714   1.117  34.512  1.00  0.00     0.039 A 
BRANCH  27  30
HETATM   30  N2  UNK     1      18.065   0.273  38.070  1.00  0.00    -0.116 N 
HETATM   31  O5  UNK     1      18.450  -0.701  38.761  1.00  0.00    -0.532 OA
HETATM   32  O6  UNK     1      17.637   1.331  38.589  1.00  0.00    -0.532 OA
ENDBRANCH  27  30
ENDBRANCH  23  24
ENDBRANCH  22  23
ENDBRANCH  21  22
ENDBRANCH  20  21
ENDBRANCH  18  20
ENDBRANCH   2  14
TORSDOF 9
ENDMDL
