MODEL 1
REMARK VINA RESULT:     -10.3      0.000      0.000
REMARK  5 active torsions:
REMARK  status: ('A' for Active; 'I' for Inactive)
REMARK    1  A    between atoms: C5_12  and  N1_5 
REMARK    2  A    between atoms: C6_13  and  N2_6 
REMARK    3  A    between atoms: C17_24  and  N3_7 
REMARK       I    between atoms: C9_16  and  N3_7 
REMARK    4  A    between atoms: C5_12  and  C7_14 
REMARK    5  A    between atoms: C6_13  and  C9_16 
ROOT
HETATM    1  N1  UNK     1      19.273  -3.176  36.159  1.00  0.00     0.096 N 
HETATM    2  N2  UNK     1      18.304  -0.570  35.364  1.00  0.00     0.100 N 
HETATM    3  C1  UNK     1      18.463  -2.354  37.066  1.00  0.00     0.303 C 
HETATM    4  C2  UNK     1      20.043  -2.323  35.244  1.00  0.00     0.303 C 
HETATM    5  C3  UNK     1      17.535  -1.422  36.278  1.00  0.00     0.303 C 
HETATM    6  C4  UNK     1      19.114  -1.392  34.456  1.00  0.00     0.303 C 
ENDROOT
BRANCH   1   7
HETATM    7  C5  UNK     1      20.160  -4.061  36.912  1.00  0.00     0.312 C 
BRANCH   7   8
HETATM    8  C7  UNK     1      20.172  -5.445  36.363  1.00  0.00    -0.011 A 
HETATM    9  C10 UNK     1      20.273  -5.667  35.046  1.00  0.00     0.092 A 
HETATM   10  C13 UNK     1      20.288  -7.018  34.458  1.00  0.00     0.288 A 
HETATM   11  O1  UNK     1      20.192  -8.083  35.340  1.00  0.00    -0.275 OA
HETATM   12  O3  UNK     1      20.383  -7.183  33.247  1.00  0.00    -0.260 OA
HETATM   13  C11 UNK     1      20.085  -7.880  36.731  1.00  0.00     0.090 A 
HETATM   14  C8  UNK     1      20.071  -6.594  37.274  1.00  0.00     0.006 A 
HETATM   15  C14 UNK     1      19.993  -9.025  37.524  1.00  0.00     0.045 A 
HETATM   16  C12 UNK     1      19.961  -6.478  38.666  1.00  0.00     0.015 A 
HETATM   17  C16 UNK     1      19.868  -7.617  39.474  1.00  0.00     0.007 A 
HETATM   18  C15 UNK     1      19.885  -8.888  38.904  1.00  0.00    -0.059 A 
HETATM   19  C18 UNK     1      19.787 -10.097  39.771  1.00  0.00     0.048 C 
ENDBRANCH   7   8
ENDBRANCH   1   7
BRANCH   2  20
HETATM   20  C6  UNK     1      17.419   0.316  34.612  1.00  0.00     0.375 C 
BRANCH  20  21
HETATM   21  C9  UNK     1      18.166   1.588  34.250  1.00  0.00     0.250 C 
HETATM   22  O2  UNK     1      19.046   2.064  34.960  1.00  0.00    -0.271 OA
HETATM   23  N3  UNK     1      17.706   2.087  33.033  1.00  0.00    -0.323 N 
HETATM   24  H15 UNK     1      16.969   1.576  32.553  1.00  0.00     0.169 HD
BRANCH  23  25
HETATM   25  C17 UNK     1      18.145   3.250  32.355  1.00  0.00     0.073 A 
HETATM   26  C19 UNK     1      18.558   3.171  31.025  1.00  0.00     0.143 A 
HETATM   27  F1  UNK     1      18.543   1.998  30.375  1.00  0.00    -0.204 F 
HETATM   28  C21 UNK     1      18.987   4.319  30.359  1.00  0.00     0.044 A 
HETATM   29  C23 UNK     1      19.005   5.545  31.023  1.00  0.00     0.003 A 
HETATM   30  C22 UNK     1      18.592   5.624  32.353  1.00  0.00     0.002 A 
HETATM   31  C20 UNK     1      18.162   4.476  33.018  1.00  0.00     0.033 A 
ENDBRANCH  23  25
ENDBRANCH  20  21
ENDBRANCH   2  20
TORSDOF 5
ENDMDL
MODEL 2
REMARK VINA RESULT:     -10.2      6.283     12.888
REMARK  5 active torsions:
REMARK  status: ('A' for Active; 'I' for Inactive)
REMARK    1  A    between atoms: C5_12  and  N1_5 
REMARK    2  A    between atoms: C6_13  and  N2_6 
REMARK    3  A    between atoms: C17_24  and  N3_7 
REMARK       I    between atoms: C9_16  and  N3_7 
REMARK    4  A    between atoms: C5_12  and  C7_14 
REMARK    5  A    between atoms: C6_13  and  C9_16 
ROOT
HETATM    1  N1  UNK     1      18.237   6.084  32.186  1.00  0.00     0.096 N 
HETATM    2  N2  UNK     1      19.001   4.124  30.202  1.00  0.00     0.100 N 
HETATM    3  C1  UNK     1      19.238   6.391  31.157  1.00  0.00     0.303 C 
HETATM    4  C2  UNK     1      18.243   4.648  32.495  1.00  0.00     0.303 C 
HETATM    5  C3  UNK     1      18.994   5.559  29.892  1.00  0.00     0.303 C 
HETATM    6  C4  UNK     1      17.999   3.818  31.230  1.00  0.00     0.303 C 
ENDROOT
BRANCH   1   7
HETATM    7  C5  UNK     1      18.474   6.875  33.392  1.00  0.00     0.312 C 
BRANCH   7   8
HETATM    8  C7  UNK     1      17.349   7.806  33.684  1.00  0.00    -0.011 A 
HETATM    9  C10 UNK     1      16.082   7.369  33.732  1.00  0.00     0.092 A 
HETATM   10  C13 UNK     1      14.939   8.253  34.016  1.00  0.00     0.288 A 
HETATM   11  O1  UNK     1      15.225   9.591  34.238  1.00  0.00    -0.275 OA
HETATM   12  O3  UNK     1      13.793   7.817  34.054  1.00  0.00    -0.260 OA
HETATM   13  C11 UNK     1      16.546  10.079  34.193  1.00  0.00     0.090 A 
HETATM   14  C8  UNK     1      17.621   9.230  33.923  1.00  0.00     0.006 A 
HETATM   15  C14 UNK     1      16.716  11.444  34.431  1.00  0.00     0.045 A 
HETATM   16  C12 UNK     1      18.903   9.794  33.895  1.00  0.00     0.015 A 
HETATM   17  C16 UNK     1      19.089  11.161  34.132  1.00  0.00     0.007 A 
HETATM   18  C15 UNK     1      17.998  11.984  34.400  1.00  0.00    -0.059 A 
HETATM   19  C18 UNK     1      18.203  13.439  34.653  1.00  0.00     0.048 C 
ENDBRANCH   7   8
ENDBRANCH   1   7
BRANCH   2  20
HETATM   20  C6  UNK     1      18.766   3.333  28.996  1.00  0.00     0.375 C 
BRANCH  20  21
HETATM   21  C9  UNK     1      18.553   1.878  29.381  1.00  0.00     0.250 C 
HETATM   22  O2  UNK     1      17.463   1.323  29.291  1.00  0.00    -0.271 OA
HETATM   23  N3  UNK     1      19.749   1.316  29.822  1.00  0.00    -0.323 N 
HETATM   24  H15 UNK     1      20.580   1.905  29.835  1.00  0.00     0.169 HD
BRANCH  23  25
HETATM   25  C17 UNK     1      19.969  -0.009  30.267  1.00  0.00     0.073 A 
HETATM   26  C19 UNK     1      19.575  -0.392  31.549  1.00  0.00     0.143 A 
HETATM   27  F1  UNK     1      18.985   0.488  32.371  1.00  0.00    -0.204 F 
HETATM   28  C21 UNK     1      19.791  -1.700  31.984  1.00  0.00     0.044 A 
HETATM   29  C23 UNK     1      20.403  -2.624  31.138  1.00  0.00     0.003 A 
HETATM   30  C22 UNK     1      20.797  -2.241  29.856  1.00  0.00     0.002 A 
HETATM   31  C20 UNK     1      20.580  -0.934  29.421  1.00  0.00     0.033 A 
ENDBRANCH  23  25
ENDBRANCH  20  21
ENDBRANCH   2  20
TORSDOF 5
ENDMDL
MODEL 3
REMARK VINA RESULT:     -10.2      6.424     12.545
REMARK  5 active torsions:
REMARK  status: ('A' for Active; 'I' for Inactive)
REMARK    1  A    between atoms: C5_12  and  N1_5 
REMARK    2  A    between atoms: C6_13  and  N2_6 
REMARK    3  A    between atoms: C17_24  and  N3_7 
REMARK       I    between atoms: C9_16  and  N3_7 
REMARK    4  A    between atoms: C5_12  and  C7_14 
REMARK    5  A    between atoms: C6_13  and  C9_16 
ROOT
HETATM    1  N1  UNK     1      18.222   5.716  32.877  1.00  0.00     0.096 N 
HETATM    2  N2  UNK     1      18.899   4.115  30.567  1.00  0.00     0.100 N 
HETATM    3  C1  UNK     1      19.229   6.164  31.907  1.00  0.00     0.303 C 
HETATM    4  C2  UNK     1      18.174   4.250  32.926  1.00  0.00     0.303 C 
HETATM    5  C3  UNK     1      18.946   5.581  30.518  1.00  0.00     0.303 C 
HETATM    6  C4  UNK     1      17.892   3.667  31.537  1.00  0.00     0.303 C 
ENDROOT
BRANCH   1   7
HETATM    7  C5  UNK     1      18.495   6.270  34.202  1.00  0.00     0.312 C 
BRANCH   7   8
HETATM    8  C7  UNK     1      18.461   7.759  34.207  1.00  0.00    -0.011 A 
HETATM    9  C10 UNK     1      19.580   8.477  34.384  1.00  0.00     0.092 A 
HETATM   10  C13 UNK     1      19.594   9.950  34.396  1.00  0.00     0.288 A 
HETATM   11  O1  UNK     1      18.376  10.587  34.214  1.00  0.00    -0.275 OA
HETATM   12  O3  UNK     1      20.637  10.574  34.558  1.00  0.00    -0.260 OA
HETATM   13  C11 UNK     1      17.185   9.859  34.027  1.00  0.00     0.090 A 
HETATM   14  C8  UNK     1      17.185   8.463  34.017  1.00  0.00     0.006 A 
HETATM   15  C14 UNK     1      16.017  10.604  33.854  1.00  0.00     0.045 A 
HETATM   16  C12 UNK     1      15.959   7.814  33.826  1.00  0.00     0.015 A 
HETATM   17  C16 UNK     1      14.780   8.548  33.651  1.00  0.00     0.007 A 
HETATM   18  C15 UNK     1      14.809   9.940  33.665  1.00  0.00    -0.059 A 
HETATM   19  C18 UNK     1      13.550  10.716  33.477  1.00  0.00     0.048 C 
ENDBRANCH   7   8
ENDBRANCH   1   7
BRANCH   2  20
HETATM   20  C6  UNK     1      18.628   3.560  29.243  1.00  0.00     0.375 C 
BRANCH  20  21
HETATM   21  C9  UNK     1      18.501   2.050  29.345  1.00  0.00     0.250 C 
HETATM   22  O2  UNK     1      17.513   1.440  28.946  1.00  0.00    -0.271 OA
HETATM   23  N3  UNK     1      19.643   1.508  29.931  1.00  0.00    -0.323 N 
HETATM   24  H15 UNK     1      20.388   2.145  30.207  1.00  0.00     0.169 HD
BRANCH  23  25
HETATM   25  C17 UNK     1      19.913   0.145  30.201  1.00  0.00     0.073 A 
HETATM   26  C19 UNK     1      19.575  -0.404  31.438  1.00  0.00     0.143 A 
HETATM   27  F1  UNK     1      18.993   0.350  32.382  1.00  0.00    -0.204 F 
HETATM   28  C21 UNK     1      19.841  -1.748  31.700  1.00  0.00     0.044 A 
HETATM   29  C23 UNK     1      20.445  -2.542  30.726  1.00  0.00     0.003 A 
HETATM   30  C22 UNK     1      20.783  -1.993  29.488  1.00  0.00     0.002 A 
HETATM   31  C20 UNK     1      20.516  -0.650  29.227  1.00  0.00     0.033 A 
ENDBRANCH  23  25
ENDBRANCH  20  21
ENDBRANCH   2  20
TORSDOF 5
ENDMDL
MODEL 4
REMARK VINA RESULT:     -10.2      2.280      2.786
REMARK  5 active torsions:
REMARK  status: ('A' for Active; 'I' for Inactive)
REMARK    1  A    between atoms: C5_12  and  N1_5 
REMARK    2  A    between atoms: C6_13  and  N2_6 
REMARK    3  A    between atoms: C17_24  and  N3_7 
REMARK       I    between atoms: C9_16  and  N3_7 
REMARK    4  A    between atoms: C5_12  and  C7_14 
REMARK    5  A    between atoms: C6_13  and  C9_16 
ROOT
HETATM    1  N1  UNK     1      19.413  -3.713  36.349  1.00  0.00     0.096 N 
HETATM    2  N2  UNK     1      18.984  -0.933  35.683  1.00  0.00     0.100 N 
HETATM    3  C1  UNK     1      18.513  -2.869  37.144  1.00  0.00     0.303 C 
HETATM    4  C2  UNK     1      20.476  -2.902  35.744  1.00  0.00     0.303 C 
HETATM    5  C3  UNK     1      17.921  -1.744  36.288  1.00  0.00     0.303 C 
HETATM    6  C4  UNK     1      19.883  -1.777  34.887  1.00  0.00     0.303 C 
ENDROOT
BRANCH   1   7
HETATM    7  C5  UNK     1      19.980  -4.783  37.168  1.00  0.00     0.312 C 
BRANCH   7   8
HETATM    8  C7  UNK     1      20.094  -6.065  36.419  1.00  0.00    -0.011 A 
HETATM    9  C10 UNK     1      20.356  -6.078  35.105  1.00  0.00     0.092 A 
HETATM   10  C13 UNK     1      20.478  -7.321  34.323  1.00  0.00     0.288 A 
HETATM   11  O1  UNK     1      20.307  -8.511  35.013  1.00  0.00    -0.275 OA
HETATM   12  O3  UNK     1      20.720  -7.295  33.122  1.00  0.00    -0.260 OA
HETATM   13  C11 UNK     1      20.030  -8.528  36.395  1.00  0.00     0.090 A 
HETATM   14  C8  UNK     1      19.917  -7.342  37.123  1.00  0.00     0.006 A 
HETATM   15  C14 UNK     1      19.876  -9.783  36.986  1.00  0.00     0.045 A 
HETATM   16  C12 UNK     1      19.640  -7.446  38.493  1.00  0.00     0.015 A 
HETATM   17  C16 UNK     1      19.482  -8.697  39.099  1.00  0.00     0.007 A 
HETATM   18  C15 UNK     1      19.600  -9.864  38.347  1.00  0.00    -0.059 A 
HETATM   19  C18 UNK     1      19.433 -11.194  39.000  1.00  0.00     0.048 C 
ENDBRANCH   7   8
ENDBRANCH   1   7
BRANCH   2  20
HETATM   20  C6  UNK     1      18.418   0.138  34.866  1.00  0.00     0.375 C 
BRANCH  20  21
HETATM   21  C9  UNK     1      18.263  -0.348  33.435  1.00  0.00     0.250 C 
HETATM   22  O2  UNK     1      17.358  -1.100  33.086  1.00  0.00    -0.271 OA
HETATM   23  N3  UNK     1      19.268   0.187  32.632  1.00  0.00    -0.323 N 
HETATM   24  H15 UNK     1      19.950   0.806  33.066  1.00  0.00     0.169 HD
BRANCH  23  25
HETATM   25  C17 UNK     1      19.471  -0.022  31.247  1.00  0.00     0.073 A 
HETATM   26  C19 UNK     1      20.116  -1.176  30.800  1.00  0.00     0.143 A 
HETATM   27  F1  UNK     1      20.547  -2.097  31.674  1.00  0.00    -0.204 F 
HETATM   28  C21 UNK     1      20.312  -1.379  29.434  1.00  0.00     0.044 A 
HETATM   29  C23 UNK     1      19.867  -0.429  28.515  1.00  0.00     0.003 A 
HETATM   30  C22 UNK     1      19.222   0.724  28.962  1.00  0.00     0.002 A 
HETATM   31  C20 UNK     1      19.025   0.927  30.328  1.00  0.00     0.033 A 
ENDBRANCH  23  25
ENDBRANCH  20  21
ENDBRANCH   2  20
TORSDOF 5
ENDMDL
MODEL 5
REMARK VINA RESULT:     -10.1      1.790      2.172
REMARK  5 active torsions:
REMARK  status: ('A' for Active; 'I' for Inactive)
REMARK    1  A    between atoms: C5_12  and  N1_5 
REMARK    2  A    between atoms: C6_13  and  N2_6 
REMARK    3  A    between atoms: C17_24  and  N3_7 
REMARK       I    between atoms: C9_16  and  N3_7 
REMARK    4  A    between atoms: C5_12  and  C7_14 
REMARK    5  A    between atoms: C6_13  and  C9_16 
ROOT
HETATM    1  N1  UNK     1      19.294  -2.542  35.858  1.00  0.00     0.096 N 
HETATM    2  N2  UNK     1      18.401   0.087  35.052  1.00  0.00     0.100 N 
HETATM    3  C1  UNK     1      18.886  -1.539  36.848  1.00  0.00     0.303 C 
HETATM    4  C2  UNK     1      19.833  -1.889  34.658  1.00  0.00     0.303 C 
HETATM    5  C3  UNK     1      17.863  -0.566  36.251  1.00  0.00     0.303 C 
HETATM    6  C4  UNK     1      18.809  -0.917  34.061  1.00  0.00     0.303 C 
ENDROOT
BRANCH   1   7
HETATM    7  C5  UNK     1      20.273  -3.466  36.428  1.00  0.00     0.312 C 
BRANCH   7   8
HETATM    8  C7  UNK     1      19.657  -4.761  36.830  1.00  0.00    -0.011 A 
HETATM    9  C10 UNK     1      18.423  -5.095  36.427  1.00  0.00     0.092 A 
HETATM   10  C13 UNK     1      17.773  -6.364  36.799  1.00  0.00     0.288 A 
HETATM   11  O1  UNK     1      18.503  -7.225  37.604  1.00  0.00    -0.275 OA
HETATM   12  O3  UNK     1      16.643  -6.637  36.410  1.00  0.00    -0.260 OA
HETATM   13  C11 UNK     1      19.801  -6.900  38.044  1.00  0.00     0.090 A 
HETATM   14  C8  UNK     1      20.405  -5.694  37.683  1.00  0.00     0.006 A 
HETATM   15  C14 UNK     1      20.442  -7.842  38.851  1.00  0.00     0.045 A 
HETATM   16  C12 UNK     1      21.698  -5.446  38.162  1.00  0.00     0.015 A 
HETATM   17  C16 UNK     1      22.353  -6.381  38.972  1.00  0.00     0.007 A 
HETATM   18  C15 UNK     1      21.726  -7.577  39.316  1.00  0.00    -0.059 A 
HETATM   19  C18 UNK     1      22.430  -8.569  40.179  1.00  0.00     0.048 C 
ENDBRANCH   7   8
ENDBRANCH   1   7
BRANCH   2  20
HETATM   20  C6  UNK     1      17.424   1.012  34.482  1.00  0.00     0.375 C 
BRANCH  20  21
HETATM   21  C9  UNK     1      18.126   2.292  34.062  1.00  0.00     0.250 C 
HETATM   22  O2  UNK     1      18.928   2.875  34.785  1.00  0.00    -0.271 OA
HETATM   23  N3  UNK     1      17.726   2.663  32.780  1.00  0.00    -0.323 N 
HETATM   24  H15 UNK     1      17.052   2.071  32.298  1.00  0.00     0.169 HD
BRANCH  23  25
HETATM   25  C17 UNK     1      18.148   3.790  32.035  1.00  0.00     0.073 A 
HETATM   26  C19 UNK     1      17.956   5.076  32.540  1.00  0.00     0.143 A 
HETATM   27  F1  UNK     1      17.373   5.258  33.734  1.00  0.00    -0.204 F 
HETATM   28  C21 UNK     1      18.375   6.184  31.804  1.00  0.00     0.044 A 
HETATM   29  C23 UNK     1      18.983   6.007  30.562  1.00  0.00     0.003 A 
HETATM   30  C22 UNK     1      19.175   4.721  30.056  1.00  0.00     0.002 A 
HETATM   31  C20 UNK     1      18.757   3.613  30.793  1.00  0.00     0.033 A 
ENDBRANCH  23  25
ENDBRANCH  20  21
ENDBRANCH   2  20
TORSDOF 5
ENDMDL
MODEL 6
REMARK VINA RESULT:      -9.7      4.425     10.602
REMARK  5 active torsions:
REMARK  status: ('A' for Active; 'I' for Inactive)
REMARK    1  A    between atoms: C5_12  and  N1_5 
REMARK    2  A    between atoms: C6_13  and  N2_6 
REMARK    3  A    between atoms: C17_24  and  N3_7 
REMARK       I    between atoms: C9_16  and  N3_7 
REMARK    4  A    between atoms: C5_12  and  C7_14 
REMARK    5  A    between atoms: C6_13  and  C9_16 
ROOT
HETATM    1  N1  UNK     1      19.993  -4.029  36.738  1.00  0.00     0.096 N 
HETATM    2  N2  UNK     1      20.111  -6.893  37.113  1.00  0.00     0.100 N 
HETATM    3  C1  UNK     1      19.761  -4.954  35.622  1.00  0.00     0.303 C 
HETATM    4  C2  UNK     1      20.899  -4.632  37.724  1.00  0.00     0.303 C 
HETATM    5  C3  UNK     1      19.206  -6.291  36.128  1.00  0.00     0.303 C 
HETATM    6  C4  UNK     1      20.342  -5.968  38.229  1.00  0.00     0.303 C 
ENDROOT
BRANCH   1   7
HETATM    7  C5  UNK     1      20.527  -2.757  36.254  1.00  0.00     0.312 C 
BRANCH   7   8
HETATM    8  C7  UNK     1      19.551  -2.026  35.399  1.00  0.00    -0.011 A 
HETATM    9  C10 UNK     1      18.466  -1.443  35.929  1.00  0.00     0.092 A 
HETATM   10  C13 UNK     1      17.475  -0.711  35.122  1.00  0.00     0.288 A 
HETATM   11  O1  UNK     1      17.708  -0.643  33.758  1.00  0.00    -0.275 OA
HETATM   12  O3  UNK     1      16.495  -0.188  35.642  1.00  0.00    -0.260 OA
HETATM   13  C11 UNK     1      18.839  -1.247  33.173  1.00  0.00     0.090 A 
HETATM   14  C8  UNK     1      19.771  -1.938  33.949  1.00  0.00     0.006 A 
HETATM   15  C14 UNK     1      18.971  -1.116  31.789  1.00  0.00     0.045 A 
HETATM   16  C12 UNK     1      20.867  -2.510  33.291  1.00  0.00     0.015 A 
HETATM   17  C16 UNK     1      21.014  -2.387  31.905  1.00  0.00     0.007 A 
HETATM   18  C15 UNK     1      20.068  -1.691  31.155  1.00  0.00    -0.059 A 
HETATM   19  C18 UNK     1      20.231  -1.563  29.678  1.00  0.00     0.048 C 
ENDBRANCH   7   8
ENDBRANCH   1   7
BRANCH   2  20
HETATM   20  C6  UNK     1      19.579  -8.166  37.596  1.00  0.00     0.375 C 
BRANCH  20  21
HETATM   21  C9  UNK     1      20.720  -9.152  37.782  1.00  0.00     0.250 C 
HETATM   22  O2  UNK     1      20.795  -9.902  38.750  1.00  0.00    -0.271 OA
HETATM   23  N3  UNK     1      21.610  -9.065  36.714  1.00  0.00    -0.323 N 
HETATM   24  H15 UNK     1      21.410  -8.393  35.975  1.00  0.00     0.169 HD
BRANCH  23  25
HETATM   25  C17 UNK     1      22.796  -9.812  36.514  1.00  0.00     0.073 A 
HETATM   26  C19 UNK     1      22.738 -11.069  35.912  1.00  0.00     0.143 A 
HETATM   27  F1  UNK     1      21.564 -11.582  35.517  1.00  0.00    -0.204 F 
HETATM   28  C21 UNK     1      23.909 -11.802  35.715  1.00  0.00     0.044 A 
HETATM   29  C23 UNK     1      25.136 -11.278  36.121  1.00  0.00     0.003 A 
HETATM   30  C22 UNK     1      25.194 -10.021  36.723  1.00  0.00     0.002 A 
HETATM   31  C20 UNK     1      24.023  -9.289  36.919  1.00  0.00     0.033 A 
ENDBRANCH  23  25
ENDBRANCH  20  21
ENDBRANCH   2  20
TORSDOF 5
ENDMDL
MODEL 7
REMARK VINA RESULT:      -9.5      2.725      3.312
REMARK  5 active torsions:
REMARK  status: ('A' for Active; 'I' for Inactive)
REMARK    1  A    between atoms: C5_12  and  N1_5 
REMARK    2  A    between atoms: C6_13  and  N2_6 
REMARK    3  A    between atoms: C17_24  and  N3_7 
REMARK       I    between atoms: C9_16  and  N3_7 
REMARK    4  A    between atoms: C5_12  and  C7_14 
REMARK    5  A    between atoms: C6_13  and  C9_16 
ROOT
HETATM    1  N1  UNK     1      19.488  -2.983  36.964  1.00  0.00     0.096 N 
HETATM    2  N2  UNK     1      18.801  -0.463  35.724  1.00  0.00     0.100 N 
HETATM    3  C1  UNK     1      18.677  -1.983  37.669  1.00  0.00     0.303 C 
HETATM    4  C2  UNK     1      20.395  -2.329  36.012  1.00  0.00     0.303 C 
HETATM    5  C3  UNK     1      17.894  -1.117  36.675  1.00  0.00     0.303 C 
HETATM    6  C4  UNK     1      19.611  -1.464  35.019  1.00  0.00     0.303 C 
ENDROOT
BRANCH   1   7
HETATM    7  C5  UNK     1      20.238  -3.805  37.913  1.00  0.00     0.312 C 
BRANCH   7   8
HETATM    8  C7  UNK     1      20.374  -5.214  37.451  1.00  0.00    -0.011 A 
HETATM    9  C10 UNK     1      19.466  -5.766  36.633  1.00  0.00     0.092 A 
HETATM   10  C13 UNK     1      19.560  -7.154  36.151  1.00  0.00     0.288 A 
HETATM   11  O1  UNK     1      20.649  -7.893  36.585  1.00  0.00    -0.275 OA
HETATM   12  O3  UNK     1      18.712  -7.625  35.401  1.00  0.00    -0.260 OA
HETATM   13  C11 UNK     1      21.618  -7.340  37.446  1.00  0.00     0.090 A 
HETATM   14  C8  UNK     1      21.518  -6.023  37.895  1.00  0.00     0.006 A 
HETATM   15  C14 UNK     1      22.672  -8.176  37.819  1.00  0.00     0.045 A 
HETATM   16  C12 UNK     1      22.522  -5.549  38.749  1.00  0.00     0.015 A 
HETATM   17  C16 UNK     1      23.585  -6.375  39.132  1.00  0.00     0.007 A 
HETATM   18  C15 UNK     1      23.660  -7.686  38.668  1.00  0.00    -0.059 A 
HETATM   19  C18 UNK     1      24.795  -8.561  39.079  1.00  0.00     0.048 C 
ENDBRANCH   7   8
ENDBRANCH   1   7
BRANCH   2  20
HETATM   20  C6  UNK     1      18.053   0.360  34.776  1.00  0.00     0.375 C 
BRANCH  20  21
HETATM   21  C9  UNK     1      18.085  -0.294  33.405  1.00  0.00     0.250 C 
HETATM   22  O2  UNK     1      17.326  -1.204  33.088  1.00  0.00    -0.271 OA
HETATM   23  N3  UNK     1      19.067   0.296  32.613  1.00  0.00    -0.323 N 
HETATM   24  H15 UNK     1      19.619   1.052  33.015  1.00  0.00     0.169 HD
BRANCH  23  25
HETATM   25  C17 UNK     1      19.411  -0.027  31.278  1.00  0.00     0.073 A 
HETATM   26  C19 UNK     1      20.085  -1.216  30.996  1.00  0.00     0.143 A 
HETATM   27  F1  UNK     1      20.413  -2.063  31.983  1.00  0.00    -0.204 F 
HETATM   28  C21 UNK     1      20.419  -1.532  29.679  1.00  0.00     0.044 A 
HETATM   29  C23 UNK     1      20.082  -0.659  28.645  1.00  0.00     0.003 A 
HETATM   30  C22 UNK     1      19.408   0.529  28.927  1.00  0.00     0.002 A 
HETATM   31  C20 UNK     1      19.073   0.845  30.243  1.00  0.00     0.033 A 
ENDBRANCH  23  25
ENDBRANCH  20  21
ENDBRANCH   2  20
TORSDOF 5
ENDMDL
MODEL 8
REMARK VINA RESULT:      -9.5      4.423     10.472
REMARK  5 active torsions:
REMARK  status: ('A' for Active; 'I' for Inactive)
REMARK    1  A    between atoms: C5_12  and  N1_5 
REMARK    2  A    between atoms: C6_13  and  N2_6 
REMARK    3  A    between atoms: C17_24  and  N3_7 
REMARK       I    between atoms: C9_16  and  N3_7 
REMARK    4  A    between atoms: C5_12  and  C7_14 
REMARK    5  A    between atoms: C6_13  and  C9_16 
ROOT
HETATM    1  N1  UNK     1      20.118  -3.898  36.460  1.00  0.00     0.096 N 
HETATM    2  N2  UNK     1      20.349  -6.732  36.983  1.00  0.00     0.100 N 
HETATM    3  C1  UNK     1      20.103  -4.879  35.368  1.00  0.00     0.303 C 
HETATM    4  C2  UNK     1      20.907  -4.403  37.592  1.00  0.00     0.303 C 
HETATM    5  C3  UNK     1      19.561  -6.228  35.853  1.00  0.00     0.303 C 
HETATM    6  C4  UNK     1      20.363  -5.752  38.076  1.00  0.00     0.303 C 
ENDROOT
BRANCH   1   7
HETATM    7  C5  UNK     1      20.640  -2.613  35.997  1.00  0.00     0.312 C 
BRANCH   7   8
HETATM    8  C7  UNK     1      19.729  -1.956  35.020  1.00  0.00    -0.011 A 
HETATM    9  C10 UNK     1      19.955  -2.033  33.701  1.00  0.00     0.092 A 
HETATM   10  C13 UNK     1      19.082  -1.399  32.698  1.00  0.00     0.288 A 
HETATM   11  O1  UNK     1      17.986  -0.699  33.179  1.00  0.00    -0.275 OA
HETATM   12  O3  UNK     1      19.320  -1.492  31.499  1.00  0.00    -0.260 OA
HETATM   13  C11 UNK     1      17.723  -0.601  34.560  1.00  0.00     0.090 A 
HETATM   14  C8  UNK     1      18.559  -1.206  35.499  1.00  0.00     0.006 A 
HETATM   15  C14 UNK     1      16.593   0.130  34.929  1.00  0.00     0.045 A 
HETATM   16  C12 UNK     1      18.229  -1.060  36.853  1.00  0.00     0.015 A 
HETATM   17  C16 UNK     1      17.098  -0.331  37.239  1.00  0.00     0.007 A 
HETATM   18  C15 UNK     1      16.281   0.262  36.279  1.00  0.00    -0.059 A 
HETATM   19  C18 UNK     1      15.078   1.037  36.697  1.00  0.00     0.048 C 
ENDBRANCH   7   8
ENDBRANCH   1   7
BRANCH   2  20
HETATM   20  C6  UNK     1      19.829  -8.017  37.446  1.00  0.00     0.375 C 
BRANCH  20  21
HETATM   21  C9  UNK     1      20.987  -8.960  37.723  1.00  0.00     0.250 C 
HETATM   22  O2  UNK     1      21.151  -9.506  38.810  1.00  0.00    -0.271 OA
HETATM   23  N3  UNK     1      21.782  -9.095  36.586  1.00  0.00    -0.323 N 
HETATM   24  H15 UNK     1      21.514  -8.580  35.750  1.00  0.00     0.169 HD
BRANCH  23  25
HETATM   25  C17 UNK     1      22.950  -9.880  36.436  1.00  0.00     0.073 A 
HETATM   26  C19 UNK     1      22.871 -11.152  35.868  1.00  0.00     0.143 A 
HETATM   27  F1  UNK     1      21.693 -11.642  35.457  1.00  0.00    -0.204 F 
HETATM   28  C21 UNK     1      24.025 -11.921  35.719  1.00  0.00     0.044 A 
HETATM   29  C23 UNK     1      25.256 -11.421  36.141  1.00  0.00     0.003 A 
HETATM   30  C22 UNK     1      25.335 -10.150  36.710  1.00  0.00     0.002 A 
HETATM   31  C20 UNK     1      24.182  -9.380  36.857  1.00  0.00     0.033 A 
ENDBRANCH  23  25
ENDBRANCH  20  21
ENDBRANCH   2  20
TORSDOF 5
ENDMDL
MODEL 9
REMARK VINA RESULT:      -9.3      4.440     12.609
REMARK  5 active torsions:
REMARK  status: ('A' for Active; 'I' for Inactive)
REMARK    1  A    between atoms: C5_12  and  N1_5 
REMARK    2  A    between atoms: C6_13  and  N2_6 
REMARK    3  A    between atoms: C17_24  and  N3_7 
REMARK       I    between atoms: C9_16  and  N3_7 
REMARK    4  A    between atoms: C5_12  and  C7_14 
REMARK    5  A    between atoms: C6_13  and  C9_16 
ROOT
HETATM    1  N1  UNK     1      18.059   5.458  31.573  1.00  0.00     0.096 N 
HETATM    2  N2  UNK     1      19.035   2.835  30.849  1.00  0.00     0.100 N 
HETATM    3  C1  UNK     1      18.973   5.271  30.440  1.00  0.00     0.303 C 
HETATM    4  C2  UNK     1      18.281   4.421  32.588  1.00  0.00     0.303 C 
HETATM    5  C3  UNK     1      18.813   3.872  29.834  1.00  0.00     0.303 C 
HETATM    6  C4  UNK     1      18.120   3.022  31.981  1.00  0.00     0.303 C 
ENDROOT
BRANCH   1   7
HETATM    7  C5  UNK     1      18.216   6.792  32.152  1.00  0.00     0.312 C 
BRANCH   7   8
HETATM    8  C7  UNK     1      16.906   7.444  32.426  1.00  0.00    -0.011 A 
HETATM    9  C10 UNK     1      15.754   6.869  32.053  1.00  0.00     0.092 A 
HETATM   10  C13 UNK     1      14.436   7.477  32.302  1.00  0.00     0.288 A 
HETATM   11  O1  UNK     1      14.426   8.700  32.954  1.00  0.00    -0.275 OA
HETATM   12  O3  UNK     1      13.402   6.920  31.948  1.00  0.00    -0.260 OA
HETATM   13  C11 UNK     1      15.621   9.329  33.357  1.00  0.00     0.090 A 
HETATM   14  C8  UNK     1      16.864   8.742  33.114  1.00  0.00     0.006 A 
HETATM   15  C14 UNK     1      15.492  10.559  34.004  1.00  0.00     0.045 A 
HETATM   16  C12 UNK     1      18.004   9.432  33.546  1.00  0.00     0.015 A 
HETATM   17  C16 UNK     1      17.890  10.666  34.196  1.00  0.00     0.007 A 
HETATM   18  C15 UNK     1      16.637  11.228  34.425  1.00  0.00    -0.059 A 
HETATM   19  C18 UNK     1      16.523  12.543  35.119  1.00  0.00     0.048 C 
ENDBRANCH   7   8
ENDBRANCH   1   7
BRANCH   2  20
HETATM   20  C6  UNK     1      18.880   1.502  30.271  1.00  0.00     0.375 C 
BRANCH  20  21
HETATM   21  C9  UNK     1      19.666   0.499  31.097  1.00  0.00     0.250 C 
HETATM   22  O2  UNK     1      20.818   0.175  30.824  1.00  0.00    -0.271 OA
HETATM   23  N3  UNK     1      18.894   0.042  32.163  1.00  0.00    -0.323 N 
HETATM   24  H15 UNK     1      17.950   0.409  32.264  1.00  0.00     0.169 HD
BRANCH  23  25
HETATM   25  C17 UNK     1      19.262  -0.895  33.158  1.00  0.00     0.073 A 
HETATM   26  C19 UNK     1      18.733  -0.796  34.444  1.00  0.00     0.143 A 
HETATM   27  F1  UNK     1      17.871   0.184  34.752  1.00  0.00    -0.204 F 
HETATM   28  C21 UNK     1      19.097  -1.723  35.421  1.00  0.00     0.044 A 
HETATM   29  C23 UNK     1      19.991  -2.748  35.112  1.00  0.00     0.003 A 
HETATM   30  C22 UNK     1      20.520  -2.847  33.825  1.00  0.00     0.002 A 
HETATM   31  C20 UNK     1      20.156  -1.921  32.849  1.00  0.00     0.033 A 
ENDBRANCH  23  25
ENDBRANCH  20  21
ENDBRANCH   2  20
TORSDOF 5
ENDMDL
MODEL 10
REMARK VINA RESULT:      -9.2      6.468      9.408
REMARK  5 active torsions:
REMARK  status: ('A' for Active; 'I' for Inactive)
REMARK    1  A    between atoms: C5_12  and  N1_5 
REMARK    2  A    between atoms: C6_13  and  N2_6 
REMARK    3  A    between atoms: C17_24  and  N3_7 
REMARK       I    between atoms: C9_16  and  N3_7 
REMARK    4  A    between atoms: C5_12  and  C7_14 
REMARK    5  A    between atoms: C6_13  and  C9_16 
ROOT
HETATM    1  N1  UNK     1      18.381   4.921  32.623  1.00  0.00     0.096 N 
HETATM    2  N2  UNK     1      18.483   7.714  33.364  1.00  0.00     0.100 N 
HETATM    3  C1  UNK     1      19.532   5.761  32.272  1.00  0.00     0.303 C 
HETATM    4  C2  UNK     1      17.160   5.732  32.707  1.00  0.00     0.303 C 
HETATM    5  C3  UNK     1      19.703   6.903  33.280  1.00  0.00     0.303 C 
HETATM    6  C4  UNK     1      17.332   6.873  33.716  1.00  0.00     0.303 C 
ENDROOT
BRANCH   1   7
HETATM    7  C5  UNK     1      18.216   3.835  31.658  1.00  0.00     0.312 C 
BRANCH   7   8
HETATM    8  C7  UNK     1      18.411   2.496  32.279  1.00  0.00    -0.011 A 
HETATM    9  C10 UNK     1      18.095   2.275  33.563  1.00  0.00     0.092 A 
HETATM   10  C13 UNK     1      18.270   0.968  34.219  1.00  0.00     0.288 A 
HETATM   11  O1  UNK     1      18.788  -0.056  33.441  1.00  0.00    -0.275 OA
HETATM   12  O3  UNK     1      17.968   0.802  35.396  1.00  0.00    -0.260 OA
HETATM   13  C11 UNK     1      19.130   0.147  32.090  1.00  0.00     0.090 A 
HETATM   14  C8  UNK     1      18.959   1.391  31.480  1.00  0.00     0.006 A 
HETATM   15  C14 UNK     1      19.644  -0.955  31.403  1.00  0.00     0.045 A 
HETATM   16  C12 UNK     1      19.323   1.510  30.133  1.00  0.00     0.015 A 
HETATM   17  C16 UNK     1      19.840   0.415  29.432  1.00  0.00     0.007 A 
HETATM   18  C15 UNK     1      20.000  -0.816  30.066  1.00  0.00    -0.059 A 
HETATM   19  C18 UNK     1      20.550  -1.979  29.312  1.00  0.00     0.048 C 
ENDBRANCH   7   8
ENDBRANCH   1   7
BRANCH   2  20
HETATM   20  C6  UNK     1      18.647   8.800  34.327  1.00  0.00     0.375 C 
BRANCH  20  21
HETATM   21  C9  UNK     1      17.653   9.906  34.015  1.00  0.00     0.250 C 
HETATM   22  O2  UNK     1      17.959  10.911  33.381  1.00  0.00    -0.271 OA
HETATM   23  N3  UNK     1      16.401   9.591  34.540  1.00  0.00    -0.323 N 
HETATM   24  H15 UNK     1      16.299   8.711  35.041  1.00  0.00     0.169 HD
BRANCH  23  25
HETATM   25  C17 UNK     1      15.215  10.360  34.464  1.00  0.00     0.073 A 
HETATM   26  C19 UNK     1      14.528  10.471  33.256  1.00  0.00     0.143 A 
HETATM   27  F1  UNK     1      14.980   9.852  32.155  1.00  0.00    -0.204 F 
HETATM   28  C21 UNK     1      13.358  11.227  33.186  1.00  0.00     0.044 A 
HETATM   29  C23 UNK     1      12.876  11.874  34.323  1.00  0.00     0.003 A 
HETATM   30  C22 UNK     1      13.564  11.763  35.532  1.00  0.00     0.002 A 
HETATM   31  C20 UNK     1      14.733  11.006  35.602  1.00  0.00     0.033 A 
ENDBRANCH  23  25
ENDBRANCH  20  21
ENDBRANCH   2  20
TORSDOF 5
ENDMDL
