MODEL 1
REMARK VINA RESULT:      -9.8      0.000      0.000
REMARK  6 active torsions:
REMARK  status: ('A' for Active; 'I' for Inactive)
REMARK       I    between atoms: C11_20  and  N1_7 
REMARK    1  A    between atoms: N1_7  and  N2_8 
REMARK       I    between atoms: C14_23  and  N2_8 
REMARK    2  A    between atoms: C17_26  and  N3_9 
REMARK    3  A    between atoms: C2_11  and  C4_13 
REMARK    4  A    between atoms: C12_21  and  C4_13 
REMARK    5  A    between atoms: C11_20  and  C8_17 
REMARK    6  A    between atoms: C13_22  and  C14_23 
ROOT
HETATM    1  O3  UNK     1      19.225  -2.499  36.798  1.00  0.00    -0.266 OA
HETATM    2  N1  UNK     1      19.977  -3.584  34.880  1.00  0.00    -0.263 N 
HETATM    3  C11 UNK     1      19.704  -3.477  36.227  1.00  0.00     0.276 C 
HETATM    4  H8  UNK     1      20.408  -4.394  34.445  1.00  0.00     0.190 HD
ENDROOT
BRANCH   3   5
HETATM    5  C8  UNK     1      20.051  -4.693  36.973  1.00  0.00     0.110 A 
HETATM    6  C10 UNK     1      19.127  -5.846  37.068  1.00  0.00     0.304 A 
HETATM    7  O1  UNK     1      19.569  -6.941  37.805  1.00  0.00    -0.273 OA
HETATM    8  O2  UNK     1      18.027  -5.842  36.526  1.00  0.00    -0.259 OA
HETATM    9  C1  UNK     1      20.830  -6.956  38.430  1.00  0.00     0.096 A 
HETATM   10  C2  UNK     1      21.185  -8.098  39.146  1.00  0.00    -0.020 A 
HETATM   11  C3  UNK     1      21.683  -5.862  38.329  1.00  0.00    -0.000 A 
HETATM   12  C6  UNK     1      22.426  -8.143  39.776  1.00  0.00     0.010 A 
HETATM   13  C9  UNK     1      23.295  -7.054  39.685  1.00  0.00     0.002 A 
HETATM   14  C7  UNK     1      22.926  -5.914  38.964  1.00  0.00     0.014 A 
HETATM   15  C5  UNK     1      21.250  -4.702  37.566  1.00  0.00     0.037 A 
BRANCH  10  16
HETATM   16  C4  UNK     1      20.263  -9.267  39.250  1.00  0.00     0.067 C 
BRANCH  16  17
HETATM   17  C12 UNK     1      20.461 -10.274  38.146  1.00  0.00    -0.032 C 
HETATM   18  C20 UNK     1      19.483 -10.717  37.347  1.00  0.00     0.007 C 
ENDBRANCH  16  17
ENDBRANCH  10  16
ENDBRANCH   3   5
BRANCH   2  19
HETATM   19  N2  UNK     1      19.703  -2.519  34.057  1.00  0.00    -0.263 N 
HETATM   20  C14 UNK     1      20.338  -2.444  32.831  1.00  0.00     0.270 C 
HETATM   21  O4  UNK     1      21.144  -3.267  32.406  1.00  0.00    -0.266 OA
HETATM   22  H9  UNK     1      19.089  -1.807  34.437  1.00  0.00     0.190 HD
BRANCH  20  23
HETATM   23  C13 UNK     1      19.976  -1.275  31.989  1.00  0.00     0.033 A 
HETATM   24  C15 UNK     1      19.058  -0.366  32.473  1.00  0.00     0.019 A 
HETATM   25  C18 UNK     1      18.718   0.732  31.683  1.00  0.00     0.037 A 
HETATM   26  C17 UNK     1      19.302   0.896  30.428  1.00  0.00     0.102 A 
HETATM   27  C19 UNK     1      20.228  -0.037  29.961  1.00  0.00     0.037 A 
HETATM   28  C16 UNK     1      20.569  -1.135  30.751  1.00  0.00     0.019 A 
BRANCH  26  29
HETATM   29  N3  UNK     1      18.954   2.013  29.623  1.00  0.00    -0.116 N 
HETATM   30  O5  UNK     1      19.071   3.167  30.100  1.00  0.00    -0.532 OA
HETATM   31  O6  UNK     1      18.538   1.816  28.455  1.00  0.00    -0.532 OA
ENDBRANCH  26  29
ENDBRANCH  20  23
ENDBRANCH   2  19
TORSDOF 6
ENDMDL
MODEL 2
REMARK VINA RESULT:      -9.5      2.344      2.913
REMARK  6 active torsions:
REMARK  status: ('A' for Active; 'I' for Inactive)
REMARK       I    between atoms: C11_20  and  N1_7 
REMARK    1  A    between atoms: N1_7  and  N2_8 
REMARK       I    between atoms: C14_23  and  N2_8 
REMARK    2  A    between atoms: C17_26  and  N3_9 
REMARK    3  A    between atoms: C2_11  and  C4_13 
REMARK    4  A    between atoms: C12_21  and  C4_13 
REMARK    5  A    between atoms: C11_20  and  C8_17 
REMARK    6  A    between atoms: C13_22  and  C14_23 
ROOT
HETATM    1  O3  UNK     1      21.364  -3.175  36.134  1.00  0.00    -0.266 OA
HETATM    2  N1  UNK     1      19.037  -3.249  36.129  1.00  0.00    -0.263 N 
HETATM    3  C11 UNK     1      20.300  -3.730  36.401  1.00  0.00     0.276 C 
HETATM    4  H8  UNK     1      18.178  -3.750  36.330  1.00  0.00     0.190 HD
ENDROOT
BRANCH   3   5
HETATM    5  C8  UNK     1      20.277  -5.035  37.073  1.00  0.00     0.110 A 
HETATM    6  C10 UNK     1      19.172  -6.000  36.872  1.00  0.00     0.304 A 
HETATM    7  O1  UNK     1      19.261  -7.204  37.565  1.00  0.00    -0.273 OA
HETATM    8  O2  UNK     1      18.223  -5.757  36.134  1.00  0.00    -0.259 OA
HETATM    9  C1  UNK     1      20.346  -7.494  38.415  1.00  0.00     0.096 A 
HETATM   10  C2  UNK     1      20.348  -8.727  39.065  1.00  0.00    -0.020 A 
HETATM   11  C3  UNK     1      21.373  -6.573  38.589  1.00  0.00    -0.000 A 
HETATM   12  C6  UNK     1      21.407  -9.042  39.912  1.00  0.00     0.010 A 
HETATM   13  C9  UNK     1      22.447  -8.130  40.100  1.00  0.00     0.002 A 
HETATM   14  C7  UNK     1      22.432  -6.897  39.441  1.00  0.00     0.014 A 
HETATM   15  C5  UNK     1      21.309  -5.305  37.879  1.00  0.00     0.037 A 
BRANCH  10  16
HETATM   16  C4  UNK     1      19.241  -9.708  38.872  1.00  0.00     0.067 C 
BRANCH  16  17
HETATM   17  C12 UNK     1      19.630 -10.870  37.994  1.00  0.00    -0.032 C 
HETATM   18  C20 UNK     1      20.443 -10.774  36.936  1.00  0.00     0.007 C 
ENDBRANCH  16  17
ENDBRANCH  10  16
ENDBRANCH   3   5
BRANCH   2  19
HETATM   19  N2  UNK     1      18.907  -2.035  35.499  1.00  0.00    -0.263 N 
HETATM   20  C14 UNK     1      18.572  -0.926  36.253  1.00  0.00     0.270 C 
HETATM   21  O4  UNK     1      18.377  -0.933  37.465  1.00  0.00    -0.266 OA
HETATM   22  H9  UNK     1      19.002  -2.043  34.489  1.00  0.00     0.190 HD
BRANCH  20  23
HETATM   23  C13 UNK     1      18.468   0.353  35.505  1.00  0.00     0.033 A 
HETATM   24  C15 UNK     1      18.610   1.540  36.194  1.00  0.00     0.019 A 
HETATM   25  C18 UNK     1      18.512   2.741  35.492  1.00  0.00     0.037 A 
HETATM   26  C17 UNK     1      18.273   2.729  34.118  1.00  0.00     0.102 A 
HETATM   27  C19 UNK     1      18.134   1.516  33.445  1.00  0.00     0.037 A 
HETATM   28  C16 UNK     1      18.232   0.314  34.146  1.00  0.00     0.019 A 
BRANCH  26  29
HETATM   29  N3  UNK     1      18.172   3.952  33.405  1.00  0.00    -0.116 N 
HETATM   30  O5  UNK     1      18.724   4.977  33.872  1.00  0.00    -0.532 OA
HETATM   31  O6  UNK     1      17.532   3.976  32.325  1.00  0.00    -0.532 OA
ENDBRANCH  26  29
ENDBRANCH  20  23
ENDBRANCH   2  19
TORSDOF 6
ENDMDL
MODEL 3
REMARK VINA RESULT:      -9.3      3.563     11.045
REMARK  6 active torsions:
REMARK  status: ('A' for Active; 'I' for Inactive)
REMARK       I    between atoms: C11_20  and  N1_7 
REMARK    1  A    between atoms: N1_7  and  N2_8 
REMARK       I    between atoms: C14_23  and  N2_8 
REMARK    2  A    between atoms: C17_26  and  N3_9 
REMARK    3  A    between atoms: C2_11  and  C4_13 
REMARK    4  A    between atoms: C12_21  and  C4_13 
REMARK    5  A    between atoms: C11_20  and  C8_17 
REMARK    6  A    between atoms: C13_22  and  C14_23 
ROOT
HETATM    1  O3  UNK     1      17.301  -0.958  33.796  1.00  0.00    -0.266 OA
HETATM    2  N1  UNK     1      19.064  -0.578  35.269  1.00  0.00    -0.263 N 
HETATM    3  C11 UNK     1      18.138  -0.220  34.312  1.00  0.00     0.276 C 
HETATM    4  H8  UNK     1      19.767   0.047  35.649  1.00  0.00     0.190 HD
ENDROOT
BRANCH   3   5
HETATM    5  C8  UNK     1      18.237   1.194  33.930  1.00  0.00     0.110 A 
HETATM    6  C10 UNK     1      18.189   2.282  34.934  1.00  0.00     0.304 A 
HETATM    7  O1  UNK     1      18.291   3.583  34.449  1.00  0.00    -0.273 OA
HETATM    8  O2  UNK     1      18.067   2.055  36.133  1.00  0.00    -0.259 OA
HETATM    9  C1  UNK     1      18.433   3.855  33.074  1.00  0.00     0.096 A 
HETATM   10  C2  UNK     1      18.528   5.190  32.685  1.00  0.00    -0.020 A 
HETATM   11  C3  UNK     1      18.475   2.818  32.149  1.00  0.00    -0.000 A 
HETATM   12  C6  UNK     1      18.668   5.491  31.333  1.00  0.00     0.010 A 
HETATM   13  C9  UNK     1      18.712   4.463  30.389  1.00  0.00     0.002 A 
HETATM   14  C7  UNK     1      18.615   3.128  30.794  1.00  0.00     0.014 A 
HETATM   15  C5  UNK     1      18.371   1.447  32.624  1.00  0.00     0.037 A 
BRANCH  10  16
HETATM   16  C4  UNK     1      18.480   6.296  33.686  1.00  0.00     0.067 C 
BRANCH  16  17
HETATM   17  C12 UNK     1      19.610   7.282  33.527  1.00  0.00    -0.032 C 
HETATM   18  C20 UNK     1      19.747   8.393  34.259  1.00  0.00     0.007 C 
ENDBRANCH  16  17
ENDBRANCH  10  16
ENDBRANCH   3   5
BRANCH   2  19
HETATM   19  N2  UNK     1      19.089  -1.875  35.721  1.00  0.00    -0.263 N 
HETATM   20  C14 UNK     1      20.297  -2.546  35.753  1.00  0.00     0.270 C 
HETATM   21  O4  UNK     1      21.374  -2.071  35.403  1.00  0.00    -0.266 OA
HETATM   22  H9  UNK     1      18.190  -2.287  35.946  1.00  0.00     0.190 HD
BRANCH  20  23
HETATM   23  C13 UNK     1      20.247  -3.937  36.272  1.00  0.00     0.033 A 
HETATM   24  C15 UNK     1      19.866  -4.952  35.420  1.00  0.00     0.019 A 
HETATM   25  C18 UNK     1      19.818  -6.258  35.907  1.00  0.00     0.037 A 
HETATM   26  C17 UNK     1      20.152  -6.520  37.235  1.00  0.00     0.102 A 
HETATM   27  C19 UNK     1      20.533  -5.475  38.078  1.00  0.00     0.037 A 
HETATM   28  C16 UNK     1      20.581  -4.169  37.591  1.00  0.00     0.019 A 
BRANCH  26  29
HETATM   29  N3  UNK     1      20.101  -7.849  37.731  1.00  0.00    -0.116 N 
HETATM   30  O5  UNK     1      19.058  -8.246  38.304  1.00  0.00    -0.532 OA
HETATM   31  O6  UNK     1      21.102  -8.593  37.583  1.00  0.00    -0.532 OA
ENDBRANCH  26  29
ENDBRANCH  20  23
ENDBRANCH   2  19
TORSDOF 6
ENDMDL
MODEL 4
REMARK VINA RESULT:      -8.9     15.901     21.915
REMARK  6 active torsions:
REMARK  status: ('A' for Active; 'I' for Inactive)
REMARK       I    between atoms: C11_20  and  N1_7 
REMARK    1  A    between atoms: N1_7  and  N2_8 
REMARK       I    between atoms: C14_23  and  N2_8 
REMARK    2  A    between atoms: C17_26  and  N3_9 
REMARK    3  A    between atoms: C2_11  and  C4_13 
REMARK    4  A    between atoms: C12_21  and  C4_13 
REMARK    5  A    between atoms: C11_20  and  C8_17 
REMARK    6  A    between atoms: C13_22  and  C14_23 
ROOT
HETATM    1  O3  UNK     1      21.036  -2.850  15.652  1.00  0.00    -0.266 OA
HETATM    2  N1  UNK     1      19.041  -1.657  15.523  1.00  0.00    -0.263 N 
HETATM    3  C11 UNK     1      20.006  -2.527  15.064  1.00  0.00     0.276 C 
HETATM    4  H8  UNK     1      18.219  -1.382  14.996  1.00  0.00     0.190 HD
ENDROOT
BRANCH   3   5
HETATM    5  C8  UNK     1      19.693  -3.070  13.736  1.00  0.00     0.110 A 
HETATM    6  C10 UNK     1      18.619  -4.068  13.530  1.00  0.00     0.304 A 
HETATM    7  O1  UNK     1      18.417  -4.509  12.225  1.00  0.00    -0.273 OA
HETATM    8  O2  UNK     1      17.937  -4.488  14.459  1.00  0.00    -0.259 OA
HETATM    9  C1  UNK     1      19.194  -4.031  11.151  1.00  0.00     0.096 A 
HETATM   10  C2  UNK     1      18.917  -4.531   9.880  1.00  0.00    -0.020 A 
HETATM   11  C3  UNK     1      20.198  -3.094  11.367  1.00  0.00    -0.000 A 
HETATM   12  C6  UNK     1      19.668  -4.078   8.798  1.00  0.00     0.010 A 
HETATM   13  C9  UNK     1      20.681  -3.137   8.995  1.00  0.00     0.002 A 
HETATM   14  C7  UNK     1      20.948  -2.645  10.277  1.00  0.00     0.014 A 
HETATM   15  C5  UNK     1      20.434  -2.614  12.720  1.00  0.00     0.037 A 
BRANCH  10  16
HETATM   16  C4  UNK     1      17.838  -5.537   9.659  1.00  0.00     0.067 C 
BRANCH  16  17
HETATM   17  C12 UNK     1      17.023  -5.263   8.421  1.00  0.00    -0.032 C 
HETATM   18  C20 UNK     1      16.824  -6.150   7.440  1.00  0.00     0.007 C 
ENDBRANCH  16  17
ENDBRANCH  10  16
ENDBRANCH   3   5
BRANCH   2  19
HETATM   19  N2  UNK     1      19.203  -1.070  16.755  1.00  0.00    -0.263 N 
HETATM   20  C14 UNK     1      19.213   0.309  16.839  1.00  0.00     0.270 C 
HETATM   21  O4  UNK     1      19.087   1.073  15.886  1.00  0.00    -0.266 OA
HETATM   22  H9  UNK     1      19.374  -1.700  17.531  1.00  0.00     0.190 HD
BRANCH  20  23
HETATM   23  C13 UNK     1      19.373   0.870  18.206  1.00  0.00     0.033 A 
HETATM   24  C15 UNK     1      19.451   2.238  18.358  1.00  0.00     0.019 A 
HETATM   25  C18 UNK     1      19.602   2.765  19.641  1.00  0.00     0.037 A 
HETATM   26  C17 UNK     1      19.673   1.912  20.742  1.00  0.00     0.102 A 
HETATM   27  C19 UNK     1      19.592   0.531  20.560  1.00  0.00     0.037 A 
HETATM   28  C16 UNK     1      19.441   0.004  19.278  1.00  0.00     0.019 A 
BRANCH  26  29
HETATM   29  N3  UNK     1      19.828   2.448  22.047  1.00  0.00    -0.116 N 
HETATM   30  O5  UNK     1      18.850   3.011  22.594  1.00  0.00    -0.532 OA
HETATM   31  O6  UNK     1      20.941   2.344  22.620  1.00  0.00    -0.532 OA
ENDBRANCH  26  29
ENDBRANCH  20  23
ENDBRANCH   2  19
TORSDOF 6
ENDMDL
MODEL 5
REMARK VINA RESULT:      -8.8      2.509     10.530
REMARK  6 active torsions:
REMARK  status: ('A' for Active; 'I' for Inactive)
REMARK       I    between atoms: C11_20  and  N1_7 
REMARK    1  A    between atoms: N1_7  and  N2_8 
REMARK       I    between atoms: C14_23  and  N2_8 
REMARK    2  A    between atoms: C17_26  and  N3_9 
REMARK    3  A    between atoms: C2_11  and  C4_13 
REMARK    4  A    between atoms: C12_21  and  C4_13 
REMARK    5  A    between atoms: C11_20  and  C8_17 
REMARK    6  A    between atoms: C13_22  and  C14_23 
ROOT
HETATM    1  O3  UNK     1      21.372  -2.081  35.205  1.00  0.00    -0.266 OA
HETATM    2  N1  UNK     1      19.553  -3.436  34.682  1.00  0.00    -0.263 N 
HETATM    3  C11 UNK     1      20.388  -2.353  34.519  1.00  0.00     0.276 C 
HETATM    4  H8  UNK     1      18.726  -3.612  34.121  1.00  0.00     0.190 HD
ENDROOT
BRANCH   3   5
HETATM    5  C8  UNK     1      19.988  -1.493  33.398  1.00  0.00     0.110 A 
HETATM    6  C10 UNK     1      19.172  -0.273  33.598  1.00  0.00     0.304 A 
HETATM    7  O1  UNK     1      18.855   0.460  32.458  1.00  0.00    -0.273 OA
HETATM    8  O2  UNK     1      18.793   0.079  34.710  1.00  0.00    -0.259 OA
HETATM    9  C1  UNK     1      19.288   0.066  31.177  1.00  0.00     0.096 A 
HETATM   10  C2  UNK     1      18.921   0.865  30.095  1.00  0.00    -0.020 A 
HETATM   11  C3  UNK     1      20.053  -1.084  31.011  1.00  0.00    -0.000 A 
HETATM   12  C6  UNK     1      19.332   0.500  28.816  1.00  0.00     0.010 A 
HETATM   13  C9  UNK     1      20.101  -0.651  28.630  1.00  0.00     0.002 A 
HETATM   14  C7  UNK     1      20.462  -1.443  29.725  1.00  0.00     0.014 A 
HETATM   15  C5  UNK     1      20.401  -1.872  32.184  1.00  0.00     0.037 A 
BRANCH  10  16
HETATM   16  C4  UNK     1      18.099   2.096  30.283  1.00  0.00     0.067 C 
BRANCH  16  17
HETATM   17  C12 UNK     1      18.909   3.363  30.200  1.00  0.00    -0.032 C 
HETATM   18  C20 UNK     1      18.764   4.405  31.027  1.00  0.00     0.007 C 
ENDBRANCH  16  17
ENDBRANCH  10  16
ENDBRANCH   3   5
BRANCH   2  19
HETATM   19  N2  UNK     1      19.806  -4.328  35.696  1.00  0.00    -0.263 N 
HETATM   20  C14 UNK     1      20.193  -5.614  35.371  1.00  0.00     0.270 C 
HETATM   21  O4  UNK     1      20.334  -6.038  34.227  1.00  0.00    -0.266 OA
HETATM   22  H9  UNK     1      19.625  -3.997  36.637  1.00  0.00     0.190 HD
BRANCH  20  23
HETATM   23  C13 UNK     1      20.468  -6.514  36.521  1.00  0.00     0.033 A 
HETATM   24  C15 UNK     1      20.005  -7.812  36.474  1.00  0.00     0.019 A 
HETATM   25  C18 UNK     1      20.261  -8.658  37.554  1.00  0.00     0.037 A 
HETATM   26  C17 UNK     1      20.974  -8.185  38.655  1.00  0.00     0.102 A 
HETATM   27  C19 UNK     1      21.431  -6.867  38.678  1.00  0.00     0.037 A 
HETATM   28  C16 UNK     1      21.175  -6.022  37.598  1.00  0.00     0.019 A 
BRANCH  26  29
HETATM   29  N3  UNK     1      21.234  -9.045  39.755  1.00  0.00    -0.116 N 
HETATM   30  O5  UNK     1      20.408  -9.949  40.029  1.00  0.00    -0.532 OA
HETATM   31  O6  UNK     1      22.283  -8.879  40.424  1.00  0.00    -0.532 OA
ENDBRANCH  26  29
ENDBRANCH  20  23
ENDBRANCH   2  19
TORSDOF 6
ENDMDL
MODEL 6
REMARK VINA RESULT:      -8.6      5.972     10.073
REMARK  6 active torsions:
REMARK  status: ('A' for Active; 'I' for Inactive)
REMARK       I    between atoms: C11_20  and  N1_7 
REMARK    1  A    between atoms: N1_7  and  N2_8 
REMARK       I    between atoms: C14_23  and  N2_8 
REMARK    2  A    between atoms: C17_26  and  N3_9 
REMARK    3  A    between atoms: C2_11  and  C4_13 
REMARK    4  A    between atoms: C12_21  and  C4_13 
REMARK    5  A    between atoms: C11_20  and  C8_17 
REMARK    6  A    between atoms: C13_22  and  C14_23 
ROOT
HETATM    1  O3  UNK     1      17.187   4.430  31.317  1.00  0.00    -0.266 OA
HETATM    2  N1  UNK     1      18.411   4.472  33.296  1.00  0.00    -0.263 N 
HETATM    3  C11 UNK     1      17.931   3.899  32.138  1.00  0.00     0.276 C 
HETATM    4  H8  UNK     1      18.995   3.993  33.974  1.00  0.00     0.190 HD
ENDROOT
BRANCH   3   5
HETATM    5  C8  UNK     1      18.402   2.522  31.951  1.00  0.00     0.110 A 
HETATM    6  C10 UNK     1      18.321   1.511  33.031  1.00  0.00     0.304 A 
HETATM    7  O1  UNK     1      18.801   0.239  32.733  1.00  0.00    -0.273 OA
HETATM    8  O2  UNK     1      17.853   1.776  34.133  1.00  0.00    -0.259 OA
HETATM    9  C1  UNK     1      19.339  -0.076  31.470  1.00  0.00     0.096 A 
HETATM   10  C2  UNK     1      19.794  -1.377  31.266  1.00  0.00    -0.020 A 
HETATM   11  C3  UNK     1      19.407   0.888  30.470  1.00  0.00    -0.000 A 
HETATM   12  C6  UNK     1      20.332  -1.718  30.028  1.00  0.00     0.010 A 
HETATM   13  C9  UNK     1      20.409  -0.764  29.012  1.00  0.00     0.002 A 
HETATM   14  C7  UNK     1      19.948   0.538  29.231  1.00  0.00     0.014 A 
HETATM   15  C5  UNK     1      18.913   2.228  30.750  1.00  0.00     0.037 A 
BRANCH  10  16
HETATM   16  C4  UNK     1      19.718  -2.405  32.346  1.00  0.00     0.067 C 
BRANCH  16  17
HETATM   17  C12 UNK     1      20.772  -2.222  33.408  1.00  0.00    -0.032 C 
HETATM   18  C20 UNK     1      20.547  -2.348  34.720  1.00  0.00     0.007 C 
ENDBRANCH  16  17
ENDBRANCH  10  16
ENDBRANCH   3   5
BRANCH   2  19
HETATM   19  N2  UNK     1      18.049   5.762  33.603  1.00  0.00    -0.263 N 
HETATM   20  C14 UNK     1      18.875   6.797  33.208  1.00  0.00     0.270 C 
HETATM   21  O4  UNK     1      19.929   6.660  32.593  1.00  0.00    -0.266 OA
HETATM   22  H9  UNK     1      17.214   5.869  34.168  1.00  0.00     0.190 HD
BRANCH  20  23
HETATM   23  C13 UNK     1      18.407   8.163  33.558  1.00  0.00     0.033 A 
HETATM   24  C15 UNK     1      19.338   9.108  33.936  1.00  0.00     0.019 A 
HETATM   25  C18 UNK     1      18.900  10.390  34.266  1.00  0.00     0.037 A 
HETATM   26  C17 UNK     1      17.541  10.699  34.210  1.00  0.00     0.102 A 
HETATM   27  C19 UNK     1      16.619   9.725  33.824  1.00  0.00     0.037 A 
HETATM   28  C16 UNK     1      17.058   8.443  33.494  1.00  0.00     0.019 A 
BRANCH  26  29
HETATM   29  N3  UNK     1      17.095  12.004  34.547  1.00  0.00    -0.116 N 
HETATM   30  O5  UNK     1      17.472  12.975  33.848  1.00  0.00    -0.532 OA
HETATM   31  O6  UNK     1      16.335  12.152  35.535  1.00  0.00    -0.532 OA
ENDBRANCH  26  29
ENDBRANCH  20  23
ENDBRANCH   2  19
TORSDOF 6
ENDMDL
MODEL 7
REMARK VINA RESULT:      -8.6      8.797     14.910
REMARK  6 active torsions:
REMARK  status: ('A' for Active; 'I' for Inactive)
REMARK       I    between atoms: C11_20  and  N1_7 
REMARK    1  A    between atoms: N1_7  and  N2_8 
REMARK       I    between atoms: C14_23  and  N2_8 
REMARK    2  A    between atoms: C17_26  and  N3_9 
REMARK    3  A    between atoms: C2_11  and  C4_13 
REMARK    4  A    between atoms: C12_21  and  C4_13 
REMARK    5  A    between atoms: C11_20  and  C8_17 
REMARK    6  A    between atoms: C13_22  and  C14_23 
ROOT
HETATM    1  O3  UNK     1      16.056   8.407  31.099  1.00  0.00    -0.266 OA
HETATM    2  N1  UNK     1      16.127   6.940  32.906  1.00  0.00    -0.263 N 
HETATM    3  C11 UNK     1      15.894   8.151  32.291  1.00  0.00     0.276 C 
HETATM    4  H8  UNK     1      16.019   6.772  33.901  1.00  0.00     0.190 HD
ENDROOT
BRANCH   3   5
HETATM    5  C8  UNK     1      15.413   9.177  33.224  1.00  0.00     0.110 A 
HETATM    6  C10 UNK     1      16.119   9.478  34.491  1.00  0.00     0.304 A 
HETATM    7  O1  UNK     1      15.565  10.471  35.294  1.00  0.00    -0.273 OA
HETATM    8  O2  UNK     1      17.142   8.887  34.820  1.00  0.00    -0.259 OA
HETATM    9  C1  UNK     1      14.392  11.158  34.924  1.00  0.00     0.096 A 
HETATM   10  C2  UNK     1      13.914  12.136  35.793  1.00  0.00    -0.020 A 
HETATM   11  C3  UNK     1      13.744  10.859  33.731  1.00  0.00    -0.000 A 
HETATM   12  C6  UNK     1      12.755  12.832  35.456  1.00  0.00     0.010 A 
HETATM   13  C9  UNK     1      12.091  12.546  34.261  1.00  0.00     0.002 A 
HETATM   14  C7  UNK     1      12.583  11.561  33.399  1.00  0.00     0.014 A 
HETATM   15  C5  UNK     1      14.298   9.826  32.869  1.00  0.00     0.037 A 
BRANCH  10  16
HETATM   16  C4  UNK     1      14.615  12.449  37.073  1.00  0.00     0.067 C 
BRANCH  16  17
HETATM   17  C12 UNK     1      13.741  12.256  38.286  1.00  0.00    -0.032 C 
HETATM   18  C20 UNK     1      13.304  11.067  38.716  1.00  0.00     0.007 C 
ENDBRANCH  16  17
ENDBRANCH  10  16
ENDBRANCH   3   5
BRANCH   2  19
HETATM   19  N2  UNK     1      16.583   5.886  32.153  1.00  0.00    -0.263 N 
HETATM   20  C14 UNK     1      17.772   5.278  32.509  1.00  0.00     0.270 C 
HETATM   21  O4  UNK     1      18.472   5.607  33.463  1.00  0.00    -0.266 OA
HETATM   22  H9  UNK     1      16.039   5.658  31.327  1.00  0.00     0.190 HD
BRANCH  20  23
HETATM   23  C13 UNK     1      18.190   4.133  31.659  1.00  0.00     0.033 A 
HETATM   24  C15 UNK     1      18.545   4.373  30.348  1.00  0.00     0.019 A 
HETATM   25  C18 UNK     1      18.936   3.299  29.549  1.00  0.00     0.037 A 
HETATM   26  C17 UNK     1      18.964   2.010  30.079  1.00  0.00     0.102 A 
HETATM   27  C19 UNK     1      18.600   1.793  31.408  1.00  0.00     0.037 A 
HETATM   28  C16 UNK     1      18.209   2.867  32.207  1.00  0.00     0.019 A 
BRANCH  26  29
HETATM   29  N3  UNK     1      19.361   0.916  29.265  1.00  0.00    -0.116 N 
HETATM   30  O5  UNK     1      20.358   0.235  29.605  1.00  0.00    -0.532 OA
HETATM   31  O6  UNK     1      18.704   0.659  28.226  1.00  0.00    -0.532 OA
ENDBRANCH  26  29
ENDBRANCH  20  23
ENDBRANCH   2  19
TORSDOF 6
ENDMDL
MODEL 8
REMARK VINA RESULT:      -8.6     16.228     22.191
REMARK  6 active torsions:
REMARK  status: ('A' for Active; 'I' for Inactive)
REMARK       I    between atoms: C11_20  and  N1_7 
REMARK    1  A    between atoms: N1_7  and  N2_8 
REMARK       I    between atoms: C14_23  and  N2_8 
REMARK    2  A    between atoms: C17_26  and  N3_9 
REMARK    3  A    between atoms: C2_11  and  C4_13 
REMARK    4  A    between atoms: C12_21  and  C4_13 
REMARK    5  A    between atoms: C11_20  and  C8_17 
REMARK    6  A    between atoms: C13_22  and  C14_23 
ROOT
HETATM    1  O3  UNK     1      21.255  -2.475  14.701  1.00  0.00    -0.266 OA
HETATM    2  N1  UNK     1      19.127  -1.531  14.706  1.00  0.00    -0.263 N 
HETATM    3  C11 UNK     1      20.127  -2.351  14.230  1.00  0.00     0.276 C 
HETATM    4  H8  UNK     1      18.217  -1.423  14.271  1.00  0.00     0.190 HD
ENDROOT
BRANCH   3   5
HETATM    5  C8  UNK     1      19.717  -3.110  13.041  1.00  0.00     0.110 A 
HETATM    6  C10 UNK     1      18.975  -2.479  11.926  1.00  0.00     0.304 A 
HETATM    7  O1  UNK     1      18.641  -3.303  10.853  1.00  0.00    -0.273 OA
HETATM    8  O2  UNK     1      18.669  -1.292  11.939  1.00  0.00    -0.259 OA
HETATM    9  C1  UNK     1      18.989  -4.667  10.828  1.00  0.00     0.096 A 
HETATM   10  C2  UNK     1      18.611  -5.410   9.711  1.00  0.00    -0.020 A 
HETATM   11  C3  UNK     1      19.685  -5.240  11.886  1.00  0.00    -0.000 A 
HETATM   12  C6  UNK     1      18.941  -6.762   9.656  1.00  0.00     0.010 A 
HETATM   13  C9  UNK     1      19.639  -7.355  10.710  1.00  0.00     0.002 A 
HETATM   14  C7  UNK     1      20.012  -6.596  11.825  1.00  0.00     0.014 A 
HETATM   15  C5  UNK     1      20.049  -4.406  13.022  1.00  0.00     0.037 A 
BRANCH  10  16
HETATM   16  C4  UNK     1      17.863  -4.787   8.580  1.00  0.00     0.067 C 
BRANCH  16  17
HETATM   17  C12 UNK     1      18.738  -4.491   7.388  1.00  0.00    -0.032 C 
HETATM   18  C20 UNK     1      19.842  -3.737   7.435  1.00  0.00     0.007 C 
ENDBRANCH  16  17
ENDBRANCH  10  16
ENDBRANCH   3   5
BRANCH   2  19
HETATM   19  N2  UNK     1      19.371  -0.758  15.816  1.00  0.00    -0.263 N 
HETATM   20  C14 UNK     1      18.547  -0.894  16.917  1.00  0.00     0.270 C 
HETATM   21  O4  UNK     1      17.593  -1.664  16.990  1.00  0.00    -0.266 OA
HETATM   22  H9  UNK     1      20.117  -0.075  15.730  1.00  0.00     0.190 HD
BRANCH  20  23
HETATM   23  C13 UNK     1      18.885  -0.040  18.084  1.00  0.00     0.033 A 
HETATM   24  C15 UNK     1      19.089  -0.638  19.310  1.00  0.00     0.019 A 
HETATM   25  C18 UNK     1      19.406   0.163  20.406  1.00  0.00     0.037 A 
HETATM   26  C17 UNK     1      19.511   1.545  20.253  1.00  0.00     0.102 A 
HETATM   27  C19 UNK     1      19.300   2.127  19.002  1.00  0.00     0.037 A 
HETATM   28  C16 UNK     1      18.983   1.325  17.905  1.00  0.00     0.019 A 
BRANCH  26  29
HETATM   29  N3  UNK     1      19.832   2.361  21.369  1.00  0.00    -0.116 N 
HETATM   30  O5  UNK     1      21.031   2.664  21.577  1.00  0.00    -0.532 OA
HETATM   31  O6  UNK     1      18.907   2.759  22.119  1.00  0.00    -0.532 OA
ENDBRANCH  26  29
ENDBRANCH  20  23
ENDBRANCH   2  19
TORSDOF 6
ENDMDL
MODEL 9
REMARK VINA RESULT:      -8.6     16.793     22.784
REMARK  6 active torsions:
REMARK  status: ('A' for Active; 'I' for Inactive)
REMARK       I    between atoms: C11_20  and  N1_7 
REMARK    1  A    between atoms: N1_7  and  N2_8 
REMARK       I    between atoms: C14_23  and  N2_8 
REMARK    2  A    between atoms: C17_26  and  N3_9 
REMARK    3  A    between atoms: C2_11  and  C4_13 
REMARK    4  A    between atoms: C12_21  and  C4_13 
REMARK    5  A    between atoms: C11_20  and  C8_17 
REMARK    6  A    between atoms: C13_22  and  C14_23 
ROOT
HETATM    1  O3  UNK     1      21.435  -1.538  13.742  1.00  0.00    -0.266 OA
HETATM    2  N1  UNK     1      19.177  -1.420  14.297  1.00  0.00    -0.263 N 
HETATM    3  C11 UNK     1      20.255  -1.810  13.531  1.00  0.00     0.276 C 
HETATM    4  H8  UNK     1      18.210  -1.631  14.075  1.00  0.00     0.190 HD
ENDROOT
BRANCH   3   5
HETATM    5  C8  UNK     1      19.862  -2.622  12.373  1.00  0.00     0.110 A 
HETATM    6  C10 UNK     1      18.854  -3.701  12.478  1.00  0.00     0.304 A 
HETATM    7  O1  UNK     1      18.566  -4.403  11.310  1.00  0.00    -0.273 OA
HETATM    8  O2  UNK     1      18.296  -3.968  13.537  1.00  0.00    -0.259 OA
HETATM    9  C1  UNK     1      19.199  -4.104  10.088  1.00  0.00     0.096 A 
HETATM   10  C2  UNK     1      18.845  -4.860   8.973  1.00  0.00    -0.020 A 
HETATM   11  C3  UNK     1      20.144  -3.086  10.012  1.00  0.00    -0.000 A 
HETATM   12  C6  UNK     1      19.454  -4.589   7.751  1.00  0.00     0.010 A 
HETATM   13  C9  UNK     1      20.406  -3.571   7.655  1.00  0.00     0.002 A 
HETATM   14  C7  UNK     1      20.751  -2.820   8.783  1.00  0.00     0.014 A 
HETATM   15  C5  UNK     1      20.467  -2.335  11.215  1.00  0.00     0.037 A 
BRANCH  10  16
HETATM   16  C4  UNK     1      17.830  -5.951   9.065  1.00  0.00     0.067 C 
BRANCH  16  17
HETATM   17  C12 UNK     1      16.747  -5.837   8.022  1.00  0.00    -0.032 C 
HETATM   18  C20 UNK     1      16.352  -6.844   7.235  1.00  0.00     0.007 C 
ENDBRANCH  16  17
ENDBRANCH  10  16
ENDBRANCH   3   5
BRANCH   2  19
HETATM   19  N2  UNK     1      19.396  -0.652  15.415  1.00  0.00    -0.263 N 
HETATM   20  C14 UNK     1      18.669  -0.920  16.560  1.00  0.00     0.270 C 
HETATM   21  O4  UNK     1      17.826  -1.806  16.666  1.00  0.00    -0.266 OA
HETATM   22  H9  UNK     1      20.043   0.121  15.306  1.00  0.00     0.190 HD
BRANCH  20  23
HETATM   23  C13 UNK     1      18.975  -0.060  17.732  1.00  0.00     0.033 A 
HETATM   24  C15 UNK     1      19.248  -0.660  18.943  1.00  0.00     0.019 A 
HETATM   25  C18 UNK     1      19.534   0.146  20.045  1.00  0.00     0.037 A 
HETATM   26  C17 UNK     1      19.541   1.534  19.910  1.00  0.00     0.102 A 
HETATM   27  C19 UNK     1      19.261   2.117  18.674  1.00  0.00     0.037 A 
HETATM   28  C16 UNK     1      18.975   1.310  17.572  1.00  0.00     0.019 A 
BRANCH  26  29
HETATM   29  N3  UNK     1      19.831   2.355  21.032  1.00  0.00    -0.116 N 
HETATM   30  O5  UNK     1      18.925   2.584  21.869  1.00  0.00    -0.532 OA
HETATM   31  O6  UNK     1      20.986   2.830  21.157  1.00  0.00    -0.532 OA
ENDBRANCH  26  29
ENDBRANCH  20  23
ENDBRANCH   2  19
TORSDOF 6
ENDMDL
MODEL 10
REMARK VINA RESULT:      -8.5      2.601     10.528
REMARK  6 active torsions:
REMARK  status: ('A' for Active; 'I' for Inactive)
REMARK       I    between atoms: C11_20  and  N1_7 
REMARK    1  A    between atoms: N1_7  and  N2_8 
REMARK       I    between atoms: C14_23  and  N2_8 
REMARK    2  A    between atoms: C17_26  and  N3_9 
REMARK    3  A    between atoms: C2_11  and  C4_13 
REMARK    4  A    between atoms: C12_21  and  C4_13 
REMARK    5  A    between atoms: C11_20  and  C8_17 
REMARK    6  A    between atoms: C13_22  and  C14_23 
ROOT
HETATM    1  O3  UNK     1      17.922  -0.966  36.113  1.00  0.00    -0.266 OA
HETATM    2  N1  UNK     1      19.333  -2.079  34.633  1.00  0.00    -0.263 N 
HETATM    3  C11 UNK     1      18.556  -1.024  35.061  1.00  0.00     0.276 C 
HETATM    4  H8  UNK     1      19.815  -2.112  33.741  1.00  0.00     0.190 HD
ENDROOT
BRANCH   3   5
HETATM    5  C8  UNK     1      18.541   0.091  34.107  1.00  0.00     0.110 A 
HETATM    6  C10 UNK     1      18.735  -0.118  32.654  1.00  0.00     0.304 A 
HETATM    7  O1  UNK     1      18.701   1.019  31.849  1.00  0.00    -0.273 OA
HETATM    8  O2  UNK     1      18.915  -1.233  32.176  1.00  0.00    -0.259 OA
HETATM    9  C1  UNK     1      18.493   2.303  32.387  1.00  0.00     0.096 A 
HETATM   10  C2  UNK     1      18.474   3.380  31.502  1.00  0.00    -0.020 A 
HETATM   11  C3  UNK     1      18.314   2.477  33.755  1.00  0.00    -0.000 A 
HETATM   12  C6  UNK     1      18.271   4.663  32.004  1.00  0.00     0.010 A 
HETATM   13  C9  UNK     1      18.089   4.857  33.375  1.00  0.00     0.002 A 
HETATM   14  C7  UNK     1      18.110   3.767  34.251  1.00  0.00     0.014 A 
HETATM   15  C5  UNK     1      18.344   1.310  34.622  1.00  0.00     0.037 A 
BRANCH  10  16
HETATM   16  C4  UNK     1      18.668   3.184  30.036  1.00  0.00     0.067 C 
BRANCH  16  17
HETATM   17  C12 UNK     1      17.800   2.091  29.468  1.00  0.00    -0.032 C 
HETATM   18  C20 UNK     1      17.923   1.599  28.230  1.00  0.00     0.007 C 
ENDBRANCH  16  17
ENDBRANCH  10  16
ENDBRANCH   3   5
BRANCH   2  19
HETATM   19  N2  UNK     1      19.438  -3.196  35.427  1.00  0.00    -0.263 N 
HETATM   20  C14 UNK     1      20.578  -3.366  36.190  1.00  0.00     0.270 C 
HETATM   21  O4  UNK     1      21.526  -2.586  36.219  1.00  0.00    -0.266 OA
HETATM   22  H9  UNK     1      18.685  -3.871  35.350  1.00  0.00     0.190 HD
BRANCH  20  23
HETATM   23  C13 UNK     1      20.610  -4.586  37.036  1.00  0.00     0.033 A 
HETATM   24  C15 UNK     1      19.536  -5.450  36.999  1.00  0.00     0.019 A 
HETATM   25  C18 UNK     1      19.565  -6.595  37.794  1.00  0.00     0.037 A 
HETATM   26  C17 UNK     1      20.667  -6.851  38.608  1.00  0.00     0.102 A 
HETATM   27  C19 UNK     1      21.742  -5.962  38.628  1.00  0.00     0.037 A 
HETATM   28  C16 UNK     1      21.713  -4.816  37.833  1.00  0.00     0.019 A 
BRANCH  26  29
HETATM   29  N3  UNK     1      20.696  -8.017  39.419  1.00  0.00    -0.116 N 
HETATM   30  O5  UNK     1      19.636  -8.665  39.590  1.00  0.00    -0.532 OA
HETATM   31  O6  UNK     1      21.782  -8.368  39.942  1.00  0.00    -0.532 OA
ENDBRANCH  26  29
ENDBRANCH  20  23
ENDBRANCH   2  19
TORSDOF 6
ENDMDL
