MODEL 1
REMARK VINA RESULT:      -8.0      0.000      0.000
REMARK  3 active torsions:
REMARK  status: ('A' for Active; 'I' for Inactive)
REMARK    1  A    between atoms: C7_10  and  O1_1 
REMARK    2  A    between atoms: C15_18  and  N1_3 
REMARK    3  A    between atoms: C10_13  and  C8_11 
ROOT
HETATM    1  O2  UNK     1      17.947   5.785  34.013  1.00  0.00    -0.287 OA
HETATM    2  C1  UNK     1      18.351   2.939  31.016  1.00  0.00     0.047 C 
HETATM    3  C2  UNK     1      19.011   4.298  30.811  1.00  0.00     0.047 C 
HETATM    4  C3  UNK     1      18.370   2.543  32.468  1.00  0.00    -0.010 A 
HETATM    5  C4  UNK     1      18.402   5.325  31.715  1.00  0.00    -0.006 C 
HETATM    6  C5  UNK     1      18.283   3.511  33.483  1.00  0.00     0.024 A 
HETATM    7  C6  UNK     1      18.187   4.954  33.145  1.00  0.00     0.189 C 
HETATM    8  C7  UNK     1      18.416   1.187  32.820  1.00  0.00     0.075 A 
HETATM    9  C8  UNK     1      18.042   6.550  31.309  1.00  0.00     0.022 C 
HETATM   10  C9  UNK     1      18.264   3.121  34.827  1.00  0.00     0.016 A 
HETATM   11  C11 UNK     1      18.402   0.803  34.162  1.00  0.00     0.037 A 
HETATM   12  C12 UNK     1      18.327   1.768  35.163  1.00  0.00     0.004 A 
ENDROOT
BRANCH   9  13
HETATM   13  C10 UNK     1      17.458   7.546  32.154  1.00  0.00    -0.035 A 
HETATM   14  C13 UNK     1      18.259   8.328  33.007  1.00  0.00     0.013 A 
HETATM   15  C16 UNK     1      17.690   9.299  33.830  1.00  0.00     0.030 A 
HETATM   16  C15 UNK     1      16.309   9.506  33.814  1.00  0.00     0.029 A 
HETATM   17  C17 UNK     1      15.501   8.741  32.974  1.00  0.00     0.030 A 
HETATM   18  C14 UNK     1      16.069   7.769  32.152  1.00  0.00     0.013 A 
BRANCH  16  19
HETATM   19  N1  UNK     1      15.734  10.489  34.645  1.00  0.00    -0.390 N 
HETATM   20  C19 UNK     1      16.370  11.781  34.801  1.00  0.00     0.149 C 
HETATM   21  C20 UNK     1      14.492  10.223  35.344  1.00  0.00     0.149 C 
ENDBRANCH  16  19
ENDBRANCH   9  13
BRANCH   8  22
HETATM   22  O1  UNK     1      18.486   0.212  31.868  1.00  0.00    -0.355 OA
HETATM   23  C18 UNK     1      19.046  -1.037  32.264  1.00  0.00     0.210 C 
ENDBRANCH   8  22
TORSDOF 3
ENDMDL
MODEL 2
REMARK VINA RESULT:      -7.8      6.899     11.504
REMARK  3 active torsions:
REMARK  status: ('A' for Active; 'I' for Inactive)
REMARK    1  A    between atoms: C7_10  and  O1_1 
REMARK    2  A    between atoms: C15_18  and  N1_3 
REMARK    3  A    between atoms: C10_13  and  C8_11 
ROOT
HETATM    1  O2  UNK     1      20.562  -3.563  34.510  1.00  0.00    -0.287 OA
HETATM    2  C1  UNK     1      18.376  -0.082  33.913  1.00  0.00     0.047 C 
HETATM    3  C2  UNK     1      19.036  -0.294  35.271  1.00  0.00     0.047 C 
HETATM    4  C3  UNK     1      19.213  -0.671  32.808  1.00  0.00    -0.010 A 
HETATM    5  C4  UNK     1      19.367  -1.739  35.481  1.00  0.00    -0.006 C 
HETATM    6  C5  UNK     1      19.992  -1.820  33.025  1.00  0.00     0.024 A 
HETATM    7  C6  UNK     1      20.020  -2.474  34.358  1.00  0.00     0.189 C 
HETATM    8  C7  UNK     1      19.176  -0.103  31.528  1.00  0.00     0.075 A 
HETATM    9  C8  UNK     1      19.107  -2.401  36.617  1.00  0.00     0.022 C 
HETATM   10  C9  UNK     1      20.735  -2.375  31.976  1.00  0.00     0.016 A 
HETATM   11  C11 UNK     1      19.922  -0.657  30.486  1.00  0.00     0.037 A 
HETATM   12  C12 UNK     1      20.701  -1.789  30.710  1.00  0.00     0.004 A 
ENDROOT
BRANCH   9  13
HETATM   13  C10 UNK     1      19.412  -3.781  36.840  1.00  0.00    -0.035 A 
HETATM   14  C13 UNK     1      20.627  -4.163  37.438  1.00  0.00     0.013 A 
HETATM   15  C16 UNK     1      20.925  -5.508  37.655  1.00  0.00     0.030 A 
HETATM   16  C15 UNK     1      20.012  -6.494  37.279  1.00  0.00     0.029 A 
HETATM   17  C17 UNK     1      18.803  -6.134  36.686  1.00  0.00     0.030 A 
HETATM   18  C14 UNK     1      18.505  -4.790  36.467  1.00  0.00     0.013 A 
BRANCH  16  19
HETATM   19  N1  UNK     1      20.313  -7.854  37.500  1.00  0.00    -0.390 N 
HETATM   20  C19 UNK     1      19.377  -8.706  38.206  1.00  0.00     0.149 C 
HETATM   21  C20 UNK     1      21.554  -8.420  37.012  1.00  0.00     0.149 C 
ENDBRANCH  16  19
ENDBRANCH   9  13
BRANCH   8  22
HETATM   22  O1  UNK     1      18.422   1.004  31.267  1.00  0.00    -0.355 OA
HETATM   23  C18 UNK     1      18.853   1.840  30.196  1.00  0.00     0.210 C 
ENDBRANCH   8  22
TORSDOF 3
ENDMDL
MODEL 3
REMARK VINA RESULT:      -7.2      7.508     11.585
REMARK  3 active torsions:
REMARK  status: ('A' for Active; 'I' for Inactive)
REMARK    1  A    between atoms: C7_10  and  O1_1 
REMARK    2  A    between atoms: C15_18  and  N1_3 
REMARK    3  A    between atoms: C10_13  and  C8_11 
ROOT
HETATM    1  O2  UNK     1      18.698  -5.020  36.778  1.00  0.00    -0.287 OA
HETATM    2  C1  UNK     1      22.094  -7.260  37.615  1.00  0.00     0.047 C 
HETATM    3  C2  UNK     1      21.856  -5.986  38.418  1.00  0.00     0.047 C 
HETATM    4  C3  UNK     1      20.792  -7.929  37.265  1.00  0.00    -0.010 A 
HETATM    5  C4  UNK     1      20.895  -5.082  37.709  1.00  0.00    -0.006 C 
HETATM    6  C5  UNK     1      19.630  -7.173  37.030  1.00  0.00     0.024 A 
HETATM    7  C6  UNK     1      19.657  -5.692  37.140  1.00  0.00     0.189 C 
HETATM    8  C7  UNK     1      20.742  -9.321  37.113  1.00  0.00     0.075 A 
HETATM    9  C8  UNK     1      21.090  -3.765  37.559  1.00  0.00     0.022 C 
HETATM   10  C9  UNK     1      18.437  -7.809  36.669  1.00  0.00     0.016 A 
HETATM   11  C11 UNK     1      19.549  -9.952  36.757  1.00  0.00     0.037 A 
HETATM   12  C12 UNK     1      18.399  -9.198  36.537  1.00  0.00     0.004 A 
ENDROOT
BRANCH   9  13
HETATM   13  C10 UNK     1      20.188  -2.884  36.884  1.00  0.00    -0.035 A 
HETATM   14  C13 UNK     1      20.333  -2.617  35.510  1.00  0.00     0.013 A 
HETATM   15  C16 UNK     1      19.453  -1.758  34.852  1.00  0.00     0.030 A 
HETATM   16  C15 UNK     1      18.413  -1.151  35.557  1.00  0.00     0.029 A 
HETATM   17  C17 UNK     1      18.253  -1.404  36.918  1.00  0.00     0.030 A 
HETATM   18  C14 UNK     1      19.133  -2.262  37.577  1.00  0.00     0.013 A 
BRANCH  16  19
HETATM   19  N1  UNK     1      17.523  -0.283  34.891  1.00  0.00    -0.390 N 
HETATM   20  C19 UNK     1      16.092  -0.503  34.963  1.00  0.00     0.149 C 
HETATM   21  C20 UNK     1      18.026   0.849  34.137  1.00  0.00     0.149 C 
ENDBRANCH  16  19
ENDBRANCH   9  13
BRANCH   8  22
HETATM   22  O1  UNK     1      21.848 -10.093  37.315  1.00  0.00    -0.355 OA
HETATM   23  C18 UNK     1      22.393 -10.751  36.174  1.00  0.00     0.210 C 
ENDBRANCH   8  22
TORSDOF 3
ENDMDL
MODEL 4
REMARK VINA RESULT:      -7.0     15.324     17.370
REMARK  3 active torsions:
REMARK  status: ('A' for Active; 'I' for Inactive)
REMARK    1  A    between atoms: C7_10  and  O1_1 
REMARK    2  A    between atoms: C15_18  and  N1_3 
REMARK    3  A    between atoms: C10_13  and  C8_11 
ROOT
HETATM    1  O2  UNK     1      25.757  -7.950  38.605  1.00  0.00    -0.287 OA
HETATM    2  C1  UNK     1      22.841  -9.645  36.181  1.00  0.00     0.047 C 
HETATM    3  C2  UNK     1      24.091 -10.464  36.483  1.00  0.00     0.047 C 
HETATM    4  C3  UNK     1      22.466  -8.779  37.354  1.00  0.00    -0.010 A 
HETATM    5  C4  UNK     1      25.206  -9.579  36.949  1.00  0.00    -0.006 C 
HETATM    6  C5  UNK     1      23.451  -8.246  38.203  1.00  0.00     0.024 A 
HETATM    7  C6  UNK     1      24.888  -8.540  37.972  1.00  0.00     0.189 C 
HETATM    8  C7  UNK     1      21.123  -8.448  37.575  1.00  0.00     0.075 A 
HETATM    9  C8  UNK     1      26.463  -9.671  36.496  1.00  0.00     0.022 C 
HETATM   10  C9  UNK     1      23.087  -7.412  39.267  1.00  0.00     0.016 A 
HETATM   11  C11 UNK     1      20.763  -7.620  38.639  1.00  0.00     0.037 A 
HETATM   12  C12 UNK     1      21.743  -7.105  39.484  1.00  0.00     0.004 A 
ENDROOT
BRANCH   9  13
HETATM   13  C10 UNK     1      27.544  -8.837  36.925  1.00  0.00    -0.035 A 
HETATM   14  C13 UNK     1      27.772  -7.586  36.322  1.00  0.00     0.013 A 
HETATM   15  C16 UNK     1      28.824  -6.773  36.741  1.00  0.00     0.030 A 
HETATM   16  C15 UNK     1      29.666  -7.195  37.771  1.00  0.00     0.029 A 
HETATM   17  C17 UNK     1      29.455  -8.431  38.380  1.00  0.00     0.030 A 
HETATM   18  C14 UNK     1      28.403  -9.245  37.961  1.00  0.00     0.013 A 
BRANCH  16  19
HETATM   19  N1  UNK     1      30.730  -6.372  38.195  1.00  0.00    -0.390 N 
HETATM   20  C19 UNK     1      32.074  -6.904  38.296  1.00  0.00     0.149 C 
HETATM   21  C20 UNK     1      30.495  -4.980  38.522  1.00  0.00     0.149 C 
ENDBRANCH  16  19
ENDBRANCH   9  13
BRANCH   8  22
HETATM   22  O1  UNK     1      20.135  -8.929  36.767  1.00  0.00    -0.355 OA
HETATM   23  C18 UNK     1      19.033  -9.571  37.405  1.00  0.00     0.210 C 
ENDBRANCH   8  22
TORSDOF 3
ENDMDL
MODEL 5
REMARK VINA RESULT:      -7.0     17.451     21.585
REMARK  3 active torsions:
REMARK  status: ('A' for Active; 'I' for Inactive)
REMARK    1  A    between atoms: C7_10  and  O1_1 
REMARK    2  A    between atoms: C15_18  and  N1_3 
REMARK    3  A    between atoms: C10_13  and  C8_11 
ROOT
HETATM    1  O2  UNK     1      33.372  -7.643  34.626  1.00  0.00    -0.287 OA
HETATM    2  C1  UNK     1      32.650  -4.307  36.993  1.00  0.00     0.047 C 
HETATM    3  C2  UNK     1      33.010  -4.086  35.529  1.00  0.00     0.047 C 
HETATM    4  C3  UNK     1      31.847  -5.569  37.167  1.00  0.00    -0.010 A 
HETATM    5  C4  UNK     1      33.678  -5.299  34.957  1.00  0.00    -0.006 C 
HETATM    6  C5  UNK     1      32.058  -6.681  36.334  1.00  0.00     0.024 A 
HETATM    7  C6  UNK     1      33.069  -6.630  35.247  1.00  0.00     0.189 C 
HETATM    8  C7  UNK     1      30.916  -5.664  38.209  1.00  0.00     0.075 A 
HETATM    9  C8  UNK     1      34.786  -5.249  34.206  1.00  0.00     0.022 C 
HETATM   10  C9  UNK     1      31.328  -7.859  36.534  1.00  0.00     0.016 A 
HETATM   11  C11 UNK     1      30.187  -6.839  38.403  1.00  0.00     0.037 A 
HETATM   12  C12 UNK     1      30.392  -7.933  37.566  1.00  0.00     0.004 A 
ENDROOT
BRANCH   9  13
HETATM   13  C10 UNK     1      35.442  -6.394  33.651  1.00  0.00    -0.035 A 
HETATM   14  C13 UNK     1      35.122  -6.852  32.360  1.00  0.00     0.013 A 
HETATM   15  C16 UNK     1      35.761  -7.967  31.819  1.00  0.00     0.030 A 
HETATM   16  C15 UNK     1      36.732  -8.643  32.560  1.00  0.00     0.029 A 
HETATM   17  C17 UNK     1      37.062  -8.203  33.841  1.00  0.00     0.030 A 
HETATM   18  C14 UNK     1      36.423  -7.089  34.382  1.00  0.00     0.013 A 
BRANCH  16  19
HETATM   19  N1  UNK     1      37.379  -9.770  32.012  1.00  0.00    -0.390 N 
HETATM   20  C19 UNK     1      36.924 -10.341  30.761  1.00  0.00     0.149 C 
HETATM   21  C20 UNK     1      38.516 -10.364  32.688  1.00  0.00     0.149 C 
ENDBRANCH  16  19
ENDBRANCH   9  13
BRANCH   8  22
HETATM   22  O1  UNK     1      30.689  -4.616  39.053  1.00  0.00    -0.355 OA
HETATM   23  C18 UNK     1      29.364  -4.092  39.090  1.00  0.00     0.210 C 
ENDBRANCH   8  22
TORSDOF 3
ENDMDL
MODEL 6
REMARK VINA RESULT:      -7.0      2.526      4.764
REMARK  3 active torsions:
REMARK  status: ('A' for Active; 'I' for Inactive)
REMARK    1  A    between atoms: C7_10  and  O1_1 
REMARK    2  A    between atoms: C15_18  and  N1_3 
REMARK    3  A    between atoms: C10_13  and  C8_11 
ROOT
HETATM    1  O2  UNK     1      17.157  10.066  34.207  1.00  0.00    -0.287 OA
HETATM    2  C1  UNK     1      15.726   6.652  32.323  1.00  0.00     0.047 C 
HETATM    3  C2  UNK     1      15.247   8.008  31.816  1.00  0.00     0.047 C 
HETATM    4  C3  UNK     1      17.148   6.729  32.811  1.00  0.00    -0.010 A 
HETATM    5  C4  UNK     1      15.464   9.068  32.851  1.00  0.00    -0.006 C 
HETATM    6  C5  UNK     1      17.647   7.902  33.404  1.00  0.00     0.024 A 
HETATM    7  C6  UNK     1      16.784   9.102  33.547  1.00  0.00     0.189 C 
HETATM    8  C7  UNK     1      17.975   5.601  32.728  1.00  0.00     0.075 A 
HETATM    9  C8  UNK     1      14.540   9.980  33.183  1.00  0.00     0.022 C 
HETATM   10  C9  UNK     1      18.961   7.943  33.885  1.00  0.00     0.016 A 
HETATM   11  C11 UNK     1      19.286   5.648  33.206  1.00  0.00     0.037 A 
HETATM   12  C12 UNK     1      19.778   6.817  33.781  1.00  0.00     0.004 A 
ENDROOT
BRANCH   9  13
HETATM   13  C10 UNK     1      14.724  11.000  34.169  1.00  0.00    -0.035 A 
HETATM   14  C13 UNK     1      15.282  12.245  33.823  1.00  0.00     0.013 A 
HETATM   15  C16 UNK     1      15.461  13.239  34.784  1.00  0.00     0.030 A 
HETATM   16  C15 UNK     1      15.085  13.007  36.108  1.00  0.00     0.029 A 
HETATM   17  C17 UNK     1      14.529  11.780  36.468  1.00  0.00     0.030 A 
HETATM   18  C14 UNK     1      14.351  10.785  35.508  1.00  0.00     0.013 A 
BRANCH  16  19
HETATM   19  N1  UNK     1      15.265  14.013  37.079  1.00  0.00    -0.390 N 
HETATM   20  C19 UNK     1      15.732  13.674  38.408  1.00  0.00     0.149 C 
HETATM   21  C20 UNK     1      14.997  15.401  36.757  1.00  0.00     0.149 C 
ENDBRANCH  16  19
ENDBRANCH   9  13
BRANCH   8  22
HETATM   22  O1  UNK     1      17.529   4.437  32.175  1.00  0.00    -0.355 OA
HETATM   23  C18 UNK     1      18.374   3.815  31.209  1.00  0.00     0.210 C 
ENDBRANCH   8  22
TORSDOF 3
ENDMDL
MODEL 7
REMARK VINA RESULT:      -7.0     15.777     18.855
REMARK  3 active torsions:
REMARK  status: ('A' for Active; 'I' for Inactive)
REMARK    1  A    between atoms: C7_10  and  O1_1 
REMARK    2  A    between atoms: C15_18  and  N1_3 
REMARK    3  A    between atoms: C10_13  and  C8_11 
ROOT
HETATM    1  O2  UNK     1      28.564  -7.689  36.326  1.00  0.00    -0.287 OA
HETATM    2  C1  UNK     1      32.265  -7.712  38.209  1.00  0.00     0.047 C 
HETATM    3  C2  UNK     1      31.502  -9.028  38.105  1.00  0.00     0.047 C 
HETATM    4  C3  UNK     1      32.015  -6.846  37.004  1.00  0.00    -0.010 A 
HETATM    5  C4  UNK     1      30.049  -8.780  37.843  1.00  0.00    -0.006 C 
HETATM    6  C5  UNK     1      30.779  -6.875  36.337  1.00  0.00     0.024 A 
HETATM    7  C6  UNK     1      29.692  -7.777  36.797  1.00  0.00     0.189 C 
HETATM    8  C7  UNK     1      33.004  -5.954  36.570  1.00  0.00     0.075 A 
HETATM    9  C8  UNK     1      29.061  -9.406  38.496  1.00  0.00     0.022 C 
HETATM   10  C9  UNK     1      30.551  -6.035  35.240  1.00  0.00     0.016 A 
HETATM   11  C11 UNK     1      32.775  -5.121  35.473  1.00  0.00     0.037 A 
HETATM   12  C12 UNK     1      31.552  -5.164  34.809  1.00  0.00     0.004 A 
ENDROOT
BRANCH   9  13
HETATM   13  C10 UNK     1      27.666  -9.184  38.263  1.00  0.00    -0.035 A 
HETATM   14  C13 UNK     1      26.979  -9.901  37.266  1.00  0.00     0.013 A 
HETATM   15  C16 UNK     1      25.620  -9.685  37.040  1.00  0.00     0.030 A 
HETATM   16  C15 UNK     1      24.925  -8.749  37.807  1.00  0.00     0.029 A 
HETATM   17  C17 UNK     1      25.590  -8.030  38.800  1.00  0.00     0.030 A 
HETATM   18  C14 UNK     1      26.948  -8.245  39.026  1.00  0.00     0.013 A 
BRANCH  16  19
HETATM   19  N1  UNK     1      23.550  -8.531  37.579  1.00  0.00    -0.390 N 
HETATM   20  C19 UNK     1      22.855  -9.260  36.537  1.00  0.00     0.149 C 
HETATM   21  C20 UNK     1      22.812  -7.585  38.392  1.00  0.00     0.149 C 
ENDBRANCH  16  19
ENDBRANCH   9  13
BRANCH   8  22
HETATM   22  O1  UNK     1      34.214  -5.880  37.196  1.00  0.00    -0.355 OA
HETATM   23  C18 UNK     1      35.366  -5.766  36.364  1.00  0.00     0.210 C 
ENDBRANCH   8  22
TORSDOF 3
ENDMDL
MODEL 8
REMARK VINA RESULT:      -7.0     17.287     19.463
REMARK  3 active torsions:
REMARK  status: ('A' for Active; 'I' for Inactive)
REMARK    1  A    between atoms: C7_10  and  O1_1 
REMARK    2  A    between atoms: C15_18  and  N1_3 
REMARK    3  A    between atoms: C10_13  and  C8_11 
ROOT
HETATM    1  O2  UNK     1      30.905  -7.179  35.481  1.00  0.00    -0.287 OA
HETATM    2  C1  UNK     1      28.561  -6.666  38.871  1.00  0.00     0.047 C 
HETATM    3  C2  UNK     1      29.210  -5.434  38.252  1.00  0.00     0.047 C 
HETATM    4  C3  UNK     1      28.183  -7.667  37.812  1.00  0.00    -0.010 A 
HETATM    5  C4  UNK     1      30.354  -5.824  37.367  1.00  0.00    -0.006 C 
HETATM    6  C5  UNK     1      28.948  -7.806  36.642  1.00  0.00     0.024 A 
HETATM    7  C6  UNK     1      30.143  -6.953  36.414  1.00  0.00     0.189 C 
HETATM    8  C7  UNK     1      27.086  -8.515  38.015  1.00  0.00     0.075 A 
HETATM    9  C8  UNK     1      31.548  -5.216  37.389  1.00  0.00     0.022 C 
HETATM   10  C9  UNK     1      28.603  -8.768  35.685  1.00  0.00     0.016 A 
HETATM   11  C11 UNK     1      26.743  -9.471  37.057  1.00  0.00     0.037 A 
HETATM   12  C12 UNK     1      27.499  -9.595  35.894  1.00  0.00     0.004 A 
ENDROOT
BRANCH   9  13
HETATM   13  C10 UNK     1      32.655  -5.573  36.555  1.00  0.00    -0.035 A 
HETATM   14  C13 UNK     1      33.569  -6.564  36.956  1.00  0.00     0.013 A 
HETATM   15  C16 UNK     1      34.648  -6.912  36.143  1.00  0.00     0.030 A 
HETATM   16  C15 UNK     1      34.830  -6.275  34.914  1.00  0.00     0.029 A 
HETATM   17  C17 UNK     1      33.932  -5.291  34.500  1.00  0.00     0.030 A 
HETATM   18  C14 UNK     1      32.855  -4.942  35.313  1.00  0.00     0.013 A 
BRANCH  16  19
HETATM   19  N1  UNK     1      35.920  -6.627  34.092  1.00  0.00    -0.390 N 
HETATM   20  C19 UNK     1      37.096  -7.254  34.662  1.00  0.00     0.149 C 
HETATM   21  C20 UNK     1      35.872  -6.380  32.664  1.00  0.00     0.149 C 
ENDBRANCH  16  19
ENDBRANCH   9  13
BRANCH   8  22
HETATM   22  O1  UNK     1      26.324  -8.427  39.143  1.00  0.00    -0.355 OA
HETATM   23  C18 UNK     1      24.956  -8.063  38.971  1.00  0.00     0.210 C 
ENDBRANCH   8  22
TORSDOF 3
ENDMDL
MODEL 9
REMARK VINA RESULT:      -7.0      3.472      8.846
REMARK  3 active torsions:
REMARK  status: ('A' for Active; 'I' for Inactive)
REMARK    1  A    between atoms: C7_10  and  O1_1 
REMARK    2  A    between atoms: C15_18  and  N1_3 
REMARK    3  A    between atoms: C10_13  and  C8_11 
ROOT
HETATM    1  O2  UNK     1      17.866   9.467  33.574  1.00  0.00    -0.287 OA
HETATM    2  C1  UNK     1      14.456  11.571  34.665  1.00  0.00     0.047 C 
HETATM    3  C2  UNK     1      14.610  10.140  35.169  1.00  0.00     0.047 C 
HETATM    4  C3  UNK     1      15.792  12.257  34.569  1.00  0.00    -0.010 A 
HETATM    5  C4  UNK     1      15.606   9.390  34.339  1.00  0.00    -0.006 C 
HETATM    6  C5  UNK     1      16.954  11.536  34.248  1.00  0.00     0.024 A 
HETATM    7  C6  UNK     1      16.894  10.071  34.012  1.00  0.00     0.189 C 
HETATM    8  C7  UNK     1      15.877  13.645  34.745  1.00  0.00     0.075 A 
HETATM    9  C8  UNK     1      15.400   8.149  33.877  1.00  0.00     0.022 C 
HETATM   10  C9  UNK     1      18.182  12.197  34.127  1.00  0.00     0.016 A 
HETATM   11  C11 UNK     1      17.104  14.300  34.627  1.00  0.00     0.037 A 
HETATM   12  C12 UNK     1      18.254  13.577  34.321  1.00  0.00     0.004 A 
ENDROOT
BRANCH   9  13
HETATM   13  C10 UNK     1      16.336   7.414  33.082  1.00  0.00    -0.035 A 
HETATM   14  C13 UNK     1      16.457   7.659  31.702  1.00  0.00     0.013 A 
HETATM   15  C16 UNK     1      17.369   6.943  30.927  1.00  0.00     0.030 A 
HETATM   16  C15 UNK     1      18.176   5.970  31.519  1.00  0.00     0.029 A 
HETATM   17  C17 UNK     1      18.070   5.715  32.886  1.00  0.00     0.030 A 
HETATM   18  C14 UNK     1      17.158   6.430  33.661  1.00  0.00     0.013 A 
BRANCH  16  19
HETATM   19  N1  UNK     1      19.099   5.246  30.736  1.00  0.00    -0.390 N 
HETATM   20  C19 UNK     1      20.314   5.879  30.264  1.00  0.00     0.149 C 
HETATM   21  C20 UNK     1      18.850   3.857  30.404  1.00  0.00     0.149 C 
ENDBRANCH  16  19
ENDBRANCH   9  13
BRANCH   8  22
HETATM   22  O1  UNK     1      14.772  14.388  35.041  1.00  0.00    -0.355 OA
HETATM   23  C18 UNK     1      14.316  15.295  34.041  1.00  0.00     0.210 C 
ENDBRANCH   8  22
TORSDOF 3
ENDMDL
MODEL 10
REMARK VINA RESULT:      -7.0     23.665     25.341
REMARK  3 active torsions:
REMARK  status: ('A' for Active; 'I' for Inactive)
REMARK    1  A    between atoms: C7_10  and  O1_1 
REMARK    2  A    between atoms: C15_18  and  N1_3 
REMARK    3  A    between atoms: C10_13  and  C8_11 
ROOT
HETATM    1  O2  UNK     1      15.220  10.447   8.068  1.00  0.00    -0.287 OA
HETATM    2  C1  UNK     1      15.943   7.466  10.869  1.00  0.00     0.047 C 
HETATM    3  C2  UNK     1      16.015   8.918  11.328  1.00  0.00     0.047 C 
HETATM    4  C3  UNK     1      14.896   7.289   9.802  1.00  0.00    -0.010 A 
HETATM    5  C4  UNK     1      16.197   9.836  10.159  1.00  0.00    -0.006 C 
HETATM    6  C5  UNK     1      14.616   8.317   8.885  1.00  0.00     0.024 A 
HETATM    7  C6  UNK     1      15.339   9.612   8.958  1.00  0.00     0.189 C 
HETATM    8  C7  UNK     1      14.226   6.064   9.679  1.00  0.00     0.075 A 
HETATM    9  C8  UNK     1      17.084  10.839  10.136  1.00  0.00     0.022 C 
HETATM   10  C9  UNK     1      13.666   8.121   7.876  1.00  0.00     0.016 A 
HETATM   11  C11 UNK     1      13.276   5.874   8.674  1.00  0.00     0.037 A 
HETATM   12  C12 UNK     1      12.996   6.901   7.776  1.00  0.00     0.004 A 
ENDROOT
BRANCH   9  13
HETATM   13  C10 UNK     1      17.276  11.728   9.030  1.00  0.00    -0.035 A 
HETATM   14  C13 UNK     1      16.557  12.934   8.942  1.00  0.00     0.013 A 
HETATM   15  C16 UNK     1      16.745  13.800   7.865  1.00  0.00     0.030 A 
HETATM   16  C15 UNK     1      17.654  13.474   6.857  1.00  0.00     0.029 A 
HETATM   17  C17 UNK     1      18.376  12.283   6.929  1.00  0.00     0.030 A 
HETATM   18  C14 UNK     1      18.188  11.417   8.005  1.00  0.00     0.013 A 
BRANCH  16  19
HETATM   19  N1  UNK     1      17.844  14.351   5.769  1.00  0.00    -0.390 N 
HETATM   20  C19 UNK     1      16.812  15.298   5.402  1.00  0.00     0.149 C 
HETATM   21  C20 UNK     1      19.080  14.323   5.012  1.00  0.00     0.149 C 
ENDBRANCH  16  19
ENDBRANCH   9  13
BRANCH   8  22
HETATM   22  O1  UNK     1      14.476   5.033  10.536  1.00  0.00    -0.355 OA
HETATM   23  C18 UNK     1      15.393   4.034  10.095  1.00  0.00     0.210 C 
ENDBRANCH   8  22
TORSDOF 3
ENDMDL
