MODEL 1
REMARK VINA RESULT:      -9.6      0.000      0.000
REMARK  4 active torsions:
REMARK  status: ('A' for Active; 'I' for Inactive)
REMARK    1  A    between atoms: C1_9  and  S1_1 
REMARK    2  A    between atoms: N2_8  and  S1_1 
REMARK       I    between atoms: C11_19  and  N1_7 
REMARK    3  A    between atoms: C2_10  and  N1_7 
REMARK    4  A    between atoms: C11_19  and  C4_12 
ROOT
HETATM    1  O4  UNK     1      18.552   4.635  30.466  1.00  0.00    -0.267 OA
HETATM    2  N1  UNK     1      17.843   4.469  32.706  1.00  0.00    -0.323 N 
HETATM    3  C11 UNK     1      18.350   4.002  31.501  1.00  0.00     0.262 C 
HETATM    4  H6  UNK     1      17.756   3.815  33.481  1.00  0.00     0.169 HD
ENDROOT
BRANCH   2   5
HETATM    5  C2  UNK     1      17.440   5.790  33.020  1.00  0.00     0.035 A 
HETATM    6  C7  UNK     1      18.150   6.506  33.969  1.00  0.00     0.031 A 
HETATM    7  C5  UNK     1      17.753   7.807  34.278  1.00  0.00     0.027 A 
HETATM    8  C1  UNK     1      16.651   8.372  33.635  1.00  0.00     0.079 A 
HETATM    9  C6  UNK     1      15.948   7.636  32.682  1.00  0.00     0.027 A 
HETATM   10  C8  UNK     1      16.345   6.335  32.372  1.00  0.00     0.031 A 
BRANCH   8  11
HETATM   11  S1  UNK     1      16.154   9.999  34.022  1.00  0.00     0.258 S 
HETATM   12  O2  UNK     1      15.620  10.017  35.379  1.00  0.00    -0.201 OA
HETATM   13  O3  UNK     1      17.250  10.895  33.676  1.00  0.00    -0.201 OA
BRANCH  11  14
HETATM   14  N2  UNK     1      14.868  10.262  32.927  1.00  0.00    -0.320 N 
HETATM   15  C17 UNK     1      13.556  10.694  33.429  1.00  0.00     0.159 C 
HETATM   16  H8  UNK     1      14.859   9.732  32.047  1.00  0.00     0.171 HD
ENDBRANCH  11  14
ENDBRANCH   8  11
ENDBRANCH   2   5
BRANCH   3  17
HETATM   17  C4  UNK     1      18.659   2.568  31.550  1.00  0.00     0.108 A 
HETATM   18  C10 UNK     1      19.218   2.045  30.452  1.00  0.00     0.037 A 
HETATM   19  C3  UNK     1      19.559   0.633  30.404  1.00  0.00    -0.001 A 
HETATM   20  C12 UNK     1      20.145   0.045  29.280  1.00  0.00     0.014 A 
HETATM   21  C9  UNK     1      19.295  -0.162  31.516  1.00  0.00     0.089 A 
HETATM   22  C15 UNK     1      20.454  -1.318  29.283  1.00  0.00     0.001 A 
HETATM   23  C16 UNK     1      20.180  -2.100  30.408  1.00  0.00     0.003 A 
HETATM   24  C14 UNK     1      19.596  -1.522  31.534  1.00  0.00     0.038 A 
HETATM   25  O1  UNK     1      18.705   0.394  32.668  1.00  0.00    -0.274 OA
HETATM   26  C13 UNK     1      18.368   1.741  32.744  1.00  0.00     0.304 A 
HETATM   27  O5  UNK     1      17.854   2.216  33.751  1.00  0.00    -0.259 OA
ENDBRANCH   3  17
TORSDOF 4
ENDMDL
MODEL 2
REMARK VINA RESULT:      -9.4      1.155      1.967
REMARK  4 active torsions:
REMARK  status: ('A' for Active; 'I' for Inactive)
REMARK    1  A    between atoms: C1_9  and  S1_1 
REMARK    2  A    between atoms: N2_8  and  S1_1 
REMARK       I    between atoms: C11_19  and  N1_7 
REMARK    3  A    between atoms: C2_10  and  N1_7 
REMARK    4  A    between atoms: C11_19  and  C4_12 
ROOT
HETATM    1  O4  UNK     1      17.715   3.028  33.115  1.00  0.00    -0.267 OA
HETATM    2  N1  UNK     1      18.236   4.604  31.444  1.00  0.00    -0.323 N 
HETATM    3  C11 UNK     1      18.149   3.338  32.007  1.00  0.00     0.262 C 
HETATM    4  H6  UNK     1      18.603   4.690  30.500  1.00  0.00     0.169 HD
ENDROOT
BRANCH   2   5
HETATM    5  C2  UNK     1      17.844   5.836  32.024  1.00  0.00     0.035 A 
HETATM    6  C7  UNK     1      18.814   6.681  32.536  1.00  0.00     0.031 A 
HETATM    7  C5  UNK     1      18.427   7.893  33.107  1.00  0.00     0.027 A 
HETATM    8  C1  UNK     1      17.078   8.241  33.161  1.00  0.00     0.079 A 
HETATM    9  C6  UNK     1      16.115   7.376  32.641  1.00  0.00     0.027 A 
HETATM   10  C8  UNK     1      16.500   6.164  32.069  1.00  0.00     0.031 A 
BRANCH   8  11
HETATM   11  S1  UNK     1      16.594   9.757  33.877  1.00  0.00     0.258 S 
HETATM   12  O2  UNK     1      16.199   9.519  35.260  1.00  0.00    -0.201 OA
HETATM   13  O3  UNK     1      17.635  10.737  33.592  1.00  0.00    -0.201 OA
BRANCH  11  14
HETATM   14  N2  UNK     1      15.201  10.164  32.974  1.00  0.00    -0.320 N 
HETATM   15  C17 UNK     1      13.901  10.283  33.649  1.00  0.00     0.159 C 
HETATM   16  H8  UNK     1      15.169   9.903  31.981  1.00  0.00     0.171 HD
ENDBRANCH  11  14
ENDBRANCH   8  11
ENDBRANCH   2   5
BRANCH   3  17
HETATM   17  C4  UNK     1      18.653   2.296  31.104  1.00  0.00     0.108 A 
HETATM   18  C10 UNK     1      19.052   1.156  31.682  1.00  0.00     0.037 A 
HETATM   19  C3  UNK     1      19.569   0.066  30.870  1.00  0.00    -0.001 A 
HETATM   20  C12 UNK     1      19.995  -1.142  31.430  1.00  0.00     0.014 A 
HETATM   21  C9  UNK     1      19.641   0.228  29.490  1.00  0.00     0.089 A 
HETATM   22  C15 UNK     1      20.485  -2.160  30.607  1.00  0.00     0.001 A 
HETATM   23  C16 UNK     1      20.550  -1.978  29.223  1.00  0.00     0.003 A 
HETATM   24  C14 UNK     1      20.127  -0.777  28.657  1.00  0.00     0.038 A 
HETATM   25  O1  UNK     1      19.220   1.431  28.889  1.00  0.00    -0.274 OA
HETATM   26  C13 UNK     1      18.721   2.491  29.638  1.00  0.00     0.304 A 
HETATM   27  O5  UNK     1      18.359   3.535  29.106  1.00  0.00    -0.259 OA
ENDBRANCH   3  17
TORSDOF 4
ENDMDL
MODEL 3
REMARK VINA RESULT:      -9.4      8.869     13.763
REMARK  4 active torsions:
REMARK  status: ('A' for Active; 'I' for Inactive)
REMARK    1  A    between atoms: C1_9  and  S1_1 
REMARK    2  A    between atoms: N2_8  and  S1_1 
REMARK       I    between atoms: C11_19  and  N1_7 
REMARK    3  A    between atoms: C2_10  and  N1_7 
REMARK    4  A    between atoms: C11_19  and  C4_12 
ROOT
HETATM    1  O4  UNK     1      21.332  -4.018  36.872  1.00  0.00    -0.267 OA
HETATM    2  N1  UNK     1      19.137  -4.830  36.615  1.00  0.00    -0.323 N 
HETATM    3  C11 UNK     1      20.138  -3.869  36.621  1.00  0.00     0.262 C 
HETATM    4  H6  UNK     1      18.193  -4.546  36.363  1.00  0.00     0.169 HD
ENDROOT
BRANCH   2   5
HETATM    5  C2  UNK     1      19.265  -6.212  36.899  1.00  0.00     0.035 A 
HETATM    6  C7  UNK     1      19.179  -7.127  35.862  1.00  0.00     0.031 A 
HETATM    7  C5  UNK     1      19.305  -8.487  36.142  1.00  0.00     0.027 A 
HETATM    8  C1  UNK     1      19.512  -8.914  37.453  1.00  0.00     0.079 A 
HETATM    9  C6  UNK     1      19.596  -7.979  38.485  1.00  0.00     0.027 A 
HETATM   10  C8  UNK     1      19.471  -6.618  38.206  1.00  0.00     0.031 A 
BRANCH   8  11
HETATM   11  S1  UNK     1      19.669 -10.616  37.804  1.00  0.00     0.258 S 
HETATM   12  O2  UNK     1      19.280 -10.848  39.190  1.00  0.00    -0.201 OA
HETATM   13  O3  UNK     1      18.997 -11.354  36.742  1.00  0.00    -0.201 OA
BRANCH  11  14
HETATM   14  N2  UNK     1      21.354 -10.869  37.661  1.00  0.00    -0.320 N 
HETATM   15  C17 UNK     1      21.961 -11.010  36.330  1.00  0.00     0.159 C 
HETATM   16  H8  UNK     1      21.844 -11.341  38.430  1.00  0.00     0.171 HD
ENDBRANCH  11  14
ENDBRANCH   8  11
ENDBRANCH   2   5
BRANCH   3  17
HETATM   17  C4  UNK     1      19.627  -2.537  36.274  1.00  0.00     0.108 A 
HETATM   18  C10 UNK     1      18.873  -1.933  37.201  1.00  0.00     0.037 A 
HETATM   19  C3  UNK     1      18.321  -0.612  36.948  1.00  0.00    -0.001 A 
HETATM   20  C12 UNK     1      17.530   0.057  37.887  1.00  0.00     0.014 A 
HETATM   21  C9  UNK     1      18.588   0.009  35.732  1.00  0.00     0.089 A 
HETATM   22  C15 UNK     1      17.021   1.326  37.596  1.00  0.00     0.001 A 
HETATM   23  C16 UNK     1      17.300   1.933  36.369  1.00  0.00     0.003 A 
HETATM   24  C14 UNK     1      18.088   1.273  35.428  1.00  0.00     0.038 A 
HETATM   25  O1  UNK     1      19.381  -0.632  34.761  1.00  0.00    -0.274 OA
HETATM   26  C13 UNK     1      19.924  -1.896  34.973  1.00  0.00     0.304 A 
HETATM   27  O5  UNK     1      20.612  -2.447  34.121  1.00  0.00    -0.259 OA
ENDBRANCH   3  17
TORSDOF 4
ENDMDL
MODEL 4
REMARK VINA RESULT:      -9.3     14.448     16.751
REMARK  4 active torsions:
REMARK  status: ('A' for Active; 'I' for Inactive)
REMARK    1  A    between atoms: C1_9  and  S1_1 
REMARK    2  A    between atoms: N2_8  and  S1_1 
REMARK       I    between atoms: C11_19  and  N1_7 
REMARK    3  A    between atoms: C2_10  and  N1_7 
REMARK    4  A    between atoms: C11_19  and  C4_12 
ROOT
HETATM    1  O4  UNK     1      26.139  -9.092  39.456  1.00  0.00    -0.267 OA
HETATM    2  N1  UNK     1      24.749  -7.509  38.403  1.00  0.00    -0.323 N 
HETATM    3  C11 UNK     1      25.936  -7.999  38.930  1.00  0.00     0.262 C 
HETATM    4  H6  UNK     1      24.753  -6.584  37.980  1.00  0.00     0.169 HD
ENDROOT
BRANCH   2   5
HETATM    5  C2  UNK     1      23.493  -8.161  38.352  1.00  0.00     0.035 A 
HETATM    6  C7  UNK     1      23.132  -8.845  37.204  1.00  0.00     0.031 A 
HETATM    7  C5  UNK     1      21.895  -9.486  37.154  1.00  0.00     0.027 A 
HETATM    8  C1  UNK     1      21.035  -9.432  38.251  1.00  0.00     0.079 A 
HETATM    9  C6  UNK     1      21.415  -8.736  39.399  1.00  0.00     0.027 A 
HETATM   10  C8  UNK     1      22.652  -8.096  39.450  1.00  0.00     0.031 A 
BRANCH   8  11
HETATM   11  S1  UNK     1      19.486 -10.233  38.188  1.00  0.00     0.258 S 
HETATM   12  O2  UNK     1      19.454 -11.103  37.019  1.00  0.00    -0.201 OA
HETATM   13  O3  UNK     1      19.223 -10.799  39.505  1.00  0.00    -0.201 OA
BRANCH  11  14
HETATM   14  N2  UNK     1      18.408  -8.932  37.930  1.00  0.00    -0.320 N 
HETATM   15  C17 UNK     1      18.666  -7.973  36.846  1.00  0.00     0.159 C 
HETATM   16  H8  UNK     1      17.876  -8.571  38.731  1.00  0.00     0.171 HD
ENDBRANCH  11  14
ENDBRANCH   8  11
ENDBRANCH   2   5
BRANCH   3  17
HETATM   17  C4  UNK     1      27.037  -7.036  38.803  1.00  0.00     0.108 A 
HETATM   18  C10 UNK     1      28.265  -7.554  38.677  1.00  0.00     0.037 A 
HETATM   19  C3  UNK     1      29.419  -6.680  38.547  1.00  0.00    -0.001 A 
HETATM   20  C12 UNK     1      30.718  -7.176  38.412  1.00  0.00     0.014 A 
HETATM   21  C9  UNK     1      29.225  -5.302  38.556  1.00  0.00     0.089 A 
HETATM   22  C15 UNK     1      31.796  -6.294  38.291  1.00  0.00     0.001 A 
HETATM   23  C16 UNK     1      31.581  -4.914  38.302  1.00  0.00     0.003 A 
HETATM   24  C14 UNK     1      30.289  -4.410  38.436  1.00  0.00     0.038 A 
HETATM   25  O1  UNK     1      27.931  -4.763  38.690  1.00  0.00    -0.274 OA
HETATM   26  C13 UNK     1      26.807  -5.574  38.816  1.00  0.00     0.304 A 
HETATM   27  O5  UNK     1      25.684  -5.095  38.933  1.00  0.00    -0.259 OA
ENDBRANCH   3  17
TORSDOF 4
ENDMDL
MODEL 5
REMARK VINA RESULT:      -9.2      3.180      9.352
REMARK  4 active torsions:
REMARK  status: ('A' for Active; 'I' for Inactive)
REMARK    1  A    between atoms: C1_9  and  S1_1 
REMARK    2  A    between atoms: N2_8  and  S1_1 
REMARK       I    between atoms: C11_19  and  N1_7 
REMARK    3  A    between atoms: C2_10  and  N1_7 
REMARK    4  A    between atoms: C11_19  and  C4_12 
ROOT
HETATM    1  O4  UNK     1      19.086   5.862  33.389  1.00  0.00    -0.267 OA
HETATM    2  N1  UNK     1      17.463   4.767  32.080  1.00  0.00    -0.323 N 
HETATM    3  C11 UNK     1      18.015   5.827  32.786  1.00  0.00     0.262 C 
HETATM    4  H6  UNK     1      16.570   4.908  31.614  1.00  0.00     0.169 HD
ENDROOT
BRANCH   2   5
HETATM    5  C2  UNK     1      18.012   3.474  31.894  1.00  0.00     0.035 A 
HETATM    6  C7  UNK     1      18.055   2.597  32.964  1.00  0.00     0.031 A 
HETATM    7  C5  UNK     1      18.596   1.325  32.781  1.00  0.00     0.027 A 
HETATM    8  C1  UNK     1      19.089   0.949  31.532  1.00  0.00     0.079 A 
HETATM    9  C6  UNK     1      19.039   1.846  30.465  1.00  0.00     0.027 A 
HETATM   10  C8  UNK     1      18.497   3.118  30.647  1.00  0.00     0.031 A 
BRANCH   8  11
HETATM   11  S1  UNK     1      19.767  -0.642  31.303  1.00  0.00     0.258 S 
HETATM   12  O2  UNK     1      21.204  -0.578  31.539  1.00  0.00    -0.201 OA
HETATM   13  O3  UNK     1      18.961  -1.585  32.068  1.00  0.00    -0.201 OA
BRANCH  11  14
HETATM   14  N2  UNK     1      19.499  -0.922  29.638  1.00  0.00    -0.320 N 
HETATM   15  C17 UNK     1      20.622  -0.836  28.692  1.00  0.00     0.159 C 
HETATM   16  H8  UNK     1      18.571  -0.715  29.251  1.00  0.00     0.171 HD
ENDBRANCH  11  14
ENDBRANCH   8  11
ENDBRANCH   2   5
BRANCH   3  17
HETATM   17  C4  UNK     1      17.155   7.016  32.759  1.00  0.00     0.108 A 
HETATM   18  C10 UNK     1      16.740   7.473  33.947  1.00  0.00     0.037 A 
HETATM   19  C3  UNK     1      15.883   8.645  34.022  1.00  0.00    -0.001 A 
HETATM   20  C12 UNK     1      15.427   9.157  35.240  1.00  0.00     0.014 A 
HETATM   21  C9  UNK     1      15.504   9.280  32.843  1.00  0.00     0.089 A 
HETATM   22  C15 UNK     1      14.604  10.287  35.260  1.00  0.00     0.001 A 
HETATM   23  C16 UNK     1      14.234  10.911  34.066  1.00  0.00     0.003 A 
HETATM   24  C14 UNK     1      14.684  10.406  32.847  1.00  0.00     0.038 A 
HETATM   25  O1  UNK     1      15.943   8.794  31.597  1.00  0.00    -0.274 OA
HETATM   26  C13 UNK     1      16.764   7.675  31.492  1.00  0.00     0.304 A 
HETATM   27  O5  UNK     1      17.140   7.259  30.402  1.00  0.00    -0.259 OA
ENDBRANCH   3  17
TORSDOF 4
ENDMDL
MODEL 6
REMARK VINA RESULT:      -9.1      7.499     10.198
REMARK  4 active torsions:
REMARK  status: ('A' for Active; 'I' for Inactive)
REMARK    1  A    between atoms: C1_9  and  S1_1 
REMARK    2  A    between atoms: N2_8  and  S1_1 
REMARK       I    between atoms: C11_19  and  N1_7 
REMARK    3  A    between atoms: C2_10  and  N1_7 
REMARK    4  A    between atoms: C11_19  and  C4_12 
ROOT
HETATM    1  O4  UNK     1      21.432  -4.256  37.235  1.00  0.00    -0.267 OA
HETATM    2  N1  UNK     1      19.189  -4.133  36.525  1.00  0.00    -0.323 N 
HETATM    3  C11 UNK     1      20.368  -4.768  36.890  1.00  0.00     0.262 C 
HETATM    4  H6  UNK     1      18.384  -4.706  36.285  1.00  0.00     0.169 HD
ENDROOT
BRANCH   2   5
HETATM    5  C2  UNK     1      18.942  -2.739  36.467  1.00  0.00     0.035 A 
HETATM    6  C7  UNK     1      19.451  -2.006  35.409  1.00  0.00     0.031 A 
HETATM    7  C5  UNK     1      19.208  -0.634  35.352  1.00  0.00     0.027 A 
HETATM    8  C1  UNK     1      18.462  -0.015  36.354  1.00  0.00     0.079 A 
HETATM    9  C6  UNK     1      17.957  -0.769  37.413  1.00  0.00     0.027 A 
HETATM   10  C8  UNK     1      18.199  -2.142  37.471  1.00  0.00     0.031 A 
BRANCH   8  11
HETATM   11  S1  UNK     1      18.158   1.702  36.284  1.00  0.00     0.258 S 
HETATM   12  O2  UNK     1      16.939   1.994  37.028  1.00  0.00    -0.201 OA
HETATM   13  O3  UNK     1      19.393   2.388  36.641  1.00  0.00    -0.201 OA
BRANCH  11  14
HETATM   14  N2  UNK     1      17.856   1.956  34.620  1.00  0.00    -0.320 N 
HETATM   15  C17 UNK     1      18.280   3.211  33.983  1.00  0.00     0.159 C 
HETATM   16  H8  UNK     1      17.048   1.487  34.194  1.00  0.00     0.171 HD
ENDBRANCH  11  14
ENDBRANCH   8  11
ENDBRANCH   2   5
BRANCH   3  17
HETATM   17  C4  UNK     1      20.249  -6.230  36.832  1.00  0.00     0.108 A 
HETATM   18  C10 UNK     1      20.024  -6.852  37.996  1.00  0.00     0.037 A 
HETATM   19  C3  UNK     1      19.892  -8.299  38.041  1.00  0.00    -0.001 A 
HETATM   20  C12 UNK     1      19.657  -8.989  39.233  1.00  0.00     0.014 A 
HETATM   21  C9  UNK     1      20.003  -9.023  36.858  1.00  0.00     0.089 A 
HETATM   22  C15 UNK     1      19.538 -10.382  39.224  1.00  0.00     0.001 A 
HETATM   23  C16 UNK     1      19.653 -11.091  38.026  1.00  0.00     0.003 A 
HETATM   24  C14 UNK     1      19.888 -10.411  36.833  1.00  0.00     0.038 A 
HETATM   25  O1  UNK     1      20.240  -8.363  35.636  1.00  0.00    -0.274 OA
HETATM   26  C13 UNK     1      20.370  -6.979  35.561  1.00  0.00     0.304 A 
HETATM   27  O5  UNK     1      20.578  -6.414  34.493  1.00  0.00    -0.259 OA
ENDBRANCH   3  17
TORSDOF 4
ENDMDL
MODEL 7
REMARK VINA RESULT:      -8.9     16.753     21.052
REMARK  4 active torsions:
REMARK  status: ('A' for Active; 'I' for Inactive)
REMARK    1  A    between atoms: C1_9  and  S1_1 
REMARK    2  A    between atoms: N2_8  and  S1_1 
REMARK       I    between atoms: C11_19  and  N1_7 
REMARK    3  A    between atoms: C2_10  and  N1_7 
REMARK    4  A    between atoms: C11_19  and  C4_12 
ROOT
HETATM    1  O4  UNK     1      17.858  -3.267  15.753  1.00  0.00    -0.267 OA
HETATM    2  N1  UNK     1      20.071  -3.051  14.976  1.00  0.00    -0.323 N 
HETATM    3  C11 UNK     1      18.894  -2.628  15.578  1.00  0.00     0.262 C 
HETATM    4  H6  UNK     1      20.852  -2.401  14.929  1.00  0.00     0.169 HD
ENDROOT
BRANCH   2   5
HETATM    5  C2  UNK     1      20.348  -4.325  14.423  1.00  0.00     0.035 A 
HETATM    6  C7  UNK     1      20.105  -4.546  13.078  1.00  0.00     0.031 A 
HETATM    7  C5  UNK     1      20.377  -5.800  12.534  1.00  0.00     0.027 A 
HETATM    8  C1  UNK     1      20.886  -6.817  13.341  1.00  0.00     0.079 A 
HETATM    9  C6  UNK     1      21.125  -6.577  14.695  1.00  0.00     0.027 A 
HETATM   10  C8  UNK     1      20.853  -5.322  15.240  1.00  0.00     0.031 A 
BRANCH   8  11
HETATM   11  S1  UNK     1      21.226  -8.387  12.660  1.00  0.00     0.258 S 
HETATM   12  O2  UNK     1      22.250  -9.038  13.469  1.00  0.00    -0.201 OA
HETATM   13  O3  UNK     1      19.954  -9.063  12.442  1.00  0.00    -0.201 OA
BRANCH  11  14
HETATM   14  N2  UNK     1      21.901  -7.992  11.140  1.00  0.00    -0.320 N 
HETATM   15  C17 UNK     1      23.327  -8.241  10.886  1.00  0.00     0.159 C 
HETATM   16  H8  UNK     1      21.476  -7.229  10.600  1.00  0.00     0.171 HD
ENDBRANCH  11  14
ENDBRANCH   8  11
ENDBRANCH   2   5
BRANCH   3  17
HETATM   17  C4  UNK     1      18.977  -1.235  16.036  1.00  0.00     0.108 A 
HETATM   18  C10 UNK     1      18.787  -1.031  17.345  1.00  0.00     0.037 A 
HETATM   19  C3  UNK     1      18.849   0.314  17.893  1.00  0.00    -0.001 A 
HETATM   20  C12 UNK     1      18.658   0.574  19.253  1.00  0.00     0.014 A 
HETATM   21  C9  UNK     1      19.107   1.380  17.036  1.00  0.00     0.089 A 
HETATM   22  C15 UNK     1      18.727   1.886  19.731  1.00  0.00     0.001 A 
HETATM   23  C16 UNK     1      18.987   2.943  18.855  1.00  0.00     0.003 A 
HETATM   24  C14 UNK     1      19.178   2.692  17.498  1.00  0.00     0.038 A 
HETATM   25  O1  UNK     1      19.305   1.158  15.659  1.00  0.00    -0.274 OA
HETATM   26  C13 UNK     1      19.253  -0.117  15.105  1.00  0.00     0.304 A 
HETATM   27  O5  UNK     1      19.425  -0.300  13.905  1.00  0.00    -0.259 OA
ENDBRANCH   3  17
TORSDOF 4
ENDMDL
MODEL 8
REMARK VINA RESULT:      -8.7      2.179      2.844
REMARK  4 active torsions:
REMARK  status: ('A' for Active; 'I' for Inactive)
REMARK    1  A    between atoms: C1_9  and  S1_1 
REMARK    2  A    between atoms: N2_8  and  S1_1 
REMARK       I    between atoms: C11_19  and  N1_7 
REMARK    3  A    between atoms: C2_10  and  N1_7 
REMARK    4  A    between atoms: C11_19  and  C4_12 
ROOT
HETATM    1  O4  UNK     1      16.794   2.860  30.542  1.00  0.00    -0.267 OA
HETATM    2  N1  UNK     1      18.789   3.516  31.609  1.00  0.00    -0.323 N 
HETATM    3  C11 UNK     1      17.967   2.680  30.866  1.00  0.00     0.262 C 
HETATM    4  H6  UNK     1      19.750   3.228  31.773  1.00  0.00     0.169 HD
ENDROOT
BRANCH   2   5
HETATM    5  C2  UNK     1      18.461   4.776  32.167  1.00  0.00     0.035 A 
HETATM    6  C7  UNK     1      18.230   4.873  33.529  1.00  0.00     0.031 A 
HETATM    7  C5  UNK     1      17.906   6.113  34.078  1.00  0.00     0.027 A 
HETATM    8  C1  UNK     1      17.816   7.238  33.258  1.00  0.00     0.079 A 
HETATM    9  C6  UNK     1      18.052   7.122  31.888  1.00  0.00     0.027 A 
HETATM   10  C8  UNK     1      18.376   5.882  31.338  1.00  0.00     0.031 A 
BRANCH   8  11
HETATM   11  S1  UNK     1      17.410   8.790  33.946  1.00  0.00     0.258 S 
HETATM   12  O2  UNK     1      16.668   9.562  32.956  1.00  0.00    -0.201 OA
HETATM   13  O3  UNK     1      16.819   8.556  35.257  1.00  0.00    -0.201 OA
BRANCH  11  14
HETATM   14  N2  UNK     1      18.945   9.511  34.161  1.00  0.00    -0.320 N 
HETATM   15  C17 UNK     1      19.093  10.968  34.035  1.00  0.00     0.159 C 
HETATM   16  H8  UNK     1      19.781   8.956  33.943  1.00  0.00     0.171 HD
ENDBRANCH  11  14
ENDBRANCH   8  11
ENDBRANCH   2   5
BRANCH   3  17
HETATM   17  C4  UNK     1      18.656   1.452  30.452  1.00  0.00     0.108 A 
HETATM   18  C10 UNK     1      19.056   0.638  31.437  1.00  0.00     0.037 A 
HETATM   19  C3  UNK     1      19.749  -0.602  31.127  1.00  0.00    -0.001 A 
HETATM   20  C12 UNK     1      20.184  -1.481  32.122  1.00  0.00     0.014 A 
HETATM   21  C9  UNK     1      19.988  -0.925  29.794  1.00  0.00     0.089 A 
HETATM   22  C15 UNK     1      20.846  -2.662  31.772  1.00  0.00     0.001 A 
HETATM   23  C16 UNK     1      21.077  -2.969  30.429  1.00  0.00     0.003 A 
HETATM   24  C14 UNK     1      20.647  -2.097  29.430  1.00  0.00     0.038 A 
HETATM   25  O1  UNK     1      19.565  -0.064  28.763  1.00  0.00    -0.274 OA
HETATM   26  C13 UNK     1      18.899   1.129  29.028  1.00  0.00     0.304 A 
HETATM   27  O5  UNK     1      18.536   1.872  28.124  1.00  0.00    -0.259 OA
ENDBRANCH   3  17
TORSDOF 4
ENDMDL
MODEL 9
REMARK VINA RESULT:      -8.7      8.654     13.593
REMARK  4 active torsions:
REMARK  status: ('A' for Active; 'I' for Inactive)
REMARK    1  A    between atoms: C1_9  and  S1_1 
REMARK    2  A    between atoms: N2_8  and  S1_1 
REMARK       I    between atoms: C11_19  and  N1_7 
REMARK    3  A    between atoms: C2_10  and  N1_7 
REMARK    4  A    between atoms: C11_19  and  C4_12 
ROOT
HETATM    1  O4  UNK     1      20.531  -3.855  37.763  1.00  0.00    -0.267 OA
HETATM    2  N1  UNK     1      19.416  -4.823  35.928  1.00  0.00    -0.323 N 
HETATM    3  C11 UNK     1      19.869  -3.784  36.729  1.00  0.00     0.262 C 
HETATM    4  H6  UNK     1      18.894  -4.593  35.086  1.00  0.00     0.169 HD
ENDROOT
BRANCH   2   5
HETATM    5  C2  UNK     1      19.614  -6.212  36.121  1.00  0.00     0.035 A 
HETATM    6  C7  UNK     1      18.521  -7.021  36.382  1.00  0.00     0.031 A 
HETATM    7  C5  UNK     1      18.716  -8.388  36.574  1.00  0.00     0.027 A 
HETATM    8  C1  UNK     1      20.001  -8.927  36.504  1.00  0.00     0.079 A 
HETATM    9  C6  UNK     1      21.091  -8.097  36.240  1.00  0.00     0.027 A 
HETATM   10  C8  UNK     1      20.896  -6.729  36.049  1.00  0.00     0.031 A 
BRANCH   8  11
HETATM   11  S1  UNK     1      20.246 -10.638  36.744  1.00  0.00     0.258 S 
HETATM   12  O2  UNK     1      18.949 -11.305  36.724  1.00  0.00    -0.201 OA
HETATM   13  O3  UNK     1      21.286 -11.074  35.821  1.00  0.00    -0.201 OA
BRANCH  11  14
HETATM   14  N2  UNK     1      20.868 -10.702  38.335  1.00  0.00    -0.320 N 
HETATM   15  C17 UNK     1      20.277  -9.860  39.385  1.00  0.00     0.159 C 
HETATM   16  H8  UNK     1      21.855 -10.953  38.464  1.00  0.00     0.171 HD
ENDBRANCH  11  14
ENDBRANCH   8  11
ENDBRANCH   2   5
BRANCH   3  17
HETATM   17  C4  UNK     1      19.469  -2.470  36.209  1.00  0.00     0.108 A 
HETATM   18  C10 UNK     1      18.758  -1.698  37.039  1.00  0.00     0.037 A 
HETATM   19  C3  UNK     1      18.315  -0.380  36.614  1.00  0.00    -0.001 A 
HETATM   20  C12 UNK     1      17.572   0.461  37.446  1.00  0.00     0.014 A 
HETATM   21  C9  UNK     1      18.642   0.061  35.335  1.00  0.00     0.089 A 
HETATM   22  C15 UNK     1      17.169   1.720  36.991  1.00  0.00     0.001 A 
HETATM   23  C16 UNK     1      17.507   2.145  35.703  1.00  0.00     0.003 A 
HETATM   24  C14 UNK     1      18.248   1.312  34.866  1.00  0.00     0.038 A 
HETATM   25  O1  UNK     1      19.390  -0.758  34.467  1.00  0.00    -0.274 OA
HETATM   26  C13 UNK     1      19.829  -2.023  34.845  1.00  0.00     0.304 A 
HETATM   27  O5  UNK     1      20.478  -2.729  34.081  1.00  0.00    -0.259 OA
ENDBRANCH   3  17
TORSDOF 4
ENDMDL
MODEL 10
REMARK VINA RESULT:      -8.6      7.356     10.196
REMARK  4 active torsions:
REMARK  status: ('A' for Active; 'I' for Inactive)
REMARK    1  A    between atoms: C1_9  and  S1_1 
REMARK    2  A    between atoms: N2_8  and  S1_1 
REMARK       I    between atoms: C11_19  and  N1_7 
REMARK    3  A    between atoms: C2_10  and  N1_7 
REMARK    4  A    between atoms: C11_19  and  C4_12 
ROOT
HETATM    1  O4  UNK     1      18.348  -5.748  36.510  1.00  0.00    -0.267 OA
HETATM    2  N1  UNK     1      20.068  -4.146  36.357  1.00  0.00    -0.323 N 
HETATM    3  C11 UNK     1      19.533  -5.419  36.502  1.00  0.00     0.262 C 
HETATM    4  H6  UNK     1      21.080  -4.045  36.351  1.00  0.00     0.169 HD
ENDROOT
BRANCH   2   5
HETATM    5  C2  UNK     1      19.365  -2.929  36.184  1.00  0.00     0.035 A 
HETATM    6  C7  UNK     1      18.576  -2.450  37.217  1.00  0.00     0.031 A 
HETATM    7  C5  UNK     1      17.884  -1.252  37.046  1.00  0.00     0.027 A 
HETATM    8  C1  UNK     1      17.988  -0.551  35.845  1.00  0.00     0.079 A 
HETATM    9  C6  UNK     1      18.786  -1.048  34.815  1.00  0.00     0.027 A 
HETATM   10  C8  UNK     1      19.480  -2.246  34.985  1.00  0.00     0.031 A 
BRANCH   8  11
HETATM   11  S1  UNK     1      17.121   0.949  35.631  1.00  0.00     0.258 S 
HETATM   12  O2  UNK     1      17.135   1.301  34.216  1.00  0.00    -0.201 OA
HETATM   13  O3  UNK     1      15.844   0.828  36.323  1.00  0.00    -0.201 OA
BRANCH  11  14
HETATM   14  N2  UNK     1      18.098   2.065  36.480  1.00  0.00    -0.320 N 
HETATM   15  C17 UNK     1      19.454   2.364  35.999  1.00  0.00     0.159 C 
HETATM   16  H8  UNK     1      17.945   2.179  37.490  1.00  0.00     0.171 HD
ENDBRANCH  11  14
ENDBRANCH   8  11
ENDBRANCH   2   5
BRANCH   3  17
HETATM   17  C4  UNK     1      20.574  -6.442  36.659  1.00  0.00     0.108 A 
HETATM   18  C10 UNK     1      20.478  -7.511  35.859  1.00  0.00     0.037 A 
HETATM   19  C3  UNK     1      21.462  -8.578  35.941  1.00  0.00    -0.001 A 
HETATM   20  C12 UNK     1      21.402  -9.711  35.125  1.00  0.00     0.014 A 
HETATM   21  C9  UNK     1      22.500  -8.468  36.861  1.00  0.00     0.089 A 
HETATM   22  C15 UNK     1      22.372 -10.710  35.242  1.00  0.00     0.001 A 
HETATM   23  C16 UNK     1      23.407 -10.583  36.173  1.00  0.00     0.003 A 
HETATM   24  C14 UNK     1      23.474  -9.456  36.990  1.00  0.00     0.038 A 
HETATM   25  O1  UNK     1      22.595  -7.341  37.701  1.00  0.00    -0.274 OA
HETATM   26  C13 UNK     1      21.669  -6.304  37.646  1.00  0.00     0.304 A 
HETATM   27  O5  UNK     1      21.759  -5.327  38.381  1.00  0.00    -0.259 OA
ENDBRANCH   3  17
TORSDOF 4
ENDMDL
