MODEL 1
REMARK VINA RESULT:      -9.2      0.000      0.000
REMARK  3 active torsions:
REMARK  status: ('A' for Active; 'I' for Inactive)
REMARK    1  A    between atoms: C4_7  and  N1_3 
REMARK    2  A    between atoms: C4_7  and  C7_10 
REMARK    3  A    between atoms: C16_19  and  C20_23 
ROOT
HETATM    1  O1  UNK     1      20.023  -0.778  30.671  1.00  0.00    -0.275 OA
HETATM    2  O2  UNK     1      20.706  -0.372  28.526  1.00  0.00    -0.260 OA
HETATM    3  C7  UNK     1      18.738   1.742  30.634  1.00  0.00    -0.011 A 
HETATM    4  C8  UNK     1      18.677   0.895  31.833  1.00  0.00     0.007 A 
HETATM    5  C11 UNK     1      19.412   1.301  29.562  1.00  0.00     0.092 A 
HETATM    6  C12 UNK     1      19.323  -0.340  31.813  1.00  0.00     0.090 A 
HETATM    7  C13 UNK     1      18.001   1.257  33.007  1.00  0.00     0.022 A 
HETATM    8  C16 UNK     1      17.982   0.401  34.113  1.00  0.00    -0.058 A 
HETATM    9  C17 UNK     1      19.313  -1.206  32.909  1.00  0.00     0.039 A 
HETATM   10  C18 UNK     1      20.100  -0.001  29.526  1.00  0.00     0.288 A 
HETATM   11  C19 UNK     1      18.637  -0.828  34.065  1.00  0.00     0.010 A 
ENDROOT
BRANCH   3  12
HETATM   12  C4  UNK     1      18.059   3.068  30.624  1.00  0.00     0.312 C 
BRANCH  12  13
HETATM   13  N1  UNK     1      18.752   4.049  31.459  1.00  0.00     0.097 N 
HETATM   14  C1  UNK     1      19.583   4.937  30.637  1.00  0.00     0.277 C 
HETATM   15  C3  UNK     1      20.457   5.815  31.540  1.00  0.00     0.069 C 
HETATM   16  C6  UNK     1      19.679   6.463  32.656  1.00  0.00    -0.049 A 
HETATM   17  C10 UNK     1      20.238   7.525  33.376  1.00  0.00     0.007 A 
HETATM   18  C5  UNK     1      18.416   5.965  33.020  1.00  0.00    -0.024 A 
HETATM   19  C15 UNK     1      19.538   8.106  34.434  1.00  0.00     0.001 A 
HETATM   20  C14 UNK     1      18.277   7.627  34.781  1.00  0.00     0.001 A 
HETATM   21  C9  UNK     1      17.715   6.563  34.076  1.00  0.00     0.009 A 
HETATM   22  C2  UNK     1      17.781   4.837  32.238  1.00  0.00     0.311 C 
ENDBRANCH  12  13
ENDBRANCH   3  12
BRANCH   8  23
HETATM   23  C20 UNK     1      17.255   0.806  35.353  1.00  0.00     0.034 C 
HETATM   24  C21 UNK     1      15.878   0.158  35.456  1.00  0.00     0.010 C 
ENDBRANCH   8  23
TORSDOF 3
ENDMDL
MODEL 2
REMARK VINA RESULT:      -9.1      5.839     10.568
REMARK  3 active torsions:
REMARK  status: ('A' for Active; 'I' for Inactive)
REMARK    1  A    between atoms: C4_7  and  N1_3 
REMARK    2  A    between atoms: C4_7  and  C7_10 
REMARK    3  A    between atoms: C16_19  and  C20_23 
ROOT
HETATM    1  O1  UNK     1      17.711  -0.350  35.687  1.00  0.00    -0.275 OA
HETATM    2  O2  UNK     1      17.123  -0.284  37.895  1.00  0.00    -0.260 OA
HETATM    3  C7  UNK     1      19.557  -2.392  36.342  1.00  0.00    -0.011 A 
HETATM    4  C8  UNK     1      19.428  -1.926  34.955  1.00  0.00     0.007 A 
HETATM    5  C11 UNK     1      18.787  -1.834  37.288  1.00  0.00     0.092 A 
HETATM    6  C12 UNK     1      18.507  -0.917  34.671  1.00  0.00     0.090 A 
HETATM    7  C13 UNK     1      20.180  -2.437  33.888  1.00  0.00     0.022 A 
HETATM    8  C16 UNK     1      20.006  -1.947  32.590  1.00  0.00    -0.058 A 
HETATM    9  C17 UNK     1      18.322  -0.417  33.380  1.00  0.00     0.039 A 
HETATM   10  C18 UNK     1      17.811  -0.769  37.004  1.00  0.00     0.288 A 
HETATM   11  C19 UNK     1      19.079  -0.938  32.336  1.00  0.00     0.010 A 
ENDROOT
BRANCH   3  12
HETATM   12  C4  UNK     1      20.532  -3.467  36.678  1.00  0.00     0.312 C 
BRANCH  12  13
HETATM   13  N1  UNK     1      19.881  -4.764  36.861  1.00  0.00     0.097 N 
HETATM   14  C1  UNK     1      19.901  -5.537  35.612  1.00  0.00     0.277 C 
HETATM   15  C3  UNK     1      19.037  -6.794  35.765  1.00  0.00     0.069 C 
HETATM   16  C6  UNK     1      19.329  -7.554  37.033  1.00  0.00    -0.049 A 
HETATM   17  C10 UNK     1      18.869  -8.868  37.183  1.00  0.00     0.007 A 
HETATM   18  C5  UNK     1      20.009  -6.929  38.092  1.00  0.00    -0.024 A 
HETATM   19  C15 UNK     1      19.105  -9.566  38.368  1.00  0.00     0.001 A 
HETATM   20  C14 UNK     1      19.799  -8.954  39.410  1.00  0.00     0.001 A 
HETATM   21  C9  UNK     1      20.252  -7.643  39.273  1.00  0.00     0.009 A 
HETATM   22  C2  UNK     1      20.539  -5.522  37.939  1.00  0.00     0.311 C 
ENDBRANCH  12  13
ENDBRANCH   3  12
BRANCH   8  23
HETATM   23  C20 UNK     1      20.818  -2.507  31.470  1.00  0.00     0.034 C 
HETATM   24  C21 UNK     1      20.345  -2.012  30.107  1.00  0.00     0.010 C 
ENDBRANCH   8  23
TORSDOF 3
ENDMDL
MODEL 3
REMARK VINA RESULT:      -8.8      1.937      3.712
REMARK  3 active torsions:
REMARK  status: ('A' for Active; 'I' for Inactive)
REMARK    1  A    between atoms: C4_7  and  N1_3 
REMARK    2  A    between atoms: C4_7  and  C7_10 
REMARK    3  A    between atoms: C16_19  and  C20_23 
ROOT
HETATM    1  O1  UNK     1      18.588  -0.046  34.196  1.00  0.00    -0.275 OA
HETATM    2  O2  UNK     1      17.737   1.221  35.899  1.00  0.00    -0.260 OA
HETATM    3  C7  UNK     1      18.399   2.236  32.535  1.00  0.00    -0.011 A 
HETATM    4  C8  UNK     1      18.918   0.970  32.000  1.00  0.00     0.007 A 
HETATM    5  C11 UNK     1      18.018   2.291  33.819  1.00  0.00     0.092 A 
HETATM    6  C12 UNK     1      18.995  -0.133  32.849  1.00  0.00     0.090 A 
HETATM    7  C13 UNK     1      19.344   0.802  30.675  1.00  0.00     0.022 A 
HETATM    8  C16 UNK     1      19.828  -0.433  30.231  1.00  0.00    -0.058 A 
HETATM    9  C17 UNK     1      19.476  -1.373  32.421  1.00  0.00     0.039 A 
HETATM   10  C18 UNK     1      18.094   1.134  34.728  1.00  0.00     0.288 A 
HETATM   11  C19 UNK     1      19.894  -1.519  31.102  1.00  0.00     0.010 A 
ENDROOT
BRANCH   3  12
HETATM   12  C4  UNK     1      18.303   3.433  31.653  1.00  0.00     0.312 C 
BRANCH  12  13
HETATM   13  N1  UNK     1      18.475   4.681  32.396  1.00  0.00     0.097 N 
HETATM   14  C1  UNK     1      19.630   5.433  31.890  1.00  0.00     0.277 C 
HETATM   15  C3  UNK     1      19.919   6.625  32.809  1.00  0.00     0.069 C 
HETATM   16  C6  UNK     1      18.684   7.425  33.136  1.00  0.00    -0.049 A 
HETATM   17  C10 UNK     1      18.805   8.703  33.694  1.00  0.00     0.007 A 
HETATM   18  C5  UNK     1      17.408   6.869  32.939  1.00  0.00    -0.024 A 
HETATM   19  C15 UNK     1      17.666   9.435  34.032  1.00  0.00     0.001 A 
HETATM   20  C14 UNK     1      16.401   8.893  33.817  1.00  0.00     0.001 A 
HETATM   21  C9  UNK     1      16.270   7.617  33.270  1.00  0.00     0.009 A 
HETATM   22  C2  UNK     1      17.255   5.502  32.311  1.00  0.00     0.311 C 
ENDBRANCH  12  13
ENDBRANCH   3  12
BRANCH   8  23
HETATM   23  C20 UNK     1      20.277  -0.589  28.816  1.00  0.00     0.034 C 
HETATM   24  C21 UNK     1      19.112  -0.564  27.831  1.00  0.00     0.010 C 
ENDBRANCH   8  23
TORSDOF 3
ENDMDL
MODEL 4
REMARK VINA RESULT:      -8.8      2.847      7.166
REMARK  3 active torsions:
REMARK  status: ('A' for Active; 'I' for Inactive)
REMARK    1  A    between atoms: C4_7  and  N1_3 
REMARK    2  A    between atoms: C4_7  and  C7_10 
REMARK    3  A    between atoms: C16_19  and  C20_23 
ROOT
HETATM    1  O1  UNK     1      20.196   7.502  33.291  1.00  0.00    -0.275 OA
HETATM    2  O2  UNK     1      22.087   6.403  32.623  1.00  0.00    -0.260 OA
HETATM    3  C7  UNK     1      18.688   5.410  32.129  1.00  0.00    -0.011 A 
HETATM    4  C8  UNK     1      18.011   6.536  32.787  1.00  0.00     0.007 A 
HETATM    5  C11 UNK     1      20.028   5.392  32.089  1.00  0.00     0.092 A 
HETATM    6  C12 UNK     1      18.789   7.548  33.348  1.00  0.00     0.090 A 
HETATM    7  C13 UNK     1      16.618   6.656  32.886  1.00  0.00     0.022 A 
HETATM    8  C16 UNK     1      16.038   7.755  33.528  1.00  0.00    -0.058 A 
HETATM    9  C17 UNK     1      18.226   8.653  33.991  1.00  0.00     0.039 A 
HETATM   10  C18 UNK     1      20.863   6.454  32.677  1.00  0.00     0.288 A 
HETATM   11  C19 UNK     1      16.841   8.753  34.079  1.00  0.00     0.010 A 
ENDROOT
BRANCH   3  12
HETATM   12  C4  UNK     1      17.885   4.313  31.519  1.00  0.00     0.312 C 
BRANCH  12  13
HETATM   13  N1  UNK     1      18.603   3.039  31.520  1.00  0.00     0.097 N 
HETATM   14  C1  UNK     1      18.035   2.123  32.516  1.00  0.00     0.277 C 
HETATM   15  C3  UNK     1      18.924   0.882  32.649  1.00  0.00     0.069 C 
HETATM   16  C6  UNK     1      19.295   0.282  31.317  1.00  0.00    -0.049 A 
HETATM   17  C10 UNK     1      19.830  -1.010  31.254  1.00  0.00     0.007 A 
HETATM   18  C5  UNK     1      19.163   1.039  30.140  1.00  0.00    -0.024 A 
HETATM   19  C15 UNK     1      20.208  -1.558  30.028  1.00  0.00     0.001 A 
HETATM   20  C14 UNK     1      20.058  -0.817  28.858  1.00  0.00     0.001 A 
HETATM   21  C9  UNK     1      19.535   0.475  28.911  1.00  0.00     0.009 A 
HETATM   22  C2  UNK     1      18.561   2.425  30.181  1.00  0.00     0.311 C 
ENDBRANCH  12  13
ENDBRANCH   3  12
BRANCH   8  23
HETATM   23  C20 UNK     1      14.553   7.862  33.623  1.00  0.00     0.034 C 
HETATM   24  C21 UNK     1      13.846   7.185  32.453  1.00  0.00     0.010 C 
ENDBRANCH   8  23
TORSDOF 3
ENDMDL
MODEL 5
REMARK VINA RESULT:      -8.4      3.727      7.834
REMARK  3 active torsions:
REMARK  status: ('A' for Active; 'I' for Inactive)
REMARK    1  A    between atoms: C4_7  and  N1_3 
REMARK    2  A    between atoms: C4_7  and  C7_10 
REMARK    3  A    between atoms: C16_19  and  C20_23 
ROOT
HETATM    1  O1  UNK     1      14.615   8.573  32.823  1.00  0.00    -0.275 OA
HETATM    2  O2  UNK     1      13.381   6.899  31.872  1.00  0.00    -0.260 OA
HETATM    3  C7  UNK     1      16.924   7.012  32.338  1.00  0.00    -0.011 A 
HETATM    4  C8  UNK     1      17.039   8.326  32.985  1.00  0.00     0.007 A 
HETATM    5  C11 UNK     1      15.710   6.568  31.983  1.00  0.00     0.092 A 
HETATM    6  C12 UNK     1      15.878   9.066  33.207  1.00  0.00     0.090 A 
HETATM    7  C13 UNK     1      18.256   8.887  33.396  1.00  0.00     0.022 A 
HETATM    8  C16 UNK     1      18.294  10.145  34.006  1.00  0.00    -0.058 A 
HETATM    9  C17 UNK     1      15.899  10.323  33.816  1.00  0.00     0.039 A 
HETATM   10  C18 UNK     1      14.475   7.338  32.211  1.00  0.00     0.288 A 
HETATM   11  C19 UNK     1      17.117  10.862  34.217  1.00  0.00     0.010 A 
ENDROOT
BRANCH   3  12
HETATM   12  C4  UNK     1      18.145   6.197  32.086  1.00  0.00     0.312 C 
BRANCH  12  13
HETATM   13  N1  UNK     1      17.934   4.781  32.387  1.00  0.00     0.097 N 
HETATM   14  C1  UNK     1      18.606   3.933  31.395  1.00  0.00     0.277 C 
HETATM   15  C3  UNK     1      18.203   2.469  31.604  1.00  0.00     0.069 C 
HETATM   16  C6  UNK     1      18.305   2.033  33.043  1.00  0.00    -0.049 A 
HETATM   17  C10 UNK     1      18.280   0.672  33.366  1.00  0.00     0.007 A 
HETATM   18  C5  UNK     1      18.365   2.991  34.070  1.00  0.00    -0.024 A 
HETATM   19  C15 UNK     1      18.339   0.262  34.699  1.00  0.00     0.001 A 
HETATM   20  C14 UNK     1      18.420   1.210  35.716  1.00  0.00     0.001 A 
HETATM   21  C9  UNK     1      18.436   2.570  35.404  1.00  0.00     0.009 A 
HETATM   22  C2  UNK     1      18.422   4.466  33.741  1.00  0.00     0.311 C 
ENDBRANCH  12  13
ENDBRANCH   3  12
BRANCH   8  23
HETATM   23  C20 UNK     1      19.601  10.724  34.435  1.00  0.00     0.034 C 
HETATM   24  C21 UNK     1      20.701   9.670  34.525  1.00  0.00     0.010 C 
ENDBRANCH   8  23
TORSDOF 3
ENDMDL
MODEL 6
REMARK VINA RESULT:      -8.2      5.160      9.589
REMARK  3 active torsions:
REMARK  status: ('A' for Active; 'I' for Inactive)
REMARK    1  A    between atoms: C4_7  and  N1_3 
REMARK    2  A    between atoms: C4_7  and  C7_10 
REMARK    3  A    between atoms: C16_19  and  C20_23 
ROOT
HETATM    1  O1  UNK     1      19.108  -1.190  32.608  1.00  0.00    -0.275 OA
HETATM    2  O2  UNK     1      20.636  -2.411  31.422  1.00  0.00    -0.260 OA
HETATM    3  C7  UNK     1      20.135  -2.375  34.962  1.00  0.00    -0.011 A 
HETATM    4  C8  UNK     1      19.034  -1.406  35.039  1.00  0.00     0.007 A 
HETATM    5  C11 UNK     1      20.642  -2.688  33.761  1.00  0.00     0.092 A 
HETATM    6  C12 UNK     1      18.555  -0.844  33.857  1.00  0.00     0.090 A 
HETATM    7  C13 UNK     1      18.430  -1.007  36.240  1.00  0.00     0.022 A 
HETATM    8  C16 UNK     1      17.385  -0.078  36.241  1.00  0.00    -0.058 A 
HETATM    9  C17 UNK     1      17.511   0.085  33.841  1.00  0.00     0.039 A 
HETATM   10  C18 UNK     1      20.146  -2.102  32.504  1.00  0.00     0.288 A 
HETATM   11  C19 UNK     1      16.926   0.468  35.044  1.00  0.00     0.010 A 
ENDROOT
BRANCH   3  12
HETATM   12  C4  UNK     1      20.669  -2.995  36.208  1.00  0.00     0.312 C 
BRANCH  12  13
HETATM   13  N1  UNK     1      20.012  -4.264  36.517  1.00  0.00     0.097 N 
HETATM   14  C1  UNK     1      20.077  -5.178  35.370  1.00  0.00     0.277 C 
HETATM   15  C3  UNK     1      19.209  -6.412  35.637  1.00  0.00     0.069 C 
HETATM   16  C6  UNK     1      19.454  -7.018  36.995  1.00  0.00    -0.049 A 
HETATM   17  C10 UNK     1      18.989  -8.306  37.282  1.00  0.00     0.007 A 
HETATM   18  C5  UNK     1      20.096  -6.270  37.997  1.00  0.00    -0.024 A 
HETATM   19  C15 UNK     1      19.182  -8.860  38.548  1.00  0.00     0.001 A 
HETATM   20  C14 UNK     1      19.837  -8.128  39.535  1.00  0.00     0.001 A 
HETATM   21  C9  UNK     1      20.295  -6.840  39.262  1.00  0.00     0.009 A 
HETATM   22  C2  UNK     1      20.631  -4.888  37.700  1.00  0.00     0.311 C 
ENDBRANCH  12  13
ENDBRANCH   3  12
BRANCH   8  23
HETATM   23  C20 UNK     1      16.758   0.333  37.532  1.00  0.00     0.034 C 
HETATM   24  C21 UNK     1      17.553   1.423  38.243  1.00  0.00     0.010 C 
ENDBRANCH   8  23
TORSDOF 3
ENDMDL
MODEL 7
REMARK VINA RESULT:      -8.2     14.323     16.307
REMARK  3 active torsions:
REMARK  status: ('A' for Active; 'I' for Inactive)
REMARK    1  A    between atoms: C4_7  and  N1_3 
REMARK    2  A    between atoms: C4_7  and  C7_10 
REMARK    3  A    between atoms: C16_19  and  C20_23 
ROOT
HETATM    1  O1  UNK     1      26.625  -9.422  37.777  1.00  0.00    -0.275 OA
HETATM    2  O2  UNK     1      25.799 -11.091  36.450  1.00  0.00    -0.260 OA
HETATM    3  C7  UNK     1      28.436  -8.798  35.695  1.00  0.00    -0.011 A 
HETATM    4  C8  UNK     1      28.448  -8.026  36.945  1.00  0.00     0.007 A 
HETATM    5  C11 UNK     1      27.556  -9.801  35.559  1.00  0.00     0.092 A 
HETATM    6  C12 UNK     1      27.540  -8.364  37.948  1.00  0.00     0.090 A 
HETATM    7  C13 UNK     1      29.324  -6.959  37.192  1.00  0.00     0.022 A 
HETATM    8  C16 UNK     1      29.280  -6.265  38.406  1.00  0.00    -0.058 A 
HETATM    9  C17 UNK     1      27.484  -7.681  39.165  1.00  0.00     0.039 A 
HETATM   10  C18 UNK     1      26.591 -10.169  36.610  1.00  0.00     0.288 A 
HETATM   11  C19 UNK     1      28.362  -6.625  39.391  1.00  0.00     0.010 A 
ENDROOT
BRANCH   3  12
HETATM   12  C4  UNK     1      29.394  -8.463  34.604  1.00  0.00     0.312 C 
BRANCH  12  13
HETATM   13  N1  UNK     1      28.856  -8.778  33.282  1.00  0.00     0.097 N 
HETATM   14  C1  UNK     1      28.410  -7.558  32.597  1.00  0.00     0.277 C 
HETATM   15  C3  UNK     1      27.662  -7.927  31.311  1.00  0.00     0.069 C 
HETATM   16  C6  UNK     1      28.402  -8.938  30.473  1.00  0.00    -0.049 A 
HETATM   17  C10 UNK     1      28.029  -9.152  29.141  1.00  0.00     0.007 A 
HETATM   18  C5  UNK     1      29.428  -9.712  31.041  1.00  0.00    -0.024 A 
HETATM   19  C15 UNK     1      28.687 -10.110  28.369  1.00  0.00     0.001 A 
HETATM   20  C14 UNK     1      29.718 -10.863  28.926  1.00  0.00     0.001 A 
HETATM   21  C9  UNK     1      30.091 -10.664  30.255  1.00  0.00     0.009 A 
HETATM   22  C2  UNK     1      29.866  -9.478  32.469  1.00  0.00     0.311 C 
ENDBRANCH  12  13
ENDBRANCH   3  12
BRANCH   8  23
HETATM   23  C20 UNK     1      30.221  -5.133  38.648  1.00  0.00     0.034 C 
HETATM   24  C21 UNK     1      29.536  -3.940  39.308  1.00  0.00     0.010 C 
ENDBRANCH   8  23
TORSDOF 3
ENDMDL
MODEL 8
REMARK VINA RESULT:      -8.2     13.549     15.793
REMARK  3 active torsions:
REMARK  status: ('A' for Active; 'I' for Inactive)
REMARK    1  A    between atoms: C4_7  and  N1_3 
REMARK    2  A    between atoms: C4_7  and  C7_10 
REMARK    3  A    between atoms: C16_19  and  C20_23 
ROOT
HETATM    1  O1  UNK     1      31.915  -4.018  36.373  1.00  0.00    -0.275 OA
HETATM    2  O2  UNK     1      33.433  -4.021  34.663  1.00  0.00    -0.260 OA
HETATM    3  C7  UNK     1      31.288  -6.691  35.689  1.00  0.00    -0.011 A 
HETATM    4  C8  UNK     1      30.601  -6.030  36.807  1.00  0.00     0.007 A 
HETATM    5  C11 UNK     1      32.215  -6.007  35.001  1.00  0.00     0.092 A 
HETATM    6  C12 UNK     1      30.937  -4.712  37.113  1.00  0.00     0.090 A 
HETATM    7  C13 UNK     1      29.618  -6.650  37.592  1.00  0.00     0.022 A 
HETATM    8  C16 UNK     1      29.004  -5.962  38.643  1.00  0.00    -0.058 A 
HETATM    9  C17 UNK     1      30.332  -4.011  38.159  1.00  0.00     0.039 A 
HETATM   10  C18 UNK     1      32.580  -4.615  35.313  1.00  0.00     0.288 A 
HETATM   11  C19 UNK     1      29.359  -4.644  38.926  1.00  0.00     0.010 A 
ENDROOT
BRANCH   3  12
HETATM   12  C4  UNK     1      30.952  -8.099  35.336  1.00  0.00     0.312 C 
BRANCH  12  13
HETATM   13  N1  UNK     1      30.370  -8.207  33.999  1.00  0.00     0.097 N 
HETATM   14  C1  UNK     1      29.991  -9.595  33.707  1.00  0.00     0.277 C 
HETATM   15  C3  UNK     1      29.580  -9.725  32.236  1.00  0.00     0.069 C 
HETATM   16  C6  UNK     1      28.610  -8.656  31.803  1.00  0.00    -0.049 A 
HETATM   17  C10 UNK     1      27.898  -8.799  30.606  1.00  0.00     0.007 A 
HETATM   18  C5  UNK     1      28.460  -7.485  32.566  1.00  0.00    -0.024 A 
HETATM   19  C15 UNK     1      27.024  -7.798  30.182  1.00  0.00     0.001 A 
HETATM   20  C14 UNK     1      26.859  -6.647  30.948  1.00  0.00     0.001 A 
HETATM   21  C9  UNK     1      27.571  -6.491  32.137  1.00  0.00     0.009 A 
HETATM   22  C2  UNK     1      29.198  -7.323  33.875  1.00  0.00     0.311 C 
ENDBRANCH  12  13
ENDBRANCH   3  12
BRANCH   8  23
HETATM   23  C20 UNK     1      27.961  -6.642  39.466  1.00  0.00     0.034 C 
HETATM   24  C21 UNK     1      27.908  -8.145  39.210  1.00  0.00     0.010 C 
ENDBRANCH   8  23
TORSDOF 3
ENDMDL
MODEL 9
REMARK VINA RESULT:      -8.1      5.363      9.878
REMARK  3 active torsions:
REMARK  status: ('A' for Active; 'I' for Inactive)
REMARK    1  A    between atoms: C4_7  and  N1_3 
REMARK    2  A    between atoms: C4_7  and  C7_10 
REMARK    3  A    between atoms: C16_19  and  C20_23 
ROOT
HETATM    1  O1  UNK     1      19.631  -1.329  32.964  1.00  0.00    -0.275 OA
HETATM    2  O2  UNK     1      21.045  -2.953  32.194  1.00  0.00    -0.260 OA
HETATM    3  C7  UNK     1      19.857  -2.489  35.534  1.00  0.00    -0.011 A 
HETATM    4  C8  UNK     1      19.017  -1.302  35.327  1.00  0.00     0.007 A 
HETATM    5  C11 UNK     1      20.512  -3.011  34.487  1.00  0.00     0.092 A 
HETATM    6  C12 UNK     1      18.930  -0.759  34.046  1.00  0.00     0.090 A 
HETATM    7  C13 UNK     1      18.290  -0.676  36.349  1.00  0.00     0.022 A 
HETATM    8  C16 UNK     1      17.509   0.454  36.083  1.00  0.00    -0.058 A 
HETATM    9  C17 UNK     1      18.155   0.368  33.763  1.00  0.00     0.039 A 
HETATM   10  C18 UNK     1      20.431  -2.449  33.128  1.00  0.00     0.288 A 
HETATM   11  C19 UNK     1      17.441   0.975  34.792  1.00  0.00     0.010 A 
ENDROOT
BRANCH   3  12
HETATM   12  C4  UNK     1      19.970  -3.094  36.891  1.00  0.00     0.312 C 
BRANCH  12  13
HETATM   13  N1  UNK     1      20.351  -4.505  36.835  1.00  0.00     0.097 N 
HETATM   14  C1  UNK     1      21.235  -4.850  37.956  1.00  0.00     0.277 C 
HETATM   15  C3  UNK     1      21.788  -6.266  37.766  1.00  0.00     0.069 C 
HETATM   16  C6  UNK     1      20.719  -7.270  37.417  1.00  0.00    -0.049 A 
HETATM   17  C10 UNK     1      20.986  -8.641  37.515  1.00  0.00     0.007 A 
HETATM   18  C5  UNK     1      19.472  -6.837  36.936  1.00  0.00    -0.024 A 
HETATM   19  C15 UNK     1      20.013  -9.576  37.160  1.00  0.00     0.001 A 
HETATM   20  C14 UNK     1      18.769  -9.147  36.704  1.00  0.00     0.001 A 
HETATM   21  C9  UNK     1      18.496  -7.783  36.594  1.00  0.00     0.009 A 
HETATM   22  C2  UNK     1      19.152  -5.361  36.850  1.00  0.00     0.311 C 
ENDBRANCH  12  13
ENDBRANCH   3  12
BRANCH   8  23
HETATM   23  C20 UNK     1      16.744   1.105  37.186  1.00  0.00     0.034 C 
HETATM   24  C21 UNK     1      17.603   1.347  38.424  1.00  0.00     0.010 C 
ENDBRANCH   8  23
TORSDOF 3
ENDMDL
MODEL 10
REMARK VINA RESULT:      -8.1     22.976     24.780
REMARK  3 active torsions:
REMARK  status: ('A' for Active; 'I' for Inactive)
REMARK    1  A    between atoms: C4_7  and  N1_3 
REMARK    2  A    between atoms: C4_7  and  C7_10 
REMARK    3  A    between atoms: C16_19  and  C20_23 
ROOT
HETATM    1  O1  UNK     1      17.571   8.043   9.784  1.00  0.00    -0.275 OA
HETATM    2  O2  UNK     1      18.605   6.178   8.959  1.00  0.00    -0.260 OA
HETATM    3  C7  UNK     1      15.189   6.527   9.956  1.00  0.00    -0.011 A 
HETATM    4  C8  UNK     1      15.203   7.936  10.371  1.00  0.00     0.007 A 
HETATM    5  C11 UNK     1      16.321   5.974   9.495  1.00  0.00     0.092 A 
HETATM    6  C12 UNK     1      16.396   8.650  10.272  1.00  0.00     0.090 A 
HETATM    7  C13 UNK     1      14.080   8.612  10.867  1.00  0.00     0.022 A 
HETATM    8  C16 UNK     1      14.163   9.956  11.246  1.00  0.00    -0.058 A 
HETATM    9  C17 UNK     1      16.496   9.993  10.645  1.00  0.00     0.039 A 
HETATM   10  C18 UNK     1      17.589   6.717   9.384  1.00  0.00     0.288 A 
HETATM   11  C19 UNK     1      15.369  10.646  11.135  1.00  0.00     0.010 A 
ENDROOT
BRANCH   3  12
HETATM   12  C4  UNK     1      13.930   5.735  10.049  1.00  0.00     0.312 C 
BRANCH  12  13
HETATM   13  N1  UNK     1      12.932   6.172   9.074  1.00  0.00     0.097 N 
HETATM   14  C1  UNK     1      13.305   5.746   7.720  1.00  0.00     0.277 C 
HETATM   15  C3  UNK     1      12.364   6.387   6.694  1.00  0.00     0.069 C 
HETATM   16  C6  UNK     1      10.911   6.249   7.067  1.00  0.00    -0.049 A 
HETATM   17  C10 UNK     1       9.916   6.492   6.112  1.00  0.00     0.007 A 
HETATM   18  C5  UNK     1      10.546   5.935   8.387  1.00  0.00    -0.024 A 
HETATM   19  C15 UNK     1       8.568   6.400   6.459  1.00  0.00     0.001 A 
HETATM   20  C14 UNK     1       8.206   6.068   7.762  1.00  0.00     0.001 A 
HETATM   21  C9  UNK     1       9.189   5.833   8.723  1.00  0.00     0.009 A 
HETATM   22  C2  UNK     1      11.603   5.641   9.427  1.00  0.00     0.311 C 
ENDBRANCH  12  13
ENDBRANCH   3  12
BRANCH   8  23
HETATM   23  C20 UNK     1      12.954  10.655  11.772  1.00  0.00     0.034 C 
HETATM   24  C21 UNK     1      11.657  10.011  11.294  1.00  0.00     0.010 C 
ENDBRANCH   8  23
TORSDOF 3
ENDMDL
