MODEL 1
REMARK VINA RESULT:      -7.3      0.000      0.000
REMARK  1 active torsions:
REMARK  status: ('A' for Active; 'I' for Inactive)
REMARK    1  A    between atoms: C5_9  and  O2_2 
ROOT
HETATM    1  O1  UNK     1      20.004  -1.053  32.488  1.00  0.00    -0.273 OA
HETATM    2  O3  UNK     1      20.731  -2.721  33.867  1.00  0.00    -0.258 OA
HETATM    3  N1  UNK     1      21.970  -5.456  31.866  1.00  0.00    -0.191 NA
HETATM    4  C1  UNK     1      20.153  -1.328  30.080  1.00  0.00    -0.000 A 
HETATM    5  C2  UNK     1      19.800  -0.562  31.184  1.00  0.00     0.092 A 
HETATM    6  C3  UNK     1      19.239   0.707  31.050  1.00  0.00     0.075 A 
HETATM    7  C4  UNK     1      19.936  -0.808  28.802  1.00  0.00     0.017 A 
HETATM    8  C5  UNK     1      19.028   1.218  29.771  1.00  0.00     0.070 A 
HETATM    9  C6  UNK     1      20.735  -2.643  30.295  1.00  0.00     0.043 A 
HETATM   10  C7  UNK     1      19.375   0.462  28.649  1.00  0.00     0.038 A 
HETATM   11  C8  UNK     1      20.932  -3.113  31.533  1.00  0.00     0.120 A 
HETATM   12  C9  UNK     1      20.560  -2.308  32.724  1.00  0.00     0.309 A 
HETATM   13  C11 UNK     1      21.504  -4.405  31.717  1.00  0.00     0.105 C 
ENDROOT
BRANCH   8  14
HETATM   14  O2  UNK     1      18.481   2.455  29.616  1.00  0.00    -0.356 OA
HETATM   15  C10 UNK     1      18.688   3.379  30.679  1.00  0.00     0.210 C 
ENDBRANCH   8  14
TORSDOF 1
ENDMDL
MODEL 2
REMARK VINA RESULT:      -6.9     12.820     14.820
REMARK  1 active torsions:
REMARK  status: ('A' for Active; 'I' for Inactive)
REMARK    1  A    between atoms: C5_9  and  O2_2 
ROOT
HETATM    1  O1  UNK     1      19.302   0.709  15.162  1.00  0.00    -0.273 OA
HETATM    2  O3  UNK     1      19.212  -0.722  13.385  1.00  0.00    -0.258 OA
HETATM    3  N1  UNK     1      18.345  -4.021  14.563  1.00  0.00    -0.191 NA
HETATM    4  C1  UNK     1      18.843  -0.117  17.399  1.00  0.00    -0.000 A 
HETATM    5  C2  UNK     1      19.178   0.929  16.547  1.00  0.00     0.092 A 
HETATM    6  C3  UNK     1      19.399   2.221  17.021  1.00  0.00     0.075 A 
HETATM    7  C4  UNK     1      18.728   0.139  18.767  1.00  0.00     0.017 A 
HETATM    8  C5  UNK     1      19.281   2.468  18.387  1.00  0.00     0.070 A 
HETATM    9  C6  UNK     1      18.625  -1.439  16.835  1.00  0.00     0.043 A 
HETATM   10  C7  UNK     1      18.946   1.429  19.259  1.00  0.00     0.038 A 
HETATM   11  C8  UNK     1      18.742  -1.653  15.518  1.00  0.00     0.120 A 
HETATM   12  C9  UNK     1      19.099  -0.547  14.594  1.00  0.00     0.309 A 
HETATM   13  C11 UNK     1      18.524  -2.958  14.992  1.00  0.00     0.105 C 
ENDROOT
BRANCH   8  14
HETATM   14  O2  UNK     1      19.492   3.722  18.872  1.00  0.00    -0.356 OA
HETATM   15  C10 UNK     1      20.715   4.348  18.499  1.00  0.00     0.210 C 
ENDBRANCH   8  14
TORSDOF 1
ENDMDL
MODEL 3
REMARK VINA RESULT:      -6.8      1.973      2.456
REMARK  1 active torsions:
REMARK  status: ('A' for Active; 'I' for Inactive)
REMARK    1  A    between atoms: C5_9  and  O2_2 
ROOT
HETATM    1  O1  UNK     1      18.793  -0.057  33.134  1.00  0.00    -0.273 OA
HETATM    2  O3  UNK     1      18.607  -0.659  35.329  1.00  0.00    -0.258 OA
HETATM    3  N1  UNK     1      20.414  -3.736  35.869  1.00  0.00    -0.191 NA
HETATM    4  C1  UNK     1      20.067  -1.447  31.605  1.00  0.00    -0.000 A 
HETATM    5  C2  UNK     1      19.291  -0.319  31.844  1.00  0.00     0.092 A 
HETATM    6  C3  UNK     1      18.982   0.587  30.832  1.00  0.00     0.075 A 
HETATM    7  C4  UNK     1      20.545  -1.675  30.313  1.00  0.00     0.017 A 
HETATM    8  C5  UNK     1      19.463   0.353  29.546  1.00  0.00     0.070 A 
HETATM    9  C6  UNK     1      20.352  -2.350  32.710  1.00  0.00     0.043 A 
HETATM   10  C7  UNK     1      20.243  -0.777  29.286  1.00  0.00     0.038 A 
HETATM   11  C8  UNK     1      19.880  -2.103  33.938  1.00  0.00     0.120 A 
HETATM   12  C9  UNK     1      19.050  -0.902  34.211  1.00  0.00     0.309 A 
HETATM   13  C11 UNK     1      20.174  -3.004  35.002  1.00  0.00     0.105 C 
ENDROOT
BRANCH   8  14
HETATM   14  O2  UNK     1      19.173   1.225  28.542  1.00  0.00    -0.356 OA
HETATM   15  C10 UNK     1      17.931   1.914  28.640  1.00  0.00     0.210 C 
ENDBRANCH   8  14
TORSDOF 1
ENDMDL
MODEL 4
REMARK VINA RESULT:      -6.8      4.111      6.354
REMARK  1 active torsions:
REMARK  status: ('A' for Active; 'I' for Inactive)
REMARK    1  A    between atoms: C5_9  and  O2_2 
ROOT
HETATM    1  O1  UNK     1      18.230   2.971  32.926  1.00  0.00    -0.273 OA
HETATM    2  O3  UNK     1      18.377   0.826  32.156  1.00  0.00    -0.258 OA
HETATM    3  N1  UNK     1      19.077   0.884  28.617  1.00  0.00    -0.191 NA
HETATM    4  C1  UNK     1      18.539   4.827  31.391  1.00  0.00    -0.000 A 
HETATM    5  C2  UNK     1      18.284   4.355  32.673  1.00  0.00     0.092 A 
HETATM    6  C3  UNK     1      18.076   5.219  33.746  1.00  0.00     0.075 A 
HETATM    7  C4  UNK     1      18.585   6.207  31.178  1.00  0.00     0.017 A 
HETATM    8  C5  UNK     1      18.125   6.594  33.525  1.00  0.00     0.070 A 
HETATM    9  C6  UNK     1      18.748   3.867  30.319  1.00  0.00     0.043 A 
HETATM   10  C7  UNK     1      18.378   7.087  32.243  1.00  0.00     0.038 A 
HETATM   11  C8  UNK     1      18.698   2.550  30.555  1.00  0.00     0.120 A 
HETATM   12  C9  UNK     1      18.427   2.029  31.919  1.00  0.00     0.309 A 
HETATM   13  C11 UNK     1      18.906   1.632  29.487  1.00  0.00     0.105 C 
ENDROOT
BRANCH   8  14
HETATM   14  O2  UNK     1      17.924   7.456  34.558  1.00  0.00    -0.356 OA
HETATM   15  C10 UNK     1      16.572   7.795  34.849  1.00  0.00     0.210 C 
ENDBRANCH   8  14
TORSDOF 1
ENDMDL
MODEL 5
REMARK VINA RESULT:      -6.8     22.858     24.386
REMARK  1 active torsions:
REMARK  status: ('A' for Active; 'I' for Inactive)
REMARK    1  A    between atoms: C5_9  and  O2_2 
ROOT
HETATM    1  O1  UNK     1      13.950   4.746   9.062  1.00  0.00    -0.273 OA
HETATM    2  O3  UNK     1      16.146   4.351   9.545  1.00  0.00    -0.258 OA
HETATM    3  N1  UNK     1      17.771   7.480  10.313  1.00  0.00    -0.191 NA
HETATM    4  C1  UNK     1      13.090   7.016   9.128  1.00  0.00    -0.000 A 
HETATM    5  C2  UNK     1      12.887   5.658   8.916  1.00  0.00     0.092 A 
HETATM    6  C3  UNK     1      11.641   5.148   8.556  1.00  0.00     0.075 A 
HETATM    7  C4  UNK     1      12.012   7.891   8.974  1.00  0.00     0.017 A 
HETATM    8  C5  UNK     1      10.571   6.028   8.405  1.00  0.00     0.070 A 
HETATM    9  C6  UNK     1      14.417   7.477   9.503  1.00  0.00     0.043 A 
HETATM   10  C7  UNK     1      10.756   7.397   8.613  1.00  0.00     0.038 A 
HETATM   11  C8  UNK     1      15.430   6.613   9.645  1.00  0.00     0.120 A 
HETATM   12  C9  UNK     1      15.231   5.158   9.421  1.00  0.00     0.309 A 
HETATM   13  C11 UNK     1      16.721   7.091  10.012  1.00  0.00     0.105 C 
ENDROOT
BRANCH   8  14
HETATM   14  O2  UNK     1       9.345   5.553   8.054  1.00  0.00    -0.356 OA
HETATM   15  C10 UNK     1       8.665   6.253   7.018  1.00  0.00     0.210 C 
ENDBRANCH   8  14
TORSDOF 1
ENDMDL
MODEL 6
REMARK VINA RESULT:      -6.6     14.406     16.506
REMARK  1 active torsions:
REMARK  status: ('A' for Active; 'I' for Inactive)
REMARK    1  A    between atoms: C5_9  and  O2_2 
ROOT
HETATM    1  O1  UNK     1      19.467   0.297  14.591  1.00  0.00    -0.273 OA
HETATM    2  O3  UNK     1      19.850   2.215  15.770  1.00  0.00    -0.258 OA
HETATM    3  N1  UNK     1      19.091   1.636  19.250  1.00  0.00    -0.191 NA
HETATM    4  C1  UNK     1      18.672  -1.688  15.742  1.00  0.00    -0.000 A 
HETATM    5  C2  UNK     1      19.062  -1.051  14.570  1.00  0.00     0.092 A 
HETATM    6  C3  UNK     1      19.070  -1.711  13.343  1.00  0.00     0.075 A 
HETATM    7  C4  UNK     1      18.277  -3.026  15.683  1.00  0.00     0.017 A 
HETATM    8  C5  UNK     1      18.675  -3.047  13.293  1.00  0.00     0.070 A 
HETATM    9  C6  UNK     1      18.690  -0.937  16.988  1.00  0.00     0.043 A 
HETATM   10  C7  UNK     1      18.279  -3.703  14.460  1.00  0.00     0.038 A 
HETATM   11  C8  UNK     1      19.076   0.345  17.012  1.00  0.00     0.120 A 
HETATM   12  C9  UNK     1      19.494   1.040  15.769  1.00  0.00     0.309 A 
HETATM   13  C11 UNK     1      19.084   1.057  18.246  1.00  0.00     0.105 C 
ENDROOT
BRANCH   8  14
HETATM   14  O2  UNK     1      18.675  -3.711  12.105  1.00  0.00    -0.356 OA
HETATM   15  C10 UNK     1      19.364  -3.086  11.028  1.00  0.00     0.210 C 
ENDBRANCH   8  14
TORSDOF 1
ENDMDL
MODEL 7
REMARK VINA RESULT:      -6.6      5.820      8.606
REMARK  1 active torsions:
REMARK  status: ('A' for Active; 'I' for Inactive)
REMARK    1  A    between atoms: C5_9  and  O2_2 
ROOT
HETATM    1  O1  UNK     1      17.450   5.311  33.568  1.00  0.00    -0.273 OA
HETATM    2  O3  UNK     1      16.950   6.960  35.067  1.00  0.00    -0.258 OA
HETATM    3  N1  UNK     1      17.997  10.140  33.723  1.00  0.00    -0.191 NA
HETATM    4  C1  UNK     1      18.521   5.879  31.464  1.00  0.00    -0.000 A 
HETATM    5  C2  UNK     1      17.990   4.927  32.326  1.00  0.00     0.092 A 
HETATM    6  C3  UNK     1      17.968   3.572  32.001  1.00  0.00     0.075 A 
HETATM    7  C4  UNK     1      19.048   5.460  30.240  1.00  0.00     0.017 A 
HETATM    8  C5  UNK     1      18.495   3.163  30.777  1.00  0.00     0.070 A 
HETATM    9  C6  UNK     1      18.510   7.276  31.869  1.00  0.00     0.043 A 
HETATM   10  C7  UNK     1      19.035   4.106  29.899  1.00  0.00     0.038 A 
HETATM   11  C8  UNK     1      17.996   7.645  33.049  1.00  0.00     0.120 A 
HETATM   12  C9  UNK     1      17.425   6.641  33.982  1.00  0.00     0.309 A 
HETATM   13  C11 UNK     1      17.997   9.021  33.421  1.00  0.00     0.105 C 
ENDROOT
BRANCH   8  14
HETATM   14  O2  UNK     1      18.484   1.845  30.439  1.00  0.00    -0.356 OA
HETATM   15  C10 UNK     1      18.145   1.538  29.091  1.00  0.00     0.210 C 
ENDBRANCH   8  14
TORSDOF 1
ENDMDL
MODEL 8
REMARK VINA RESULT:      -6.5     23.321     25.190
REMARK  1 active torsions:
REMARK  status: ('A' for Active; 'I' for Inactive)
REMARK    1  A    between atoms: C5_9  and  O2_2 
ROOT
HETATM    1  O1  UNK     1      11.971   7.325   9.939  1.00  0.00    -0.273 OA
HETATM    2  O3  UNK     1      13.975   7.402  11.032  1.00  0.00    -0.258 OA
HETATM    3  N1  UNK     1      16.436   5.586   9.118  1.00  0.00    -0.191 NA
HETATM    4  C1  UNK     1      11.792   6.138   7.829  1.00  0.00    -0.000 A 
HETATM    5  C2  UNK     1      11.208   6.894   8.838  1.00  0.00     0.092 A 
HETATM    6  C3  UNK     1       9.862   7.253   8.801  1.00  0.00     0.075 A 
HETATM    7  C4  UNK     1      11.004   5.728   6.751  1.00  0.00     0.017 A 
HETATM    8  C5  UNK     1       9.083   6.841   7.721  1.00  0.00     0.070 A 
HETATM    9  C6  UNK     1      13.203   5.800   7.933  1.00  0.00     0.043 A 
HETATM   10  C7  UNK     1       9.653   6.079   6.699  1.00  0.00     0.038 A 
HETATM   11  C8  UNK     1      13.933   6.209   8.978  1.00  0.00     0.120 A 
HETATM   12  C9  UNK     1      13.323   7.018  10.065  1.00  0.00     0.309 A 
HETATM   13  C11 UNK     1      15.313   5.865   9.056  1.00  0.00     0.105 C 
ENDROOT
BRANCH   8  14
HETATM   14  O2  UNK     1       7.766   7.181   7.665  1.00  0.00    -0.356 OA
HETATM   15  C10 UNK     1       7.139   7.501   8.902  1.00  0.00     0.210 C 
ENDBRANCH   8  14
TORSDOF 1
ENDMDL
MODEL 9
REMARK VINA RESULT:      -6.5      3.038      5.661
REMARK  1 active torsions:
REMARK  status: ('A' for Active; 'I' for Inactive)
REMARK    1  A    between atoms: C5_9  and  O2_2 
ROOT
HETATM    1  O1  UNK     1      20.512  -1.443  30.421  1.00  0.00    -0.273 OA
HETATM    2  O3  UNK     1      20.469  -0.536  28.326  1.00  0.00    -0.258 OA
HETATM    3  N1  UNK     1      18.190   2.262  28.293  1.00  0.00    -0.191 NA
HETATM    4  C1  UNK     1      19.139  -0.484  32.179  1.00  0.00    -0.000 A 
HETATM    5  C2  UNK     1      20.059  -1.434  31.753  1.00  0.00     0.092 A 
HETATM    6  C3  UNK     1      20.566  -2.403  32.617  1.00  0.00     0.075 A 
HETATM    7  C4  UNK     1      18.712  -0.505  33.508  1.00  0.00     0.017 A 
HETATM    8  C5  UNK     1      20.137  -2.417  33.943  1.00  0.00     0.070 A 
HETATM    9  C6  UNK     1      18.653   0.499  31.223  1.00  0.00     0.043 A 
HETATM   10  C7  UNK     1      19.211  -1.470  34.387  1.00  0.00     0.038 A 
HETATM   11  C8  UNK     1      19.082   0.495  29.954  1.00  0.00     0.120 A 
HETATM   12  C9  UNK     1      20.064  -0.514  29.484  1.00  0.00     0.309 A 
HETATM   13  C11 UNK     1      18.590   1.468  29.038  1.00  0.00     0.105 C 
ENDROOT
BRANCH   8  14
HETATM   14  O2  UNK     1      20.618  -3.354  34.803  1.00  0.00    -0.356 OA
HETATM   15  C10 UNK     1      20.025  -3.393  36.097  1.00  0.00     0.210 C 
ENDBRANCH   8  14
TORSDOF 1
ENDMDL
MODEL 10
REMARK VINA RESULT:      -6.5      3.698      5.092
REMARK  1 active torsions:
REMARK  status: ('A' for Active; 'I' for Inactive)
REMARK    1  A    between atoms: C5_9  and  O2_2 
ROOT
HETATM    1  O1  UNK     1      20.202  -2.273  34.402  1.00  0.00    -0.273 OA
HETATM    2  O3  UNK     1      21.396  -3.313  32.757  1.00  0.00    -0.258 OA
HETATM    3  N1  UNK     1      20.352  -2.036  29.548  1.00  0.00    -0.191 NA
HETATM    4  C1  UNK     1      18.543  -0.600  33.814  1.00  0.00    -0.000 A 
HETATM    5  C2  UNK     1      19.219  -1.338  34.778  1.00  0.00     0.092 A 
HETATM    6  C3  UNK     1      18.956  -1.185  36.138  1.00  0.00     0.075 A 
HETATM    7  C4  UNK     1      17.574   0.318  34.225  1.00  0.00     0.017 A 
HETATM    8  C5  UNK     1      17.989  -0.266  36.539  1.00  0.00     0.070 A 
HETATM    9  C6  UNK     1      18.870  -0.810  32.413  1.00  0.00     0.043 A 
HETATM   10  C7  UNK     1      17.298   0.484  35.584  1.00  0.00     0.038 A 
HETATM   11  C8  UNK     1      19.806  -1.697  32.051  1.00  0.00     0.120 A 
HETATM   12  C9  UNK     1      20.536  -2.495  33.068  1.00  0.00     0.309 A 
HETATM   13  C11 UNK     1      20.106  -1.884  30.671  1.00  0.00     0.105 C 
ENDROOT
BRANCH   8  14
HETATM   14  O2  UNK     1      17.716  -0.101  37.862  1.00  0.00    -0.356 OA
HETATM   15  C10 UNK     1      17.588   1.240  38.321  1.00  0.00     0.210 C 
ENDBRANCH   8  14
TORSDOF 1
ENDMDL
