MODEL 1
REMARK VINA RESULT:      -9.8      0.000      0.000
REMARK  5 active torsions:
REMARK  status: ('A' for Active; 'I' for Inactive)
REMARK    1  A    between atoms: C11_21  and  O2_5 
REMARK    2  A    between atoms: C12_22  and  O2_5 
REMARK       I    between atoms: C8_18  and  N1_9 
REMARK    3  A    between atoms: N1_9  and  N2_10 
REMARK       I    between atoms: C13_23  and  N2_10 
REMARK    4  A    between atoms: C3_13  and  C8_18 
REMARK    5  A    between atoms: C11_21  and  C13_23 
ROOT
HETATM    1  O4  UNK     1      17.297   0.030  35.600  1.00  0.00    -0.266 OA
HETATM    2  N1  UNK     1      19.113  -1.049  34.624  1.00  0.00    -0.263 N 
HETATM    3  C8  UNK     1      18.171  -0.049  34.741  1.00  0.00     0.276 C 
HETATM    4  H5  UNK     1      19.801  -1.105  33.879  1.00  0.00     0.190 HD
ENDROOT
BRANCH   2   5
HETATM    5  N2  UNK     1      19.112  -2.078  35.533  1.00  0.00    -0.265 N 
HETATM    6  C13 UNK     1      20.319  -2.551  36.013  1.00  0.00     0.260 C 
HETATM    7  O5  UNK     1      21.429  -2.130  35.696  1.00  0.00    -0.269 OA
HETATM    8  H8  UNK     1      18.211  -2.459  35.803  1.00  0.00     0.190 HD
BRANCH   6   9
HETATM    9  C11 UNK     1      20.121  -3.677  37.003  1.00  0.00     0.280 C 
BRANCH   9  10
HETATM   10  O2  UNK     1      20.904  -4.796  36.648  1.00  0.00    -0.340 OA
BRANCH  10  11
HETATM   11  C12 UNK     1      20.549  -6.009  37.192  1.00  0.00     0.091 A 
HETATM   12  C14 UNK     1      20.185  -7.075  36.380  1.00  0.00     0.069 A 
HETATM   13 Cl1  UNK     1      20.162  -6.926  34.661  1.00  0.00    -0.081 Cl
HETATM   14  C16 UNK     1      19.830  -8.293  36.959  1.00  0.00     0.050 A 
HETATM   15  C18 UNK     1      19.843  -8.435  38.346  1.00  0.00     0.035 A 
HETATM   16  C17 UNK     1      20.210  -7.359  39.155  1.00  0.00     0.026 A 
HETATM   17 Cl2  UNK     1      19.404  -9.938  39.063  1.00  0.00    -0.084 Cl
HETATM   18  C15 UNK     1      20.565  -6.141  38.576  1.00  0.00     0.040 A 
ENDBRANCH  10  11
ENDBRANCH   9  10
ENDBRANCH   6   9
ENDBRANCH   2   5
BRANCH   3  19
HETATM   19  C3  UNK     1      18.302   0.975  33.698  1.00  0.00     0.110 A 
HETATM   20  C4  UNK     1      18.188   2.247  34.101  1.00  0.00     0.037 A 
HETATM   21  C1  UNK     1      18.304   3.333  33.140  1.00  0.00     0.000 A 
HETATM   22  C2  UNK     1      18.534   3.027  31.802  1.00  0.00     0.089 A 
HETATM   23  C5  UNK     1      18.191   4.674  33.514  1.00  0.00     0.033 A 
HETATM   24  O1  UNK     1      18.654   1.687  31.385  1.00  0.00    -0.274 OA
HETATM   25  C6  UNK     1      18.655   4.020  30.832  1.00  0.00     0.039 A 
HETATM   26  C7  UNK     1      18.548   0.627  32.281  1.00  0.00     0.304 A 
HETATM   27  O3  UNK     1      18.654  -0.537  31.909  1.00  0.00    -0.259 OA
HETATM   28  C10 UNK     1      18.541   5.354  31.215  1.00  0.00     0.022 A 
HETATM   29  C9  UNK     1      18.309   5.681  32.552  1.00  0.00     0.011 A 
HETATM   30 Br1  UNK     1      18.155   7.496  33.065  1.00  0.00    -0.051 Br
ENDBRANCH   3  19
TORSDOF 5
ENDMDL
MODEL 2
REMARK VINA RESULT:      -9.4      7.642     11.681
REMARK  5 active torsions:
REMARK  status: ('A' for Active; 'I' for Inactive)
REMARK    1  A    between atoms: C11_21  and  O2_5 
REMARK    2  A    between atoms: C12_22  and  O2_5 
REMARK       I    between atoms: C8_18  and  N1_9 
REMARK    3  A    between atoms: N1_9  and  N2_10 
REMARK       I    between atoms: C13_23  and  N2_10 
REMARK    4  A    between atoms: C3_13  and  C8_18 
REMARK    5  A    between atoms: C11_21  and  C13_23 
ROOT
HETATM    1  O4  UNK     1      17.571   3.598  32.555  1.00  0.00    -0.266 OA
HETATM    2  N1  UNK     1      18.645   4.920  30.968  1.00  0.00    -0.263 N 
HETATM    3  C8  UNK     1      18.231   3.729  31.527  1.00  0.00     0.276 C 
HETATM    4  H5  UNK     1      19.221   4.993  30.136  1.00  0.00     0.190 HD
ENDROOT
BRANCH   2   5
HETATM    5  N2  UNK     1      18.310   6.099  31.585  1.00  0.00    -0.265 N 
HETATM    6  C13 UNK     1      19.191   6.657  32.492  1.00  0.00     0.260 C 
HETATM    7  O5  UNK     1      20.281   6.187  32.812  1.00  0.00    -0.269 OA
HETATM    8  H8  UNK     1      17.409   6.506  31.355  1.00  0.00     0.190 HD
BRANCH   6   9
HETATM    9  C11 UNK     1      18.657   7.950  33.066  1.00  0.00     0.280 C 
BRANCH   9  10
HETATM   10  O2  UNK     1      17.442   8.307  32.442  1.00  0.00    -0.340 OA
BRANCH  10  11
HETATM   11  C12 UNK     1      16.528   9.004  33.199  1.00  0.00     0.091 A 
HETATM   12  C14 UNK     1      15.184   8.656  33.191  1.00  0.00     0.069 A 
HETATM   13 Cl1  UNK     1      14.603   7.342  32.237  1.00  0.00    -0.081 Cl
HETATM   14  C16 UNK     1      14.280   9.380  33.969  1.00  0.00     0.050 A 
HETATM   15  C18 UNK     1      14.730  10.447  34.748  1.00  0.00     0.035 A 
HETATM   16  C17 UNK     1      16.082  10.789  34.750  1.00  0.00     0.026 A 
HETATM   17 Cl2  UNK     1      13.615  11.342  35.707  1.00  0.00    -0.084 Cl
HETATM   18  C15 UNK     1      16.986  10.065  33.972  1.00  0.00     0.040 A 
ENDBRANCH  10  11
ENDBRANCH   9  10
ENDBRANCH   6   9
ENDBRANCH   2   5
BRANCH   3  19
HETATM   19  C3  UNK     1      18.666   2.561  30.753  1.00  0.00     0.110 A 
HETATM   20  C4  UNK     1      19.111   1.515  31.460  1.00  0.00     0.037 A 
HETATM   21  C1  UNK     1      19.563   0.311  30.781  1.00  0.00     0.000 A 
HETATM   22  C2  UNK     1      19.524   0.266  29.391  1.00  0.00     0.089 A 
HETATM   23  C5  UNK     1      20.036  -0.804  31.478  1.00  0.00     0.033 A 
HETATM   24  O1  UNK     1      19.054   1.369  28.653  1.00  0.00    -0.274 OA
HETATM   25  C6  UNK     1      19.943  -0.857  28.681  1.00  0.00     0.039 A 
HETATM   26  C7  UNK     1      18.615   2.535  29.274  1.00  0.00     0.304 A 
HETATM   27  O3  UNK     1      18.207   3.491  28.623  1.00  0.00    -0.259 OA
HETATM   28  C10 UNK     1      20.413  -1.964  29.384  1.00  0.00     0.022 A 
HETATM   29  C9  UNK     1      20.460  -1.938  30.779  1.00  0.00     0.011 A 
HETATM   30 Br1  UNK     1      21.100  -3.444  31.728  1.00  0.00    -0.051 Br
ENDBRANCH   3  19
TORSDOF 5
ENDMDL
MODEL 3
REMARK VINA RESULT:      -9.3      6.686      9.525
REMARK  5 active torsions:
REMARK  status: ('A' for Active; 'I' for Inactive)
REMARK    1  A    between atoms: C11_21  and  O2_5 
REMARK    2  A    between atoms: C12_22  and  O2_5 
REMARK       I    between atoms: C8_18  and  N1_9 
REMARK    3  A    between atoms: N1_9  and  N2_10 
REMARK       I    between atoms: C13_23  and  N2_10 
REMARK    4  A    between atoms: C3_13  and  C8_18 
REMARK    5  A    between atoms: C11_21  and  C13_23 
ROOT
HETATM    1  O4  UNK     1      16.403   8.343  30.878  1.00  0.00    -0.266 OA
HETATM    2  N1  UNK     1      17.003   6.846  32.557  1.00  0.00    -0.263 N 
HETATM    3  C8  UNK     1      16.442   8.003  32.059  1.00  0.00     0.276 C 
HETATM    4  H5  UNK     1      17.051   6.611  33.543  1.00  0.00     0.190 HD
ENDROOT
BRANCH   2   5
HETATM    5  N2  UNK     1      17.586   5.958  31.687  1.00  0.00    -0.265 N 
HETATM    6  C13 UNK     1      18.112   4.780  32.183  1.00  0.00     0.260 C 
HETATM    7  O5  UNK     1      18.111   4.437  33.364  1.00  0.00    -0.269 OA
HETATM    8  H8  UNK     1      17.618   6.219  30.707  1.00  0.00     0.190 HD
BRANCH   6   9
HETATM    9  C11 UNK     1      18.707   3.929  31.083  1.00  0.00     0.280 C 
BRANCH   9  10
HETATM   10  O2  UNK     1      17.951   2.751  30.900  1.00  0.00    -0.340 OA
BRANCH  10  11
HETATM   11  C12 UNK     1      18.646   1.591  30.650  1.00  0.00     0.091 A 
HETATM   12  C14 UNK     1      18.937   0.700  31.674  1.00  0.00     0.069 A 
HETATM   13 Cl1  UNK     1      18.441   1.007  33.298  1.00  0.00    -0.081 Cl
HETATM   14  C16 UNK     1      19.643  -0.469  31.391  1.00  0.00     0.050 A 
HETATM   15  C18 UNK     1      20.053  -0.737  30.085  1.00  0.00     0.035 A 
HETATM   16  C17 UNK     1      19.756   0.164  29.062  1.00  0.00     0.026 A 
HETATM   17 Cl2  UNK     1      20.926  -2.179  29.734  1.00  0.00    -0.084 Cl
HETATM   18  C15 UNK     1      19.050   1.333  29.345  1.00  0.00     0.040 A 
ENDBRANCH  10  11
ENDBRANCH   9  10
ENDBRANCH   6   9
ENDBRANCH   2   5
BRANCH   3  19
HETATM   19  C3  UNK     1      15.861   8.847  33.108  1.00  0.00     0.110 A 
HETATM   20  C4  UNK     1      14.824   9.612  32.746  1.00  0.00     0.037 A 
HETATM   21  C1  UNK     1      14.180  10.482  33.717  1.00  0.00     0.000 A 
HETATM   22  C2  UNK     1      14.659  10.504  35.023  1.00  0.00     0.089 A 
HETATM   23  C5  UNK     1      13.096  11.298  33.383  1.00  0.00     0.033 A 
HETATM   24  O1  UNK     1      15.750   9.696  35.399  1.00  0.00    -0.274 OA
HETATM   25  C6  UNK     1      14.088  11.315  36.001  1.00  0.00     0.039 A 
HETATM   26  C7  UNK     1      16.386   8.854  34.492  1.00  0.00     0.304 A 
HETATM   27  O3  UNK     1      17.336   8.154  34.828  1.00  0.00    -0.259 OA
HETATM   28  C10 UNK     1      13.007  12.126  35.659  1.00  0.00     0.022 A 
HETATM   29  C9  UNK     1      12.512  12.117  34.354  1.00  0.00     0.011 A 
HETATM   30 Br1  UNK     1      11.045  13.221  33.896  1.00  0.00    -0.051 Br
ENDBRANCH   3  19
TORSDOF 5
ENDMDL
MODEL 4
REMARK VINA RESULT:      -9.3      3.346      4.903
REMARK  5 active torsions:
REMARK  status: ('A' for Active; 'I' for Inactive)
REMARK    1  A    between atoms: C11_21  and  O2_5 
REMARK    2  A    between atoms: C12_22  and  O2_5 
REMARK       I    between atoms: C8_18  and  N1_9 
REMARK    3  A    between atoms: N1_9  and  N2_10 
REMARK       I    between atoms: C13_23  and  N2_10 
REMARK    4  A    between atoms: C3_13  and  C8_18 
REMARK    5  A    between atoms: C11_21  and  C13_23 
ROOT
HETATM    1  O4  UNK     1      21.133  -3.925  36.719  1.00  0.00    -0.266 OA
HETATM    2  N1  UNK     1      18.900  -4.577  36.627  1.00  0.00    -0.263 N 
HETATM    3  C8  UNK     1      19.982  -3.783  36.311  1.00  0.00     0.276 C 
HETATM    4  H5  UNK     1      17.953  -4.412  36.301  1.00  0.00     0.190 HD
ENDROOT
BRANCH   2   5
HETATM    5  N2  UNK     1      19.078  -5.642  37.475  1.00  0.00    -0.265 N 
HETATM    6  C13 UNK     1      18.511  -6.860  37.152  1.00  0.00     0.260 C 
HETATM    7  O5  UNK     1      17.841  -7.093  36.149  1.00  0.00    -0.269 OA
HETATM    8  H8  UNK     1      19.613  -5.478  38.322  1.00  0.00     0.190 HD
BRANCH   6   9
HETATM    9  C11 UNK     1      18.814  -7.910  38.198  1.00  0.00     0.280 C 
BRANCH   9  10
HETATM   10  O2  UNK     1      19.728  -8.862  37.697  1.00  0.00    -0.340 OA
BRANCH  10  11
HETATM   11  C12 UNK     1      21.063  -8.646  37.953  1.00  0.00     0.091 A 
HETATM   12  C14 UNK     1      22.021  -8.872  36.974  1.00  0.00     0.069 A 
HETATM   13 Cl1  UNK     1      21.583  -9.429  35.401  1.00  0.00    -0.081 Cl
HETATM   14  C16 UNK     1      23.367  -8.645  37.261  1.00  0.00     0.050 A 
HETATM   15  C18 UNK     1      23.743  -8.194  38.527  1.00  0.00     0.035 A 
HETATM   16  C17 UNK     1      22.773  -7.969  39.505  1.00  0.00     0.026 A 
HETATM   17 Cl2  UNK     1      25.404  -7.914  38.883  1.00  0.00    -0.084 Cl
HETATM   18  C15 UNK     1      21.427  -8.197  39.217  1.00  0.00     0.040 A 
ENDBRANCH  10  11
ENDBRANCH   9  10
ENDBRANCH   6   9
ENDBRANCH   2   5
BRANCH   3  19
HETATM   19  C3  UNK     1      19.633  -2.690  35.396  1.00  0.00     0.110 A 
HETATM   20  C4  UNK     1      20.118  -2.784  34.151  1.00  0.00     0.037 A 
HETATM   21  C1  UNK     1      19.826  -1.749  33.172  1.00  0.00     0.000 A 
HETATM   22  C2  UNK     1      19.037  -0.667  33.550  1.00  0.00     0.089 A 
HETATM   23  C5  UNK     1      20.310  -1.805  31.863  1.00  0.00     0.033 A 
HETATM   24  O1  UNK     1      18.530  -0.575  34.860  1.00  0.00    -0.274 OA
HETATM   25  C6  UNK     1      18.721   0.357  32.660  1.00  0.00     0.039 A 
HETATM   26  C7  UNK     1      18.792  -1.549  35.819  1.00  0.00     0.304 A 
HETATM   27  O3  UNK     1      18.346  -1.460  36.959  1.00  0.00    -0.259 OA
HETATM   28  C10 UNK     1      19.208   0.294  31.356  1.00  0.00     0.022 A 
HETATM   29  C9  UNK     1      20.001  -0.784  30.958  1.00  0.00     0.011 A 
HETATM   30 Br1  UNK     1      20.661  -0.865  29.187  1.00  0.00    -0.051 Br
ENDBRANCH   3  19
TORSDOF 5
ENDMDL
MODEL 5
REMARK VINA RESULT:      -9.3      2.785      4.391
REMARK  5 active torsions:
REMARK  status: ('A' for Active; 'I' for Inactive)
REMARK    1  A    between atoms: C11_21  and  O2_5 
REMARK    2  A    between atoms: C12_22  and  O2_5 
REMARK       I    between atoms: C8_18  and  N1_9 
REMARK    3  A    between atoms: N1_9  and  N2_10 
REMARK       I    between atoms: C13_23  and  N2_10 
REMARK    4  A    between atoms: C3_13  and  C8_18 
REMARK    5  A    between atoms: C11_21  and  C13_23 
ROOT
HETATM    1  O4  UNK     1      20.901  -3.558  36.149  1.00  0.00    -0.266 OA
HETATM    2  N1  UNK     1      18.688  -4.077  36.655  1.00  0.00    -0.263 N 
HETATM    3  C8  UNK     1      19.705  -3.274  36.184  1.00  0.00     0.276 C 
HETATM    4  H5  UNK     1      17.714  -3.799  36.703  1.00  0.00     0.190 HD
ENDROOT
BRANCH   2   5
HETATM    5  N2  UNK     1      18.993  -5.324  37.143  1.00  0.00    -0.265 N 
HETATM    6  C13 UNK     1      18.041  -6.323  37.074  1.00  0.00     0.260 C 
HETATM    7  O5  UNK     1      16.911  -6.204  36.604  1.00  0.00    -0.269 OA
HETATM    8  H8  UNK     1      19.913  -5.451  37.552  1.00  0.00     0.190 HD
BRANCH   6   9
HETATM    9  C11 UNK     1      18.554  -7.622  37.654  1.00  0.00     0.280 C 
BRANCH   9  10
HETATM   10  O2  UNK     1      18.579  -8.633  36.669  1.00  0.00    -0.340 OA
BRANCH  10  11
HETATM   11  C12 UNK     1      19.774  -9.285  36.467  1.00  0.00     0.091 A 
HETATM   12  C14 UNK     1      20.701  -8.805  35.552  1.00  0.00     0.069 A 
HETATM   13 Cl1  UNK     1      20.398  -7.379  34.630  1.00  0.00    -0.081 Cl
HETATM   14  C16 UNK     1      21.904  -9.487  35.368  1.00  0.00     0.050 A 
HETATM   15  C18 UNK     1      22.169 -10.642  36.103  1.00  0.00     0.035 A 
HETATM   16  C17 UNK     1      21.232 -11.116  37.022  1.00  0.00     0.026 A 
HETATM   17 Cl2  UNK     1      23.654 -11.485  35.878  1.00  0.00    -0.084 Cl
HETATM   18  C15 UNK     1      20.029 -10.435  37.205  1.00  0.00     0.040 A 
ENDBRANCH  10  11
ENDBRANCH   9  10
ENDBRANCH   6   9
ENDBRANCH   2   5
BRANCH   3  19
HETATM   19  C3  UNK     1      19.221  -1.977  35.697  1.00  0.00     0.110 A 
HETATM   20  C4  UNK     1      19.413  -1.725  34.396  1.00  0.00     0.037 A 
HETATM   21  C1  UNK     1      18.967  -0.466  33.821  1.00  0.00     0.000 A 
HETATM   22  C2  UNK     1      18.341   0.466  34.642  1.00  0.00     0.089 A 
HETATM   23  C5  UNK     1      19.146  -0.160  32.469  1.00  0.00     0.033 A 
HETATM   24  O1  UNK     1      18.142   0.195  36.010  1.00  0.00    -0.274 OA
HETATM   25  C6  UNK     1      17.891   1.691  34.154  1.00  0.00     0.039 A 
HETATM   26  C7  UNK     1      18.558  -1.001  36.589  1.00  0.00     0.304 A 
HETATM   27  O3  UNK     1      18.381  -1.229  37.781  1.00  0.00    -0.259 OA
HETATM   28  C10 UNK     1      18.074   1.988  32.805  1.00  0.00     0.022 A 
HETATM   29  C9  UNK     1      18.699   1.066  31.965  1.00  0.00     0.011 A 
HETATM   30 Br1  UNK     1      18.945   1.475  30.134  1.00  0.00    -0.051 Br
ENDBRANCH   3  19
TORSDOF 5
ENDMDL
MODEL 6
REMARK VINA RESULT:      -9.1      2.566      3.743
REMARK  5 active torsions:
REMARK  status: ('A' for Active; 'I' for Inactive)
REMARK    1  A    between atoms: C11_21  and  O2_5 
REMARK    2  A    between atoms: C12_22  and  O2_5 
REMARK       I    between atoms: C8_18  and  N1_9 
REMARK    3  A    between atoms: N1_9  and  N2_10 
REMARK       I    between atoms: C13_23  and  N2_10 
REMARK    4  A    between atoms: C3_13  and  C8_18 
REMARK    5  A    between atoms: C11_21  and  C13_23 
ROOT
HETATM    1  O4  UNK     1      18.538  -1.596  37.918  1.00  0.00    -0.266 OA
HETATM    2  N1  UNK     1      18.742  -2.998  36.070  1.00  0.00    -0.263 N 
HETATM    3  C8  UNK     1      18.580  -1.784  36.704  1.00  0.00     0.276 C 
HETATM    4  H5  UNK     1      18.736  -3.124  35.063  1.00  0.00     0.190 HD
ENDROOT
BRANCH   2   5
HETATM    5  N2  UNK     1      18.873  -4.135  36.828  1.00  0.00    -0.265 N 
HETATM    6  C13 UNK     1      20.140  -4.604  37.121  1.00  0.00     0.260 C 
HETATM    7  O5  UNK     1      21.195  -4.088  36.759  1.00  0.00    -0.269 OA
HETATM    8  H8  UNK     1      18.020  -4.594  37.130  1.00  0.00     0.190 HD
BRANCH   6   9
HETATM    9  C11 UNK     1      20.088  -5.858  37.965  1.00  0.00     0.280 C 
BRANCH   9  10
HETATM   10  O2  UNK     1      19.430  -6.897  37.273  1.00  0.00    -0.340 OA
BRANCH  10  11
HETATM   11  C12 UNK     1      20.196  -7.967  36.870  1.00  0.00     0.091 A 
HETATM   12  C14 UNK     1      20.485  -9.005  37.745  1.00  0.00     0.069 A 
HETATM   13 Cl1  UNK     1      19.899  -9.001  39.368  1.00  0.00    -0.081 Cl
HETATM   14  C16 UNK     1      21.263 -10.078  37.309  1.00  0.00     0.050 A 
HETATM   15  C18 UNK     1      21.746 -10.101  36.001  1.00  0.00     0.035 A 
HETATM   16  C17 UNK     1      21.451  -9.054  35.128  1.00  0.00     0.026 A 
HETATM   17 Cl2  UNK     1      22.708 -11.424  35.462  1.00  0.00    -0.084 Cl
HETATM   18  C15 UNK     1      20.672  -7.981  35.564  1.00  0.00     0.040 A 
ENDBRANCH  10  11
ENDBRANCH   9  10
ENDBRANCH   6   9
ENDBRANCH   2   5
BRANCH   3  19
HETATM   19  C3  UNK     1      18.454  -0.667  35.761  1.00  0.00     0.110 A 
HETATM   20  C4  UNK     1      18.801  -0.921  34.494  1.00  0.00     0.037 A 
HETATM   21  C1  UNK     1      18.710   0.124  33.485  1.00  0.00     0.000 A 
HETATM   22  C2  UNK     1      18.259   1.385  33.861  1.00  0.00     0.089 A 
HETATM   23  C5  UNK     1      19.062  -0.096  32.151  1.00  0.00     0.033 A 
HETATM   24  O1  UNK     1      17.894   1.646  35.197  1.00  0.00    -0.274 OA
HETATM   25  C6  UNK     1      18.148   2.429  32.945  1.00  0.00     0.039 A 
HETATM   26  C7  UNK     1      17.971   0.667  36.183  1.00  0.00     0.304 A 
HETATM   27  O3  UNK     1      17.652   0.903  37.344  1.00  0.00    -0.259 OA
HETATM   28  C10 UNK     1      18.501   2.201  31.617  1.00  0.00     0.022 A 
HETATM   29  C9  UNK     1      18.957   0.943  31.220  1.00  0.00     0.011 A 
HETATM   30 Br1  UNK     1      19.435   0.640  29.415  1.00  0.00    -0.051 Br
ENDBRANCH   3  19
TORSDOF 5
ENDMDL
MODEL 7
REMARK VINA RESULT:      -9.0      1.542      2.121
REMARK  5 active torsions:
REMARK  status: ('A' for Active; 'I' for Inactive)
REMARK    1  A    between atoms: C11_21  and  O2_5 
REMARK    2  A    between atoms: C12_22  and  O2_5 
REMARK       I    between atoms: C8_18  and  N1_9 
REMARK    3  A    between atoms: N1_9  and  N2_10 
REMARK       I    between atoms: C13_23  and  N2_10 
REMARK    4  A    between atoms: C3_13  and  C8_18 
REMARK    5  A    between atoms: C11_21  and  C13_23 
ROOT
HETATM    1  O4  UNK     1      17.293  -0.903  33.619  1.00  0.00    -0.266 OA
HETATM    2  N1  UNK     1      19.018  -0.790  35.177  1.00  0.00    -0.263 N 
HETATM    3  C8  UNK     1      18.108  -0.267  34.284  1.00  0.00     0.276 C 
HETATM    4  H5  UNK     1      19.704  -0.241  35.685  1.00  0.00     0.190 HD
ENDROOT
BRANCH   2   5
HETATM    5  N2  UNK     1      19.055  -2.148  35.376  1.00  0.00    -0.265 N 
HETATM    6  C13 UNK     1      20.280  -2.779  35.479  1.00  0.00     0.260 C 
HETATM    7  O5  UNK     1      21.377  -2.228  35.408  1.00  0.00    -0.269 OA
HETATM    8  H8  UNK     1      18.166  -2.636  35.424  1.00  0.00     0.190 HD
BRANCH   6   9
HETATM    9  C11 UNK     1      20.124  -4.267  35.699  1.00  0.00     0.280 C 
BRANCH   9  10
HETATM   10  O2  UNK     1      19.360  -4.522  36.858  1.00  0.00    -0.340 OA
BRANCH  10  11
HETATM   11  C12 UNK     1      19.545  -5.736  37.478  1.00  0.00     0.091 A 
HETATM   12  C14 UNK     1      18.673  -6.793  37.248  1.00  0.00     0.069 A 
HETATM   13 Cl1  UNK     1      17.328  -6.630  36.180  1.00  0.00    -0.081 Cl
HETATM   14  C16 UNK     1      18.885  -8.013  37.889  1.00  0.00     0.050 A 
HETATM   15  C18 UNK     1      19.967  -8.166  38.756  1.00  0.00     0.035 A 
HETATM   16  C17 UNK     1      20.838  -7.099  38.982  1.00  0.00     0.026 A 
HETATM   17 Cl2  UNK     1      20.229  -9.671  39.550  1.00  0.00    -0.084 Cl
HETATM   18  C15 UNK     1      20.626  -5.879  38.340  1.00  0.00     0.040 A 
ENDBRANCH  10  11
ENDBRANCH   9  10
ENDBRANCH   6   9
ENDBRANCH   2   5
BRANCH   3  19
HETATM   19  C3  UNK     1      18.191   1.194  34.182  1.00  0.00     0.110 A 
HETATM   20  C4  UNK     1      18.330   1.694  32.948  1.00  0.00     0.037 A 
HETATM   21  C1  UNK     1      18.421   3.132  32.746  1.00  0.00     0.000 A 
HETATM   22  C2  UNK     1      18.360   3.972  33.853  1.00  0.00     0.089 A 
HETATM   23  C5  UNK     1      18.568   3.697  31.477  1.00  0.00     0.033 A 
HETATM   24  O1  UNK     1      18.213   3.440  35.148  1.00  0.00    -0.274 OA
HETATM   25  C6  UNK     1      18.442   5.357  33.728  1.00  0.00     0.039 A 
HETATM   26  C7  UNK     1      18.123   2.069  35.373  1.00  0.00     0.304 A 
HETATM   27  O3  UNK     1      17.995   1.615  36.505  1.00  0.00    -0.259 OA
HETATM   28  C10 UNK     1      18.588   5.913  32.459  1.00  0.00     0.022 A 
HETATM   29  C9  UNK     1      18.651   5.086  31.336  1.00  0.00     0.011 A 
HETATM   30 Br1  UNK     1      18.851   5.847  29.615  1.00  0.00    -0.051 Br
ENDBRANCH   3  19
TORSDOF 5
ENDMDL
MODEL 8
REMARK VINA RESULT:      -9.0      5.206     11.021
REMARK  5 active torsions:
REMARK  status: ('A' for Active; 'I' for Inactive)
REMARK    1  A    between atoms: C11_21  and  O2_5 
REMARK    2  A    between atoms: C12_22  and  O2_5 
REMARK       I    between atoms: C8_18  and  N1_9 
REMARK    3  A    between atoms: N1_9  and  N2_10 
REMARK       I    between atoms: C13_23  and  N2_10 
REMARK    4  A    between atoms: C3_13  and  C8_18 
REMARK    5  A    between atoms: C11_21  and  C13_23 
ROOT
HETATM    1  O4  UNK     1      20.044  -5.926  38.688  1.00  0.00    -0.266 OA
HETATM    2  N1  UNK     1      19.317  -5.529  36.513  1.00  0.00    -0.263 N 
HETATM    3  C8  UNK     1      19.931  -6.257  37.510  1.00  0.00     0.276 C 
HETATM    4  H5  UNK     1      19.272  -5.815  35.540  1.00  0.00     0.190 HD
ENDROOT
BRANCH   2   5
HETATM    5  N2  UNK     1      18.763  -4.311  36.819  1.00  0.00    -0.265 N 
HETATM    6  C13 UNK     1      19.460  -3.159  36.506  1.00  0.00     0.260 C 
HETATM    7  O5  UNK     1      20.562  -3.115  35.964  1.00  0.00    -0.269 OA
HETATM    8  H8  UNK     1      17.860  -4.313  37.282  1.00  0.00     0.190 HD
BRANCH   6   9
HETATM    9  C11 UNK     1      18.696  -1.919  36.912  1.00  0.00     0.280 C 
BRANCH   9  10
HETATM   10  O2  UNK     1      17.838  -1.499  35.873  1.00  0.00    -0.340 OA
BRANCH  10  11
HETATM   11  C12 UNK     1      17.978  -0.205  35.427  1.00  0.00     0.091 A 
HETATM   12  C14 UNK     1      18.249   0.062  34.091  1.00  0.00     0.069 A 
HETATM   13 Cl1  UNK     1      18.419  -1.210  32.938  1.00  0.00    -0.081 Cl
HETATM   14  C16 UNK     1      18.386   1.383  33.666  1.00  0.00     0.050 A 
HETATM   15  C18 UNK     1      18.251   2.427  34.582  1.00  0.00     0.035 A 
HETATM   16  C17 UNK     1      17.980   2.150  35.922  1.00  0.00     0.026 A 
HETATM   17 Cl2  UNK     1      18.421   4.059  34.059  1.00  0.00    -0.084 Cl
HETATM   18  C15 UNK     1      17.843   0.828  36.347  1.00  0.00     0.040 A 
ENDBRANCH  10  11
ENDBRANCH   9  10
ENDBRANCH   6   9
ENDBRANCH   2   5
BRANCH   3  19
HETATM   19  C3  UNK     1      20.472  -7.533  37.028  1.00  0.00     0.110 A 
HETATM   20  C4  UNK     1      21.789  -7.713  37.182  1.00  0.00     0.037 A 
HETATM   21  C1  UNK     1      22.417  -8.947  36.735  1.00  0.00     0.000 A 
HETATM   22  C2  UNK     1      21.627  -9.930  36.148  1.00  0.00     0.089 A 
HETATM   23  C5  UNK     1      23.787  -9.178  36.875  1.00  0.00     0.033 A 
HETATM   24  O1  UNK     1      20.241  -9.735  35.989  1.00  0.00    -0.274 OA
HETATM   25  C6  UNK     1      22.166 -11.134  35.699  1.00  0.00     0.039 A 
HETATM   26  C7  UNK     1      19.612  -8.565  36.407  1.00  0.00     0.304 A 
HETATM   27  O3  UNK     1      18.405  -8.403  36.264  1.00  0.00    -0.259 OA
HETATM   28  C10 UNK     1      23.534 -11.356  35.842  1.00  0.00     0.022 A 
HETATM   29  C9  UNK     1      24.343 -10.381  36.429  1.00  0.00     0.011 A 
HETATM   30 Br1  UNK     1      26.200 -10.689  36.620  1.00  0.00    -0.051 Br
ENDBRANCH   3  19
TORSDOF 5
ENDMDL
MODEL 9
REMARK VINA RESULT:      -9.0      9.554     12.863
REMARK  5 active torsions:
REMARK  status: ('A' for Active; 'I' for Inactive)
REMARK    1  A    between atoms: C11_21  and  O2_5 
REMARK    2  A    between atoms: C12_22  and  O2_5 
REMARK       I    between atoms: C8_18  and  N1_9 
REMARK    3  A    between atoms: N1_9  and  N2_10 
REMARK       I    between atoms: C13_23  and  N2_10 
REMARK    4  A    between atoms: C3_13  and  C8_18 
REMARK    5  A    between atoms: C11_21  and  C13_23 
ROOT
HETATM    1  O4  UNK     1      25.133  -8.111  37.775  1.00  0.00    -0.266 OA
HETATM    2  N1  UNK     1      25.287 -10.208  36.776  1.00  0.00    -0.263 N 
HETATM    3  C8  UNK     1      25.781  -9.094  37.421  1.00  0.00     0.276 C 
HETATM    4  H5  UNK     1      25.856 -10.989  36.464  1.00  0.00     0.190 HD
ENDROOT
BRANCH   2   5
HETATM    5  N2  UNK     1      23.948 -10.270  36.479  1.00  0.00    -0.265 N 
HETATM    6  C13 UNK     1      23.477 -11.324  35.720  1.00  0.00     0.260 C 
HETATM    7  O5  UNK     1      24.159 -12.242  35.269  1.00  0.00    -0.269 OA
HETATM    8  H8  UNK     1      23.360  -9.519  36.824  1.00  0.00     0.190 HD
BRANCH   6   9
HETATM    9  C11 UNK     1      21.984 -11.227  35.498  1.00  0.00     0.280 C 
BRANCH   9  10
HETATM   10  O2  UNK     1      21.319 -10.930  36.707  1.00  0.00    -0.340 OA
BRANCH  10  11
HETATM   11  C12 UNK     1      20.466  -9.850  36.706  1.00  0.00     0.091 A 
HETATM   12  C14 UNK     1      19.470  -9.729  37.666  1.00  0.00     0.069 A 
HETATM   13 Cl1  UNK     1      19.260 -10.920  38.897  1.00  0.00    -0.081 Cl
HETATM   14  C16 UNK     1      18.620  -8.624  37.641  1.00  0.00     0.050 A 
HETATM   15  C18 UNK     1      18.773  -7.649  36.655  1.00  0.00     0.035 A 
HETATM   16  C17 UNK     1      19.776  -7.779  35.694  1.00  0.00     0.026 A 
HETATM   17 Cl2  UNK     1      17.723  -6.285  36.622  1.00  0.00    -0.084 Cl
HETATM   18  C15 UNK     1      20.627  -8.884  35.719  1.00  0.00     0.040 A 
ENDBRANCH  10  11
ENDBRANCH   9  10
ENDBRANCH   6   9
ENDBRANCH   2   5
BRANCH   3  19
HETATM   19  C3  UNK     1      27.225  -9.178  37.669  1.00  0.00     0.110 A 
HETATM   20  C4  UNK     1      28.009  -8.492  36.829  1.00  0.00     0.037 A 
HETATM   21  C1  UNK     1      29.454  -8.512  36.993  1.00  0.00     0.000 A 
HETATM   22  C2  UNK     1      30.003  -9.254  38.035  1.00  0.00     0.089 A 
HETATM   23  C5  UNK     1      30.311  -7.813  36.140  1.00  0.00     0.033 A 
HETATM   24  O1  UNK     1      29.171  -9.973  38.916  1.00  0.00    -0.274 OA
HETATM   25  C6  UNK     1      31.378  -9.316  38.247  1.00  0.00     0.039 A 
HETATM   26  C7  UNK     1      27.786  -9.973  38.783  1.00  0.00     0.304 A 
HETATM   27  O3  UNK     1      27.070 -10.602  39.555  1.00  0.00    -0.259 OA
HETATM   28  C10 UNK     1      32.225  -8.615  37.392  1.00  0.00     0.022 A 
HETATM   29  C9  UNK     1      31.694  -7.865  36.341  1.00  0.00     0.011 A 
HETATM   30 Br1  UNK     1      32.850  -6.916  35.183  1.00  0.00    -0.051 Br
ENDBRANCH   3  19
TORSDOF 5
ENDMDL
MODEL 10
REMARK VINA RESULT:      -9.0      9.004     11.745
REMARK  5 active torsions:
REMARK  status: ('A' for Active; 'I' for Inactive)
REMARK    1  A    between atoms: C11_21  and  O2_5 
REMARK    2  A    between atoms: C12_22  and  O2_5 
REMARK       I    between atoms: C8_18  and  N1_9 
REMARK    3  A    between atoms: N1_9  and  N2_10 
REMARK       I    between atoms: C13_23  and  N2_10 
REMARK    4  A    between atoms: C3_13  and  C8_18 
REMARK    5  A    between atoms: C11_21  and  C13_23 
ROOT
HETATM    1  O4  UNK     1      26.115  -8.489  37.139  1.00  0.00    -0.266 OA
HETATM    2  N1  UNK     1      25.370  -7.673  39.188  1.00  0.00    -0.263 N 
HETATM    3  C8  UNK     1      26.245  -7.770  38.127  1.00  0.00     0.276 C 
HETATM    4  H5  UNK     1      25.524  -7.096  40.007  1.00  0.00     0.190 HD
ENDROOT
BRANCH   2   5
HETATM    5  N2  UNK     1      24.229  -8.437  39.184  1.00  0.00    -0.265 N 
HETATM    6  C13 UNK     1      23.013  -7.829  39.434  1.00  0.00     0.260 C 
HETATM    7  O5  UNK     1      22.846  -6.634  39.668  1.00  0.00    -0.269 OA
HETATM    8  H8  UNK     1      24.334  -9.431  39.010  1.00  0.00     0.190 HD
BRANCH   6   9
HETATM    9  C11 UNK     1      21.873  -8.822  39.385  1.00  0.00     0.280 C 
BRANCH   9  10
HETATM   10  O2  UNK     1      20.639  -8.175  39.608  1.00  0.00    -0.340 OA
BRANCH  10  11
HETATM   11  C12 UNK     1      19.802  -8.029  38.526  1.00  0.00     0.091 A 
HETATM   12  C14 UNK     1      19.211  -9.135  37.929  1.00  0.00     0.069 A 
HETATM   13 Cl1  UNK     1      19.499 -10.732  38.514  1.00  0.00    -0.081 Cl
HETATM   14  C16 UNK     1      18.367  -8.957  36.833  1.00  0.00     0.050 A 
HETATM   15  C18 UNK     1      18.120  -7.674  36.343  1.00  0.00     0.035 A 
HETATM   16  C17 UNK     1      18.718  -6.569  36.949  1.00  0.00     0.026 A 
HETATM   17 Cl2  UNK     1      17.079  -7.454  34.990  1.00  0.00    -0.084 Cl
HETATM   18  C15 UNK     1      19.563  -6.746  38.045  1.00  0.00     0.040 A 
ENDBRANCH  10  11
ENDBRANCH   9  10
ENDBRANCH   6   9
ENDBRANCH   2   5
BRANCH   3  19
HETATM   19  C3  UNK     1      27.413  -6.894  38.276  1.00  0.00     0.110 A 
HETATM   20  C4  UNK     1      28.602  -7.442  38.000  1.00  0.00     0.037 A 
HETATM   21  C1  UNK     1      29.818  -6.653  38.119  1.00  0.00     0.000 A 
HETATM   22  C2  UNK     1      29.723  -5.325  38.523  1.00  0.00     0.089 A 
HETATM   23  C5  UNK     1      31.081  -7.183  37.841  1.00  0.00     0.033 A 
HETATM   24  O1  UNK     1      28.468  -4.754  38.812  1.00  0.00    -0.274 OA
HETATM   25  C6  UNK     1      30.848  -4.515  38.657  1.00  0.00     0.039 A 
HETATM   26  C7  UNK     1      27.287  -5.484  38.707  1.00  0.00     0.304 A 
HETATM   27  O3  UNK     1      26.199  -4.978  38.962  1.00  0.00    -0.259 OA
HETATM   28  C10 UNK     1      32.103  -5.053  38.378  1.00  0.00     0.022 A 
HETATM   29  C9  UNK     1      32.220  -6.383  37.971  1.00  0.00     0.011 A 
HETATM   30 Br1  UNK     1      33.927  -7.106  37.594  1.00  0.00    -0.051 Br
ENDBRANCH   3  19
TORSDOF 5
ENDMDL
