MODEL 1
REMARK VINA RESULT:      -7.7      0.000      0.000
REMARK  8 active torsions:
REMARK  status: ('A' for Active; 'I' for Inactive)
REMARK    1  A    between atoms: C6_11  and  O2_2 
REMARK    2  A    between atoms: C7_12  and  O2_2 
REMARK    3  A    between atoms: C15_20  and  O3_3 
REMARK    4  A    between atoms: C22_27  and  O3_3 
REMARK    5  A    between atoms: C3_8  and  C4_9 
REMARK    6  A    between atoms: C11_16  and  C4_9 
REMARK    7  A    between atoms: C13_18  and  C6_11 
REMARK    8  A    between atoms: C15_20  and  C6_11 
ROOT
HETATM    1  O1  UNK     1      16.068   6.439   9.683  1.00  0.00    -0.274 OA
HETATM    2  O4  UNK     1      14.980   4.453   9.532  1.00  0.00    -0.259 OA
HETATM    3  C1  UNK     1      13.558   7.733   9.877  1.00  0.00    -0.036 A 
HETATM    4  C2  UNK     1      14.813   8.512   9.901  1.00  0.00     0.005 A 
HETATM    5  C3  UNK     1      13.611   6.393   9.725  1.00  0.00     0.029 A 
HETATM    6  C5  UNK     1      16.026   7.836   9.805  1.00  0.00     0.092 A 
HETATM    7  C7  UNK     1      17.288   9.880   9.932  1.00  0.00     0.072 A 
HETATM    8  C8  UNK     1      14.867   9.911  10.006  1.00  0.00     0.017 A 
HETATM    9  C9  UNK     1      17.258   8.495   9.820  1.00  0.00     0.075 A 
HETATM   10  C10 UNK     1      14.915   5.674   9.635  1.00  0.00     0.295 A 
HETATM   11  C12 UNK     1      12.272   8.507  10.042  1.00  0.00     0.050 C 
HETATM   12  C14 UNK     1      16.093  10.588  10.023  1.00  0.00     0.038 A 
ENDROOT
BRANCH   7  13
HETATM   13  O2  UNK     1      18.477  10.541   9.948  1.00  0.00    -0.336 OA
BRANCH  13  14
HETATM   14  C6  UNK     1      18.541  11.780   9.242  1.00  0.00     0.228 C 
BRANCH  14  15
HETATM   15  C13 UNK     1      19.610  12.665   9.884  1.00  0.00     0.038 C 
HETATM   16  C16 UNK     1      20.653  11.854  10.639  1.00  0.00     0.008 C 
ENDBRANCH  14  15
BRANCH  14  17
HETATM   17  C15 UNK     1      18.880  11.479   7.795  1.00  0.00     0.288 C 
HETATM   18  O5  UNK     1      19.727  10.673   7.434  1.00  0.00    -0.262 OA
BRANCH  17  19
HETATM   19  O3  UNK     1      18.117  12.258   6.973  1.00  0.00    -0.320 OA
BRANCH  19  20
HETATM   20  C22 UNK     1      18.814  12.866   5.880  1.00  0.00     0.174 C 
HETATM   21  C23 UNK     1      19.396  14.186   6.340  1.00  0.00     0.034 C 
ENDBRANCH  19  20
ENDBRANCH  17  19
ENDBRANCH  14  17
ENDBRANCH  13  14
ENDBRANCH   7  13
BRANCH   5  22
HETATM   22  C4  UNK     1      12.410   5.489   9.620  1.00  0.00     0.084 C 
BRANCH  22  23
HETATM   23  C11 UNK     1      11.591   5.774   8.396  1.00  0.00    -0.054 A 
HETATM   24  C17 UNK     1      10.212   5.913   8.506  1.00  0.00     0.007 A 
HETATM   25  C19 UNK     1       9.450   6.179   7.368  1.00  0.00     0.001 A 
HETATM   26  C21 UNK     1      10.073   6.303   6.126  1.00  0.00     0.000 A 
HETATM   27  C20 UNK     1      11.457   6.162   6.023  1.00  0.00     0.001 A 
HETATM   28  C18 UNK     1      12.218   5.897   7.161  1.00  0.00     0.007 A 
ENDBRANCH  22  23
ENDBRANCH   5  22
TORSDOF 8
ENDMDL
MODEL 2
REMARK VINA RESULT:      -7.7     29.479     31.517
REMARK  8 active torsions:
REMARK  status: ('A' for Active; 'I' for Inactive)
REMARK    1  A    between atoms: C6_11  and  O2_2 
REMARK    2  A    between atoms: C7_12  and  O2_2 
REMARK    3  A    between atoms: C15_20  and  O3_3 
REMARK    4  A    between atoms: C22_27  and  O3_3 
REMARK    5  A    between atoms: C3_8  and  C4_9 
REMARK    6  A    between atoms: C11_16  and  C4_9 
REMARK    7  A    between atoms: C13_18  and  C6_11 
REMARK    8  A    between atoms: C15_20  and  C6_11 
ROOT
HETATM    1  O1  UNK     1      22.201  -4.481  37.779  1.00  0.00    -0.274 OA
HETATM    2  O4  UNK     1      23.455  -6.076  38.796  1.00  0.00    -0.259 OA
HETATM    3  C1  UNK     1      19.979  -6.230  37.904  1.00  0.00    -0.036 A 
HETATM    4  C2  UNK     1      19.852  -4.891  37.293  1.00  0.00     0.005 A 
HETATM    5  C3  UNK     1      21.178  -6.634  38.375  1.00  0.00     0.029 A 
HETATM    6  C5  UNK     1      20.970  -4.061  37.253  1.00  0.00     0.092 A 
HETATM    7  C7  UNK     1      19.749  -2.306  36.150  1.00  0.00     0.072 A 
HETATM    8  C8  UNK     1      18.666  -4.393  36.731  1.00  0.00     0.017 A 
HETATM    9  C9  UNK     1      20.937  -2.781  36.695  1.00  0.00     0.075 A 
HETATM   10  C10 UNK     1      22.368  -5.735  38.341  1.00  0.00     0.295 A 
HETATM   11  C12 UNK     1      18.726  -7.069  37.974  1.00  0.00     0.050 C 
HETATM   12  C14 UNK     1      18.614  -3.112  36.167  1.00  0.00     0.038 A 
ENDROOT
BRANCH   7  13
HETATM   13  O2  UNK     1      19.696  -1.063  35.601  1.00  0.00    -0.336 OA
BRANCH  13  14
HETATM   14  C6  UNK     1      18.404  -0.552  35.274  1.00  0.00     0.228 C 
BRANCH  14  15
HETATM   15  C13 UNK     1      18.127   0.687  36.126  1.00  0.00     0.038 C 
HETATM   16  C16 UNK     1      17.559   0.332  37.493  1.00  0.00     0.008 C 
ENDBRANCH  14  15
BRANCH  14  17
HETATM   17  C15 UNK     1      18.395  -0.211  33.797  1.00  0.00     0.288 C 
HETATM   18  O5  UNK     1      18.325   0.926  33.347  1.00  0.00    -0.262 OA
BRANCH  17  19
HETATM   19  O3  UNK     1      18.449  -1.359  33.059  1.00  0.00    -0.320 OA
BRANCH  19  20
HETATM   20  C22 UNK     1      19.428  -1.375  32.015  1.00  0.00     0.174 C 
HETATM   21  C23 UNK     1      20.583  -2.259  32.436  1.00  0.00     0.034 C 
ENDBRANCH  19  20
ENDBRANCH  17  19
ENDBRANCH  14  17
ENDBRANCH  13  14
ENDBRANCH   7  13
BRANCH   5  22
HETATM   22  C4  UNK     1      21.460  -7.994  38.962  1.00  0.00     0.084 C 
BRANCH  22  23
HETATM   23  C11 UNK     1      21.546  -9.058  37.908  1.00  0.00    -0.054 A 
HETATM   24  C17 UNK     1      22.557  -9.003  36.954  1.00  0.00     0.007 A 
HETATM   25  C19 UNK     1      22.637  -9.992  35.974  1.00  0.00     0.001 A 
HETATM   26  C21 UNK     1      21.708 -11.032  35.955  1.00  0.00     0.000 A 
HETATM   27  C20 UNK     1      20.697 -11.081  36.915  1.00  0.00     0.001 A 
HETATM   28  C18 UNK     1      20.616 -10.092  37.894  1.00  0.00     0.007 A 
ENDBRANCH  22  23
ENDBRANCH   5  22
TORSDOF 8
ENDMDL
MODEL 3
REMARK VINA RESULT:      -7.7      1.031      1.549
REMARK  8 active torsions:
REMARK  status: ('A' for Active; 'I' for Inactive)
REMARK    1  A    between atoms: C6_11  and  O2_2 
REMARK    2  A    between atoms: C7_12  and  O2_2 
REMARK    3  A    between atoms: C15_20  and  O3_3 
REMARK    4  A    between atoms: C22_27  and  O3_3 
REMARK    5  A    between atoms: C3_8  and  C4_9 
REMARK    6  A    between atoms: C11_16  and  C4_9 
REMARK    7  A    between atoms: C13_18  and  C6_11 
REMARK    8  A    between atoms: C15_20  and  C6_11 
ROOT
HETATM    1  O1  UNK     1      16.001   6.408   9.813  1.00  0.00    -0.274 OA
HETATM    2  O4  UNK     1      14.862   4.446   9.743  1.00  0.00    -0.259 OA
HETATM    3  C1  UNK     1      13.525   7.779   9.821  1.00  0.00    -0.036 A 
HETATM    4  C2  UNK     1      14.800   8.523   9.848  1.00  0.00     0.005 A 
HETATM    5  C3  UNK     1      13.544   6.431   9.757  1.00  0.00     0.029 A 
HETATM    6  C5  UNK     1      15.996   7.811   9.844  1.00  0.00     0.092 A 
HETATM    7  C7  UNK     1      17.311   9.824   9.893  1.00  0.00     0.072 A 
HETATM    8  C8  UNK     1      14.891   9.924   9.866  1.00  0.00     0.017 A 
HETATM    9  C9  UNK     1      17.245   8.436   9.868  1.00  0.00     0.075 A 
HETATM   10  C10 UNK     1      14.829   5.672   9.766  1.00  0.00     0.295 A 
HETATM   11  C12 UNK     1      12.257   8.595   9.885  1.00  0.00     0.050 C 
HETATM   12  C14 UNK     1      16.135  10.568   9.891  1.00  0.00     0.038 A 
ENDROOT
BRANCH   7  13
HETATM   13  O2  UNK     1      18.517  10.452   9.916  1.00  0.00    -0.336 OA
BRANCH  13  14
HETATM   14  C6  UNK     1      18.512  11.873   9.785  1.00  0.00     0.228 C 
BRANCH  14  15
HETATM   15  C13 UNK     1      19.001  12.497  11.092  1.00  0.00     0.038 C 
HETATM   16  C16 UNK     1      17.892  13.231  11.831  1.00  0.00     0.008 C 
ENDBRANCH  14  15
BRANCH  14  17
HETATM   17  C15 UNK     1      19.424  12.242   8.631  1.00  0.00     0.288 C 
HETATM   18  O5  UNK     1      19.255  13.204   7.893  1.00  0.00    -0.262 OA
BRANCH  17  19
HETATM   19  O3  UNK     1      20.432  11.327   8.530  1.00  0.00    -0.320 OA
BRANCH  19  20
HETATM   20  C22 UNK     1      21.722  11.862   8.218  1.00  0.00     0.174 C 
HETATM   21  C23 UNK     1      22.355  12.396   9.486  1.00  0.00     0.034 C 
ENDBRANCH  19  20
ENDBRANCH  17  19
ENDBRANCH  14  17
ENDBRANCH  13  14
ENDBRANCH   7  13
BRANCH   5  22
HETATM   22  C4  UNK     1      12.322   5.554   9.661  1.00  0.00     0.084 C 
BRANCH  22  23
HETATM   23  C11 UNK     1      11.543   5.804   8.403  1.00  0.00    -0.054 A 
HETATM   24  C17 UNK     1      10.161   5.949   8.465  1.00  0.00     0.007 A 
HETATM   25  C19 UNK     1       9.438   6.181   7.296  1.00  0.00     0.001 A 
HETATM   26  C21 UNK     1      10.100   6.267   6.071  1.00  0.00     0.000 A 
HETATM   27  C20 UNK     1      11.485   6.121   6.016  1.00  0.00     0.001 A 
HETATM   28  C18 UNK     1      12.209   5.888   7.185  1.00  0.00     0.007 A 
ENDBRANCH  22  23
ENDBRANCH   5  22
TORSDOF 8
ENDMDL
MODEL 4
REMARK VINA RESULT:      -7.6     31.392     33.594
REMARK  8 active torsions:
REMARK  status: ('A' for Active; 'I' for Inactive)
REMARK    1  A    between atoms: C6_11  and  O2_2 
REMARK    2  A    between atoms: C7_12  and  O2_2 
REMARK    3  A    between atoms: C15_20  and  O3_3 
REMARK    4  A    between atoms: C22_27  and  O3_3 
REMARK    5  A    between atoms: C3_8  and  C4_9 
REMARK    6  A    between atoms: C11_16  and  C4_9 
REMARK    7  A    between atoms: C13_18  and  C6_11 
REMARK    8  A    between atoms: C15_20  and  C6_11 
ROOT
HETATM    1  O1  UNK     1      29.000  -5.832  33.303  1.00  0.00    -0.274 OA
HETATM    2  O4  UNK     1      28.988  -5.123  31.147  1.00  0.00    -0.259 OA
HETATM    3  C1  UNK     1      30.834  -7.858  32.567  1.00  0.00    -0.036 A 
HETATM    4  C2  UNK     1      30.360  -7.739  33.961  1.00  0.00     0.005 A 
HETATM    5  C3  UNK     1      30.359  -7.011  31.630  1.00  0.00     0.029 A 
HETATM    6  C5  UNK     1      29.458  -6.727  34.281  1.00  0.00     0.092 A 
HETATM    7  C7  UNK     1      29.369  -7.401  36.589  1.00  0.00     0.072 A 
HETATM    8  C8  UNK     1      30.754  -8.596  35.001  1.00  0.00     0.017 A 
HETATM    9  C9  UNK     1      28.960  -6.544  35.574  1.00  0.00     0.075 A 
HETATM   10  C10 UNK     1      29.403  -5.921  31.982  1.00  0.00     0.295 A 
HETATM   11  C12 UNK     1      31.854  -8.934  32.284  1.00  0.00     0.050 C 
HETATM   12  C14 UNK     1      30.265  -8.428  36.302  1.00  0.00     0.038 A 
ENDROOT
BRANCH   7  13
HETATM   13  O2  UNK     1      28.896  -7.240  37.854  1.00  0.00    -0.336 OA
BRANCH  13  14
HETATM   14  C6  UNK     1      27.564  -6.746  37.991  1.00  0.00     0.228 C 
BRANCH  14  15
HETATM   15  C13 UNK     1      26.717  -7.790  38.717  1.00  0.00     0.038 C 
HETATM   16  C16 UNK     1      27.545  -8.655  39.656  1.00  0.00     0.008 C 
ENDBRANCH  14  15
BRANCH  14  17
HETATM   17  C15 UNK     1      27.624  -5.450  38.776  1.00  0.00     0.288 C 
HETATM   18  O5  UNK     1      26.719  -4.627  38.827  1.00  0.00    -0.262 OA
BRANCH  17  19
HETATM   19  O3  UNK     1      28.840  -5.337  39.387  1.00  0.00    -0.320 OA
BRANCH  19  20
HETATM   20  C22 UNK     1      29.466  -4.054  39.281  1.00  0.00     0.174 C 
HETATM   21  C23 UNK     1      30.136  -3.942  37.928  1.00  0.00     0.034 C 
ENDBRANCH  19  20
ENDBRANCH  17  19
ENDBRANCH  14  17
ENDBRANCH  13  14
ENDBRANCH   7  13
BRANCH   5  22
HETATM   22  C4  UNK     1      30.709  -7.062  30.164  1.00  0.00     0.084 C 
BRANCH  22  23
HETATM   23  C11 UNK     1      29.973  -8.153  29.444  1.00  0.00    -0.054 A 
HETATM   24  C17 UNK     1      28.631  -8.384  29.730  1.00  0.00     0.007 A 
HETATM   25  C19 UNK     1      27.946  -9.398  29.061  1.00  0.00     0.001 A 
HETATM   26  C21 UNK     1      28.607 -10.175  28.109  1.00  0.00     0.000 A 
HETATM   27  C20 UNK     1      29.952  -9.938  27.828  1.00  0.00     0.001 A 
HETATM   28  C18 UNK     1      30.637  -8.924  28.497  1.00  0.00     0.007 A 
ENDBRANCH  22  23
ENDBRANCH   5  22
TORSDOF 8
ENDMDL
MODEL 5
REMARK VINA RESULT:      -7.6     23.755     25.830
REMARK  8 active torsions:
REMARK  status: ('A' for Active; 'I' for Inactive)
REMARK    1  A    between atoms: C6_11  and  O2_2 
REMARK    2  A    between atoms: C7_12  and  O2_2 
REMARK    3  A    between atoms: C15_20  and  O3_3 
REMARK    4  A    between atoms: C22_27  and  O3_3 
REMARK    5  A    between atoms: C3_8  and  C4_9 
REMARK    6  A    between atoms: C11_16  and  C4_9 
REMARK    7  A    between atoms: C13_18  and  C6_11 
REMARK    8  A    between atoms: C15_20  and  C6_11 
ROOT
HETATM    1  O1  UNK     1      15.266   8.413  33.316  1.00  0.00    -0.274 OA
HETATM    2  O4  UNK     1      13.689  10.041  33.450  1.00  0.00    -0.259 OA
HETATM    3  C1  UNK     1      17.224  10.332  34.018  1.00  0.00    -0.036 A 
HETATM    4  C2  UNK     1      17.603   8.929  33.753  1.00  0.00     0.005 A 
HETATM    5  C3  UNK     1      15.934  10.707  33.890  1.00  0.00     0.029 A 
HETATM    6  C5  UNK     1      16.608   8.017  33.411  1.00  0.00     0.092 A 
HETATM    7  C7  UNK     1      18.190   6.215  33.215  1.00  0.00     0.072 A 
HETATM    8  C8  UNK     1      18.920   8.446  33.811  1.00  0.00     0.017 A 
HETATM    9  C9  UNK     1      16.880   6.672  33.144  1.00  0.00     0.075 A 
HETATM   10  C10 UNK     1      14.871   9.721  33.537  1.00  0.00     0.295 A 
HETATM   11  C12 UNK     1      18.330  11.268  34.440  1.00  0.00     0.050 C 
HETATM   12  C14 UNK     1      19.211   7.102  33.546  1.00  0.00     0.038 A 
ENDROOT
BRANCH   7  13
HETATM   13  O2  UNK     1      18.476   4.910  32.958  1.00  0.00    -0.336 OA
BRANCH  13  14
HETATM   14  C6  UNK     1      18.343   4.470  31.607  1.00  0.00     0.228 C 
BRANCH  14  15
HETATM   15  C13 UNK     1      19.519   5.003  30.790  1.00  0.00     0.038 C 
HETATM   16  C16 UNK     1      19.074   5.970  29.702  1.00  0.00     0.008 C 
ENDBRANCH  14  15
BRANCH  14  17
HETATM   17  C15 UNK     1      18.322   2.953  31.608  1.00  0.00     0.288 C 
HETATM   18  O5  UNK     1      17.735   2.268  32.435  1.00  0.00    -0.262 OA
BRANCH  17  19
HETATM   19  O3  UNK     1      19.074   2.482  30.570  1.00  0.00    -0.320 OA
BRANCH  19  20
HETATM   20  C22 UNK     1      18.520   1.368  29.864  1.00  0.00     0.174 C 
HETATM   21  C23 UNK     1      17.866   1.866  28.592  1.00  0.00     0.034 C 
ENDBRANCH  19  20
ENDBRANCH  17  19
ENDBRANCH  14  17
ENDBRANCH  13  14
ENDBRANCH   7  13
BRANCH   5  22
HETATM   22  C4  UNK     1      15.423  12.114  34.068  1.00  0.00     0.084 C 
BRANCH  22  23
HETATM   23  C11 UNK     1      15.197  12.455  35.511  1.00  0.00    -0.054 A 
HETATM   24  C17 UNK     1      16.057  13.340  36.153  1.00  0.00     0.007 A 
HETATM   25  C19 UNK     1      15.847  13.657  37.495  1.00  0.00     0.001 A 
HETATM   26  C21 UNK     1      14.778  13.089  38.187  1.00  0.00     0.000 A 
HETATM   27  C20 UNK     1      13.919  12.202  37.537  1.00  0.00     0.001 A 
HETATM   28  C18 UNK     1      14.129  11.885  36.196  1.00  0.00     0.007 A 
ENDBRANCH  22  23
ENDBRANCH   5  22
TORSDOF 8
ENDMDL
MODEL 6
REMARK VINA RESULT:      -7.5     23.704     25.733
REMARK  8 active torsions:
REMARK  status: ('A' for Active; 'I' for Inactive)
REMARK    1  A    between atoms: C6_11  and  O2_2 
REMARK    2  A    between atoms: C7_12  and  O2_2 
REMARK    3  A    between atoms: C15_20  and  O3_3 
REMARK    4  A    between atoms: C22_27  and  O3_3 
REMARK    5  A    between atoms: C3_8  and  C4_9 
REMARK    6  A    between atoms: C11_16  and  C4_9 
REMARK    7  A    between atoms: C13_18  and  C6_11 
REMARK    8  A    between atoms: C15_20  and  C6_11 
ROOT
HETATM    1  O1  UNK     1      18.146  10.129  33.815  1.00  0.00    -0.274 OA
HETATM    2  O4  UNK     1      18.051  12.281  34.533  1.00  0.00    -0.259 OA
HETATM    3  C1  UNK     1      15.332  10.165  33.515  1.00  0.00    -0.036 A 
HETATM    4  C2  UNK     1      16.109   8.950  33.200  1.00  0.00     0.005 A 
HETATM    5  C3  UNK     1      15.970  11.259  33.983  1.00  0.00     0.029 A 
HETATM    6  C5  UNK     1      17.492   8.975  33.361  1.00  0.00     0.092 A 
HETATM    7  C7  UNK     1      17.717   6.691  32.639  1.00  0.00     0.072 A 
HETATM    8  C8  UNK     1      15.540   7.746  32.754  1.00  0.00     0.017 A 
HETATM    9  C9  UNK     1      18.302   7.869  33.087  1.00  0.00     0.075 A 
HETATM   10  C10 UNK     1      17.453  11.283  34.140  1.00  0.00     0.295 A 
HETATM   11  C12 UNK     1      13.844  10.106  33.269  1.00  0.00     0.050 C 
HETATM   12  C14 UNK     1      16.336   6.629  32.474  1.00  0.00     0.038 A 
ENDROOT
BRANCH   7  13
HETATM   13  O2  UNK     1      18.487   5.604  32.367  1.00  0.00    -0.336 OA
BRANCH  13  14
HETATM   14  C6  UNK     1      18.370   5.034  31.064  1.00  0.00     0.228 C 
BRANCH  14  15
HETATM   15  C13 UNK     1      19.557   5.484  30.213  1.00  0.00     0.038 C 
HETATM   16  C16 UNK     1      20.779   5.816  31.057  1.00  0.00     0.008 C 
ENDBRANCH  14  15
BRANCH  14  17
HETATM   17  C15 UNK     1      18.346   3.525  31.211  1.00  0.00     0.288 C 
HETATM   18  O5  UNK     1      17.783   2.925  32.118  1.00  0.00    -0.262 OA
BRANCH  17  19
HETATM   19  O3  UNK     1      19.065   2.952  30.201  1.00  0.00    -0.320 OA
BRANCH  19  20
HETATM   20  C22 UNK     1      18.677   1.621  29.846  1.00  0.00     0.174 C 
HETATM   21  C23 UNK     1      17.881   1.668  28.558  1.00  0.00     0.034 C 
ENDBRANCH  19  20
ENDBRANCH  17  19
ENDBRANCH  14  17
ENDBRANCH  13  14
ENDBRANCH   7  13
BRANCH   5  22
HETATM   22  C4  UNK     1      15.293  12.539  34.402  1.00  0.00     0.084 C 
BRANCH  22  23
HETATM   23  C11 UNK     1      14.979  12.561  35.868  1.00  0.00    -0.054 A 
HETATM   24  C17 UNK     1      14.011  11.702  36.378  1.00  0.00     0.007 A 
HETATM   25  C19 UNK     1      13.719  11.722  37.742  1.00  0.00     0.001 A 
HETATM   26  C21 UNK     1      14.397  12.600  38.587  1.00  0.00     0.000 A 
HETATM   27  C20 UNK     1      15.366  13.459  38.069  1.00  0.00     0.001 A 
HETATM   28  C18 UNK     1      15.658  13.439  36.706  1.00  0.00     0.007 A 
ENDBRANCH  22  23
ENDBRANCH   5  22
TORSDOF 8
ENDMDL
MODEL 7
REMARK VINA RESULT:      -7.5      2.884      8.943
REMARK  8 active torsions:
REMARK  status: ('A' for Active; 'I' for Inactive)
REMARK    1  A    between atoms: C6_11  and  O2_2 
REMARK    2  A    between atoms: C7_12  and  O2_2 
REMARK    3  A    between atoms: C15_20  and  O3_3 
REMARK    4  A    between atoms: C22_27  and  O3_3 
REMARK    5  A    between atoms: C3_8  and  C4_9 
REMARK    6  A    between atoms: C11_16  and  C4_9 
REMARK    7  A    between atoms: C13_18  and  C6_11 
REMARK    8  A    between atoms: C15_20  and  C6_11 
ROOT
HETATM    1  O1  UNK     1      12.592   9.201   9.941  1.00  0.00    -0.274 OA
HETATM    2  O4  UNK     1      13.535  11.060  10.839  1.00  0.00    -0.259 OA
HETATM    3  C1  UNK     1      15.148   7.986   9.916  1.00  0.00    -0.036 A 
HETATM    4  C2  UNK     1      13.964   7.263   9.411  1.00  0.00     0.005 A 
HETATM    5  C3  UNK     1      15.013   9.253  10.362  1.00  0.00     0.029 A 
HETATM    6  C5  UNK     1      12.725   7.896   9.442  1.00  0.00     0.092 A 
HETATM    7  C7  UNK     1      11.617   5.994   8.471  1.00  0.00     0.072 A 
HETATM    8  C8  UNK     1      14.004   5.963   8.882  1.00  0.00     0.017 A 
HETATM    9  C9  UNK     1      11.555   7.285   8.984  1.00  0.00     0.075 A 
HETATM   10  C10 UNK     1      13.679   9.921  10.405  1.00  0.00     0.295 A 
HETATM   11  C12 UNK     1      16.458   7.236   9.914  1.00  0.00     0.050 C 
HETATM   12  C14 UNK     1      12.842   5.334   8.419  1.00  0.00     0.038 A 
ENDROOT
BRANCH   7  13
HETATM   13  O2  UNK     1      10.491   5.381   8.020  1.00  0.00    -0.336 OA
BRANCH  13  14
HETATM   14  C6  UNK     1       9.292   6.155   8.001  1.00  0.00     0.228 C 
BRANCH  14  15
HETATM   15  C13 UNK     1       8.848   6.353   6.552  1.00  0.00     0.038 C 
HETATM   16  C16 UNK     1       9.987   6.143   5.565  1.00  0.00     0.008 C 
ENDBRANCH  14  15
BRANCH  14  17
HETATM   17  C15 UNK     1       8.239   5.409   8.798  1.00  0.00     0.288 C 
HETATM   18  O5  UNK     1       7.430   4.626   8.316  1.00  0.00    -0.262 OA
BRANCH  17  19
HETATM   19  O3  UNK     1       8.319   5.766  10.113  1.00  0.00    -0.320 OA
BRANCH  19  20
HETATM   20  C22 UNK     1       7.088   6.180  10.716  1.00  0.00     0.174 C 
HETATM   21  C23 UNK     1       7.069   7.691  10.808  1.00  0.00     0.034 C 
ENDBRANCH  19  20
ENDBRANCH  17  19
ENDBRANCH  14  17
ENDBRANCH  13  14
ENDBRANCH   7  13
BRANCH   5  22
HETATM   22  C4  UNK     1      16.145  10.124  10.843  1.00  0.00     0.084 C 
BRANCH  22  23
HETATM   23  C11 UNK     1      16.878  10.778   9.710  1.00  0.00    -0.054 A 
HETATM   24  C17 UNK     1      16.184  11.146   8.562  1.00  0.00     0.007 A 
HETATM   25  C19 UNK     1      16.866  11.753   7.507  1.00  0.00     0.001 A 
HETATM   26  C21 UNK     1      18.237  11.989   7.607  1.00  0.00     0.000 A 
HETATM   27  C20 UNK     1      18.926  11.617   8.761  1.00  0.00     0.001 A 
HETATM   28  C18 UNK     1      18.245  11.010   9.815  1.00  0.00     0.007 A 
ENDBRANCH  22  23
ENDBRANCH   5  22
TORSDOF 8
ENDMDL
MODEL 8
REMARK VINA RESULT:      -7.5     31.258     33.378
REMARK  8 active torsions:
REMARK  status: ('A' for Active; 'I' for Inactive)
REMARK    1  A    between atoms: C6_11  and  O2_2 
REMARK    2  A    between atoms: C7_12  and  O2_2 
REMARK    3  A    between atoms: C15_20  and  O3_3 
REMARK    4  A    between atoms: C22_27  and  O3_3 
REMARK    5  A    between atoms: C3_8  and  C4_9 
REMARK    6  A    between atoms: C11_16  and  C4_9 
REMARK    7  A    between atoms: C13_18  and  C6_11 
REMARK    8  A    between atoms: C15_20  and  C6_11 
ROOT
HETATM    1  O1  UNK     1      29.237  -5.626  33.049  1.00  0.00    -0.274 OA
HETATM    2  O4  UNK     1      28.887  -5.078  30.874  1.00  0.00    -0.259 OA
HETATM    3  C1  UNK     1      31.201  -7.482  32.206  1.00  0.00    -0.036 A 
HETATM    4  C2  UNK     1      30.883  -7.317  33.639  1.00  0.00     0.005 A 
HETATM    5  C3  UNK     1      30.521  -6.763  31.289  1.00  0.00     0.029 A 
HETATM    6  C5  UNK     1      29.911  -6.392  34.011  1.00  0.00     0.092 A 
HETATM    7  C7  UNK     1      30.175  -6.906  36.347  1.00  0.00     0.072 A 
HETATM    8  C8  UNK     1      31.496  -8.049  34.669  1.00  0.00     0.017 A 
HETATM    9  C9  UNK     1      29.550  -6.175  35.343  1.00  0.00     0.075 A 
HETATM   10  C10 UNK     1      29.490  -5.764  31.695  1.00  0.00     0.295 A 
HETATM   11  C12 UNK     1      32.301  -8.455  31.859  1.00  0.00     0.050 C 
HETATM   12  C14 UNK     1      31.147  -7.844  36.010  1.00  0.00     0.038 A 
ENDROOT
BRANCH   7  13
HETATM   13  O2  UNK     1      29.839  -6.709  37.649  1.00  0.00    -0.336 OA
BRANCH  13  14
HETATM   14  C6  UNK     1      29.067  -5.548  37.953  1.00  0.00     0.228 C 
BRANCH  14  15
HETATM   15  C13 UNK     1      27.812  -5.968  38.717  1.00  0.00     0.038 C 
HETATM   16  C16 UNK     1      27.989  -7.302  39.429  1.00  0.00     0.008 C 
ENDBRANCH  14  15
BRANCH  14  17
HETATM   17  C15 UNK     1      29.927  -4.618  38.786  1.00  0.00     0.288 C 
HETATM   18  O5  UNK     1      29.546  -4.040  39.796  1.00  0.00    -0.262 OA
BRANCH  17  19
HETATM   19  O3  UNK     1      31.166  -4.509  38.224  1.00  0.00    -0.320 OA
BRANCH  19  20
HETATM   20  C22 UNK     1      31.288  -3.532  37.185  1.00  0.00     0.174 C 
HETATM   21  C23 UNK     1      32.422  -3.931  36.264  1.00  0.00     0.034 C 
ENDBRANCH  19  20
ENDBRANCH  17  19
ENDBRANCH  14  17
ENDBRANCH  13  14
ENDBRANCH   7  13
BRANCH   5  22
HETATM   22  C4  UNK     1      30.699  -6.879  29.796  1.00  0.00     0.084 C 
BRANCH  22  23
HETATM   23  C11 UNK     1      29.969  -8.059  29.229  1.00  0.00    -0.054 A 
HETATM   24  C17 UNK     1      30.615  -8.903  28.332  1.00  0.00     0.007 A 
HETATM   25  C19 UNK     1      29.936 -10.001  27.804  1.00  0.00     0.001 A 
HETATM   26  C21 UNK     1      28.615 -10.248  28.176  1.00  0.00     0.000 A 
HETATM   27  C20 UNK     1      27.972  -9.398  29.075  1.00  0.00     0.001 A 
HETATM   28  C18 UNK     1      28.652  -8.300  29.603  1.00  0.00     0.007 A 
ENDBRANCH  22  23
ENDBRANCH   5  22
TORSDOF 8
ENDMDL
MODEL 9
REMARK VINA RESULT:      -7.5     31.427     33.576
REMARK  8 active torsions:
REMARK  status: ('A' for Active; 'I' for Inactive)
REMARK    1  A    between atoms: C6_11  and  O2_2 
REMARK    2  A    between atoms: C7_12  and  O2_2 
REMARK    3  A    between atoms: C15_20  and  O3_3 
REMARK    4  A    between atoms: C22_27  and  O3_3 
REMARK    5  A    between atoms: C3_8  and  C4_9 
REMARK    6  A    between atoms: C11_16  and  C4_9 
REMARK    7  A    between atoms: C13_18  and  C6_11 
REMARK    8  A    between atoms: C15_20  and  C6_11 
ROOT
HETATM    1  O1  UNK     1      28.161  -6.445  33.548  1.00  0.00    -0.274 OA
HETATM    2  O4  UNK     1      27.272  -6.191  31.475  1.00  0.00    -0.259 OA
HETATM    3  C1  UNK     1      28.912  -9.080  32.841  1.00  0.00    -0.036 A 
HETATM    4  C2  UNK     1      29.206  -8.547  34.186  1.00  0.00     0.005 A 
HETATM    5  C3  UNK     1      28.246  -8.312  31.953  1.00  0.00     0.029 A 
HETATM    6  C5  UNK     1      28.821  -7.244  34.493  1.00  0.00     0.092 A 
HETATM    7  C7  UNK     1      29.705  -7.403  36.725  1.00  0.00     0.072 A 
HETATM    8  C8  UNK     1      29.849  -9.277  35.198  1.00  0.00     0.017 A 
HETATM    9  C9  UNK     1      29.060  -6.662  35.740  1.00  0.00     0.075 A 
HETATM   10  C10 UNK     1      27.847  -6.913  32.284  1.00  0.00     0.295 A 
HETATM   11  C12 UNK     1      29.401 -10.476  32.539  1.00  0.00     0.050 C 
HETATM   12  C14 UNK     1      30.098  -8.710  36.454  1.00  0.00     0.038 A 
ENDROOT
BRANCH   7  13
HETATM   13  O2  UNK     1      29.947  -6.855  37.946  1.00  0.00    -0.336 OA
BRANCH  13  14
HETATM   14  C6  UNK     1      29.040  -5.852  38.400  1.00  0.00     0.228 C 
BRANCH  14  15
HETATM   15  C13 UNK     1      28.119  -6.454  39.460  1.00  0.00     0.038 C 
HETATM   16  C16 UNK     1      26.870  -7.078  38.854  1.00  0.00     0.008 C 
ENDBRANCH  14  15
BRANCH  14  17
HETATM   17  C15 UNK     1      29.854  -4.707  38.971  1.00  0.00     0.288 C 
HETATM   18  O5  UNK     1      29.466  -3.953  39.854  1.00  0.00    -0.262 OA
BRANCH  17  19
HETATM   19  O3  UNK     1      31.060  -4.636  38.334  1.00  0.00    -0.320 OA
BRANCH  19  20
HETATM   20  C22 UNK     1      31.111  -3.757  37.206  1.00  0.00     0.174 C 
HETATM   21  C23 UNK     1      32.154  -4.263  36.233  1.00  0.00     0.034 C 
ENDBRANCH  19  20
ENDBRANCH  17  19
ENDBRANCH  14  17
ENDBRANCH  13  14
ENDBRANCH   7  13
BRANCH   5  22
HETATM   22  C4  UNK     1      27.827  -8.754  30.574  1.00  0.00     0.084 C 
BRANCH  22  23
HETATM   23  C11 UNK     1      28.985  -8.819  29.624  1.00  0.00    -0.054 A 
HETATM   24  C17 UNK     1      29.869  -7.749  29.540  1.00  0.00     0.007 A 
HETATM   25  C19 UNK     1      30.947  -7.809  28.657  1.00  0.00     0.001 A 
HETATM   26  C21 UNK     1      31.134  -8.940  27.863  1.00  0.00     0.000 A 
HETATM   27  C20 UNK     1      30.244 -10.010  27.951  1.00  0.00     0.001 A 
HETATM   28  C18 UNK     1      29.167  -9.950  28.835  1.00  0.00     0.007 A 
ENDBRANCH  22  23
ENDBRANCH   5  22
TORSDOF 8
ENDMDL
MODEL 10
REMARK VINA RESULT:      -7.4     33.442     35.956
REMARK  8 active torsions:
REMARK  status: ('A' for Active; 'I' for Inactive)
REMARK    1  A    between atoms: C6_11  and  O2_2 
REMARK    2  A    between atoms: C7_12  and  O2_2 
REMARK    3  A    between atoms: C15_20  and  O3_3 
REMARK    4  A    between atoms: C22_27  and  O3_3 
REMARK    5  A    between atoms: C3_8  and  C4_9 
REMARK    6  A    between atoms: C11_16  and  C4_9 
REMARK    7  A    between atoms: C13_18  and  C6_11 
REMARK    8  A    between atoms: C15_20  and  C6_11 
ROOT
HETATM    1  O1  UNK     1      27.704  -4.907  38.909  1.00  0.00    -0.274 OA
HETATM    2  O4  UNK     1      29.682  -3.795  38.984  1.00  0.00    -0.259 OA
HETATM    3  C1  UNK     1      29.134  -7.300  38.418  1.00  0.00    -0.036 A 
HETATM    4  C2  UNK     1      27.659  -7.303  38.493  1.00  0.00     0.005 A 
HETATM    5  C3  UNK     1      29.803  -6.135  38.551  1.00  0.00     0.029 A 
HETATM    6  C5  UNK     1      26.995  -6.104  38.738  1.00  0.00     0.092 A 
HETATM    7  C7  UNK     1      24.838  -7.168  38.657  1.00  0.00     0.072 A 
HETATM    8  C8  UNK     1      26.866  -8.449  38.321  1.00  0.00     0.017 A 
HETATM    9  C9  UNK     1      25.603  -6.019  38.824  1.00  0.00     0.075 A 
HETATM   10  C10 UNK     1      29.085  -4.856  38.826  1.00  0.00     0.295 A 
HETATM   11  C12 UNK     1      29.809  -8.633  38.208  1.00  0.00     0.050 C 
HETATM   12  C14 UNK     1      25.470  -8.383  38.404  1.00  0.00     0.038 A 
ENDROOT
BRANCH   7  13
HETATM   13  O2  UNK     1      23.482  -7.107  38.736  1.00  0.00    -0.336 OA
BRANCH  13  14
HETATM   14  C6  UNK     1      22.773  -8.345  38.705  1.00  0.00     0.228 C 
BRANCH  14  15
HETATM   15  C13 UNK     1      21.676  -8.319  39.770  1.00  0.00     0.038 C 
HETATM   16  C16 UNK     1      20.577  -7.319  39.442  1.00  0.00     0.008 C 
ENDBRANCH  14  15
BRANCH  14  17
HETATM   17  C15 UNK     1      22.183  -8.512  37.318  1.00  0.00     0.288 C 
HETATM   18  O5  UNK     1      22.068  -7.610  36.499  1.00  0.00    -0.262 OA
BRANCH  17  19
HETATM   19  O3  UNK     1      21.781  -9.806  37.142  1.00  0.00    -0.320 OA
BRANCH  19  20
HETATM   20  C22 UNK     1      20.440  -9.977  36.672  1.00  0.00     0.174 C 
HETATM   21  C23 UNK     1      19.656 -10.770  37.696  1.00  0.00     0.034 C 
ENDBRANCH  19  20
ENDBRANCH  17  19
ENDBRANCH  14  17
ENDBRANCH  13  14
ENDBRANCH   7  13
BRANCH   5  22
HETATM   22  C4  UNK     1      31.298  -5.980  38.433  1.00  0.00     0.084 C 
BRANCH  22  23
HETATM   23  C11 UNK     1      31.709  -5.469  37.084  1.00  0.00    -0.054 A 
HETATM   24  C17 UNK     1      32.407  -4.270  36.984  1.00  0.00     0.007 A 
HETATM   25  C19 UNK     1      32.789  -3.795  35.730  1.00  0.00     0.001 A 
HETATM   26  C21 UNK     1      32.472  -4.522  34.583  1.00  0.00     0.000 A 
HETATM   27  C20 UNK     1      31.772  -5.723  34.690  1.00  0.00     0.001 A 
HETATM   28  C18 UNK     1      31.389  -6.198  35.944  1.00  0.00     0.007 A 
ENDBRANCH  22  23
ENDBRANCH   5  22
TORSDOF 8
ENDMDL
