MODEL 1
REMARK VINA RESULT:      -8.8      0.000      0.000
REMARK  2 active torsions:
REMARK  status: ('A' for Active; 'I' for Inactive)
REMARK    1  A    between atoms: C8_15  and  N1_6 
REMARK    2  A    between atoms: C1_8  and  C4_11 
ROOT
HETATM    1  O1  UNK     1      32.167  -4.474  36.098  1.00  0.00    -0.291 OA
HETATM    2  O2  UNK     1      33.540  -8.423  36.270  1.00  0.00    -0.274 OA
HETATM    3  O3  UNK     1      32.154  -8.831  38.034  1.00  0.00    -0.259 OA
HETATM    4  N2  UNK     1      29.229  -3.642  39.823  1.00  0.00    -0.191 NA
HETATM    5  C1  UNK     1      30.963  -6.210  38.042  1.00  0.00     0.112 C 
HETATM    6  C2  UNK     1      32.057  -6.652  37.087  1.00  0.00     0.066 A 
HETATM    7  C3  UNK     1      32.572  -5.794  36.194  1.00  0.00     0.104 A 
HETATM    8  C5  UNK     1      30.737  -4.701  38.001  1.00  0.00     0.086 C 
HETATM    9  C6  UNK     1      33.604  -6.215  35.251  1.00  0.00     0.033 A 
HETATM   10  C7  UNK     1      32.567  -8.044  37.189  1.00  0.00     0.298 A 
HETATM   11  C8  UNK     1      31.320  -3.926  37.059  1.00  0.00     0.159 C 
HETATM   12  C9  UNK     1      34.058  -7.529  35.314  1.00  0.00     0.092 A 
HETATM   13  C12 UNK     1      34.161  -5.370  34.283  1.00  0.00     0.017 A 
HETATM   14  C13 UNK     1      35.037  -8.018  34.450  1.00  0.00     0.038 A 
HETATM   15  C16 UNK     1      35.145  -5.845  33.409  1.00  0.00     0.001 A 
HETATM   16  C17 UNK     1      29.904  -4.117  39.008  1.00  0.00     0.100 C 
HETATM   17  C18 UNK     1      35.581  -7.167  33.493  1.00  0.00     0.003 A 
ENDROOT
BRANCH   5  18
HETATM   18  C4  UNK     1      29.680  -6.930  37.740  1.00  0.00    -0.004 A 
HETATM   19  C10 UNK     1      29.122  -7.768  38.698  1.00  0.00     0.030 A 
HETATM   20  C14 UNK     1      27.932  -8.440  38.418  1.00  0.00     0.011 A 
HETATM   21 Br1  UNK     1      27.164  -9.581  39.715  1.00  0.00    -0.051 Br
HETATM   22  C19 UNK     1      27.308  -8.268  37.182  1.00  0.00     0.022 A 
HETATM   23  C15 UNK     1      27.874  -7.425  36.226  1.00  0.00     0.044 A 
HETATM   24  C11 UNK     1      29.064  -6.753  36.506  1.00  0.00     0.123 A 
HETATM   25  F1  UNK     1      29.601  -5.945  35.581  1.00  0.00    -0.206 F 
ENDBRANCH   5  18
BRANCH  11  26
HETATM   26  N1  UNK     1      31.161  -2.572  36.944  1.00  0.00    -0.379 N 
HETATM   27  H8  UNK     1      31.971  -1.974  37.052  1.00  0.00     0.158 HD
HETATM   28  H9  UNK     1      30.254  -2.169  36.750  1.00  0.00     0.158 HD
ENDBRANCH  11  26
TORSDOF 2
ENDMDL
MODEL 2
REMARK VINA RESULT:      -8.3      2.830      5.997
REMARK  2 active torsions:
REMARK  status: ('A' for Active; 'I' for Inactive)
REMARK    1  A    between atoms: C8_15  and  N1_6 
REMARK    2  A    between atoms: C1_8  and  C4_11 
ROOT
HETATM    1  O1  UNK     1      29.243  -5.870  38.865  1.00  0.00    -0.291 OA
HETATM    2  O2  UNK     1      28.930  -9.090  36.213  1.00  0.00    -0.274 OA
HETATM    3  O3  UNK     1      30.263  -7.996  34.721  1.00  0.00    -0.259 OA
HETATM    4  N2  UNK     1      31.631  -2.271  36.731  1.00  0.00    -0.191 NA
HETATM    5  C1  UNK     1      30.733  -5.717  36.416  1.00  0.00     0.112 C 
HETATM    6  C2  UNK     1      29.851  -6.894  36.788  1.00  0.00     0.066 A 
HETATM    7  C3  UNK     1      29.188  -6.910  37.954  1.00  0.00     0.104 A 
HETATM    8  C5  UNK     1      30.563  -4.543  37.376  1.00  0.00     0.086 C 
HETATM    9  C6  UNK     1      28.360  -8.050  38.337  1.00  0.00     0.033 A 
HETATM   10  C7  UNK     1      29.713  -8.012  35.818  1.00  0.00     0.298 A 
HETATM   11  C8  UNK     1      29.859  -4.667  38.524  1.00  0.00     0.159 C 
HETATM   12  C9  UNK     1      28.259  -9.118  37.450  1.00  0.00     0.092 A 
HETATM   13  C12 UNK     1      27.665  -8.131  39.549  1.00  0.00     0.017 A 
HETATM   14  C13 UNK     1      27.494 -10.249  37.735  1.00  0.00     0.038 A 
HETATM   15  C16 UNK     1      26.893  -9.258  39.850  1.00  0.00     0.001 A 
HETATM   16  C17 UNK     1      31.153  -3.289  37.020  1.00  0.00     0.100 C 
HETATM   17  C18 UNK     1      26.809 -10.315  38.944  1.00  0.00     0.003 A 
ENDROOT
BRANCH   5  18
HETATM   18  C4  UNK     1      32.175  -6.135  36.365  1.00  0.00    -0.004 A 
HETATM   19  C10 UNK     1      32.890  -5.989  35.182  1.00  0.00     0.030 A 
HETATM   20  C14 UNK     1      34.228  -6.379  35.132  1.00  0.00     0.011 A 
HETATM   21 Br1  UNK     1      35.210  -6.183  33.529  1.00  0.00    -0.051 Br
HETATM   22  C19 UNK     1      34.841  -6.912  36.266  1.00  0.00     0.022 A 
HETATM   23  C15 UNK     1      34.117  -7.056  37.449  1.00  0.00     0.044 A 
HETATM   24  C11 UNK     1      32.780  -6.665  37.499  1.00  0.00     0.123 A 
HETATM   25  F1  UNK     1      32.091  -6.806  38.640  1.00  0.00    -0.206 F 
ENDBRANCH   5  18
BRANCH  11  26
HETATM   26  N1  UNK     1      29.669  -3.672  39.444  1.00  0.00    -0.379 N 
HETATM   27  H8  UNK     1      29.968  -3.826  40.398  1.00  0.00     0.158 HD
HETATM   28  H9  UNK     1      29.241  -2.794  39.180  1.00  0.00     0.158 HD
ENDBRANCH  11  26
TORSDOF 2
ENDMDL
MODEL 3
REMARK VINA RESULT:      -8.2      3.063      6.037
REMARK  2 active torsions:
REMARK  status: ('A' for Active; 'I' for Inactive)
REMARK    1  A    between atoms: C8_15  and  N1_6 
REMARK    2  A    between atoms: C1_8  and  C4_11 
ROOT
HETATM    1  O1  UNK     1      30.723  -6.735  38.046  1.00  0.00    -0.291 OA
HETATM    2  O2  UNK     1      27.205  -7.481  35.907  1.00  0.00    -0.274 OA
HETATM    3  O3  UNK     1      28.055  -6.362  34.112  1.00  0.00    -0.259 OA
HETATM    4  N2  UNK     1      33.574  -3.834  35.465  1.00  0.00    -0.191 NA
HETATM    5  C1  UNK     1      30.611  -5.828  35.324  1.00  0.00     0.112 C 
HETATM    6  C2  UNK     1      29.471  -6.555  36.012  1.00  0.00     0.066 A 
HETATM    7  C3  UNK     1      29.590  -6.963  37.285  1.00  0.00     0.104 A 
HETATM    8  C5  UNK     1      31.721  -5.442  36.298  1.00  0.00     0.086 C 
HETATM    9  C6  UNK     1      28.512  -7.690  37.949  1.00  0.00     0.033 A 
HETATM   10  C7  UNK     1      28.211  -6.775  35.256  1.00  0.00     0.298 A 
HETATM   11  C8  UNK     1      31.735  -5.902  37.569  1.00  0.00     0.159 C 
HETATM   12  C9  UNK     1      27.343  -7.934  37.233  1.00  0.00     0.092 A 
HETATM   13  C12 UNK     1      28.589  -8.158  39.266  1.00  0.00     0.017 A 
HETATM   14  C13 UNK     1      26.265  -8.624  37.786  1.00  0.00     0.038 A 
HETATM   15  C16 UNK     1      27.516  -8.852  39.835  1.00  0.00     0.001 A 
HETATM   16  C17 UNK     1      32.744  -4.554  35.838  1.00  0.00     0.100 C 
HETATM   17  C18 UNK     1      26.356  -9.085  39.095  1.00  0.00     0.003 A 
ENDROOT
BRANCH   5  18
HETATM   18  C4  UNK     1      31.173  -6.665  34.211  1.00  0.00    -0.004 A 
HETATM   19  C10 UNK     1      31.677  -7.930  34.491  1.00  0.00     0.030 A 
HETATM   20  C14 UNK     1      32.201  -8.708  33.458  1.00  0.00     0.011 A 
HETATM   21 Br1  UNK     1      32.888 -10.429  33.828  1.00  0.00    -0.051 Br
HETATM   22  C19 UNK     1      32.216  -8.216  32.153  1.00  0.00     0.022 A 
HETATM   23  C15 UNK     1      31.708  -6.946  31.880  1.00  0.00     0.044 A 
HETATM   24  C11 UNK     1      31.184  -6.168  32.912  1.00  0.00     0.123 A 
HETATM   25  F1  UNK     1      30.698  -4.949  32.641  1.00  0.00    -0.206 F 
ENDBRANCH   5  18
BRANCH  11  26
HETATM   26  N1  UNK     1      32.696  -5.617  38.501  1.00  0.00    -0.379 N 
HETATM   27  H8  UNK     1      33.651  -5.898  38.319  1.00  0.00     0.158 HD
HETATM   28  H9  UNK     1      32.462  -5.131  39.357  1.00  0.00     0.158 HD
ENDBRANCH  11  26
TORSDOF 2
ENDMDL
MODEL 4
REMARK VINA RESULT:      -8.2     16.045     17.786
REMARK  2 active torsions:
REMARK  status: ('A' for Active; 'I' for Inactive)
REMARK    1  A    between atoms: C8_15  and  N1_6 
REMARK    2  A    between atoms: C1_8  and  C4_11 
ROOT
HETATM    1  O1  UNK     1      17.546   2.249  32.595  1.00  0.00    -0.291 OA
HETATM    2  O2  UNK     1      19.207   2.557  36.424  1.00  0.00    -0.274 OA
HETATM    3  O3  UNK     1      20.384   4.396  35.769  1.00  0.00    -0.259 OA
HETATM    4  N2  UNK     1      19.597   5.508  29.700  1.00  0.00    -0.191 NA
HETATM    5  C1  UNK     1      19.289   4.473  33.108  1.00  0.00     0.112 C 
HETATM    6  C2  UNK     1      18.946   3.420  34.146  1.00  0.00     0.066 A 
HETATM    7  C3  UNK     1      18.116   2.410  33.846  1.00  0.00     0.104 A 
HETATM    8  C5  UNK     1      18.786   4.096  31.717  1.00  0.00     0.086 C 
HETATM    9  C6  UNK     1      17.755   1.408  34.845  1.00  0.00     0.033 A 
HETATM   10  C7  UNK     1      19.577   3.516  35.488  1.00  0.00     0.298 A 
HETATM   11  C8  UNK     1      17.959   3.044  31.527  1.00  0.00     0.159 C 
HETATM   12  C9  UNK     1      18.312   1.514  36.116  1.00  0.00     0.092 A 
HETATM   13  C12 UNK     1      16.877   0.346  34.595  1.00  0.00     0.017 A 
HETATM   14  C13 UNK     1      18.021   0.605  37.132  1.00  0.00     0.038 A 
HETATM   15  C16 UNK     1      16.575  -0.575  35.604  1.00  0.00     0.001 A 
HETATM   16  C17 UNK     1      19.234   4.876  30.603  1.00  0.00     0.100 C 
HETATM   17  C18 UNK     1      17.145  -0.445  36.870  1.00  0.00     0.003 A 
ENDROOT
BRANCH   5  18
HETATM   18  C4  UNK     1      18.733   5.809  33.511  1.00  0.00    -0.004 A 
HETATM   19  C10 UNK     1      17.360   5.963  33.661  1.00  0.00     0.030 A 
HETATM   20  C14 UNK     1      16.842   7.203  34.034  1.00  0.00     0.011 A 
HETATM   21 Br1  UNK     1      14.976   7.424  34.243  1.00  0.00    -0.051 Br
HETATM   22  C19 UNK     1      17.701   8.280  34.253  1.00  0.00     0.022 A 
HETATM   23  C15 UNK     1      19.077   8.118  34.100  1.00  0.00     0.044 A 
HETATM   24  C11 UNK     1      19.595   6.877  33.729  1.00  0.00     0.123 A 
HETATM   25  F1  UNK     1      20.920   6.729  33.583  1.00  0.00    -0.206 F 
ENDBRANCH   5  18
BRANCH  11  26
HETATM   26  N1  UNK     1      17.452   2.646  30.319  1.00  0.00    -0.379 N 
HETATM   27  H8  UNK     1      16.570   2.151  30.299  1.00  0.00     0.158 HD
HETATM   28  H9  UNK     1      17.945   2.844  29.459  1.00  0.00     0.158 HD
ENDBRANCH  11  26
TORSDOF 2
ENDMDL
MODEL 5
REMARK VINA RESULT:      -8.2      3.694      4.788
REMARK  2 active torsions:
REMARK  status: ('A' for Active; 'I' for Inactive)
REMARK    1  A    between atoms: C8_15  and  N1_6 
REMARK    2  A    between atoms: C1_8  and  C4_11 
ROOT
HETATM    1  O1  UNK     1      30.385  -5.803  33.808  1.00  0.00    -0.291 OA
HETATM    2  O2  UNK     1      28.765  -9.500  32.705  1.00  0.00    -0.274 OA
HETATM    3  O3  UNK     1      29.812 -10.490  34.471  1.00  0.00    -0.259 OA
HETATM    4  N2  UNK     1      33.452  -6.434  37.468  1.00  0.00    -0.191 NA
HETATM    5  C1  UNK     1      30.942  -8.052  35.504  1.00  0.00     0.112 C 
HETATM    6  C2  UNK     1      30.099  -8.140  34.245  1.00  0.00     0.066 A 
HETATM    7  C3  UNK     1      29.866  -7.049  33.500  1.00  0.00     0.104 A 
HETATM    8  C5  UNK     1      31.634  -6.698  35.641  1.00  0.00     0.086 C 
HETATM    9  C6  UNK     1      29.033  -7.115  32.304  1.00  0.00     0.033 A 
HETATM   10  C7  UNK     1      29.566  -9.467  33.840  1.00  0.00     0.298 A 
HETATM   11  C8  UNK     1      31.330  -5.665  34.823  1.00  0.00     0.159 C 
HETATM   12  C9  UNK     1      28.498  -8.348  31.941  1.00  0.00     0.092 A 
HETATM   13  C12 UNK     1      28.738  -6.006  31.502  1.00  0.00     0.017 A 
HETATM   14  C13 UNK     1      27.687  -8.503  30.817  1.00  0.00     0.038 A 
HETATM   15  C16 UNK     1      27.927  -6.144  30.371  1.00  0.00     0.001 A 
HETATM   16  C17 UNK     1      32.638  -6.553  36.650  1.00  0.00     0.100 C 
HETATM   17  C18 UNK     1      27.402  -7.391  30.030  1.00  0.00     0.003 A 
ENDROOT
BRANCH   5  18
HETATM   18  C4  UNK     1      30.103  -8.326  36.719  1.00  0.00    -0.004 A 
HETATM   19  C10 UNK     1      29.042  -7.480  37.025  1.00  0.00     0.030 A 
HETATM   20  C14 UNK     1      28.263  -7.732  38.154  1.00  0.00     0.011 A 
HETATM   21 Br1  UNK     1      26.818  -6.590  38.578  1.00  0.00    -0.051 Br
HETATM   22  C19 UNK     1      28.550  -8.827  38.969  1.00  0.00     0.022 A 
HETATM   23  C15 UNK     1      29.615  -9.671  38.656  1.00  0.00     0.044 A 
HETATM   24  C11 UNK     1      30.394  -9.420  37.526  1.00  0.00     0.123 A 
HETATM   25  F1  UNK     1      31.417 -10.235  37.232  1.00  0.00    -0.206 F 
ENDBRANCH   5  18
BRANCH  11  26
HETATM   26  N1  UNK     1      31.892  -4.419  34.885  1.00  0.00    -0.379 N 
HETATM   27  H8  UNK     1      31.591  -3.715  34.223  1.00  0.00     0.158 HD
HETATM   28  H9  UNK     1      32.592  -4.198  35.580  1.00  0.00     0.158 HD
ENDBRANCH  11  26
TORSDOF 2
ENDMDL
MODEL 6
REMARK VINA RESULT:      -8.1      5.453      7.552
REMARK  2 active torsions:
REMARK  status: ('A' for Active; 'I' for Inactive)
REMARK    1  A    between atoms: C8_15  and  N1_6 
REMARK    2  A    between atoms: C1_8  and  C4_11 
ROOT
HETATM    1  O1  UNK     1      34.455  -8.107  32.937  1.00  0.00    -0.291 OA
HETATM    2  O2  UNK     1      30.601  -6.708  33.773  1.00  0.00    -0.274 OA
HETATM    3  O3  UNK     1      30.235  -6.377  31.547  1.00  0.00    -0.259 OA
HETATM    4  N2  UNK     1      35.370  -7.554  28.240  1.00  0.00    -0.191 NA
HETATM    5  C1  UNK     1      32.786  -7.413  30.707  1.00  0.00     0.112 C 
HETATM    6  C2  UNK     1      32.342  -7.298  32.153  1.00  0.00     0.066 A 
HETATM    7  C3  UNK     1      33.167  -7.649  33.151  1.00  0.00     0.104 A 
HETATM    8  C5  UNK     1      34.276  -7.722  30.584  1.00  0.00     0.086 C 
HETATM    9  C6  UNK     1      32.740  -7.572  34.545  1.00  0.00     0.033 A 
HETATM   10  C7  UNK     1      30.987  -6.758  32.438  1.00  0.00     0.298 A 
HETATM   11  C8  UNK     1      35.019  -8.053  31.664  1.00  0.00     0.159 C 
HETATM   12  C9  UNK     1      31.458  -7.104  34.817  1.00  0.00     0.092 A 
HETATM   13  C12 UNK     1      33.549  -7.945  35.625  1.00  0.00     0.017 A 
HETATM   14  C13 UNK     1      30.966  -7.001  36.118  1.00  0.00     0.038 A 
HETATM   15  C16 UNK     1      33.071  -7.847  36.936  1.00  0.00     0.001 A 
HETATM   16  C17 UNK     1      34.879  -7.629  29.289  1.00  0.00     0.100 C 
HETATM   17  C18 UNK     1      31.781  -7.377  37.181  1.00  0.00     0.003 A 
ENDROOT
BRANCH   5  18
HETATM   18  C4  UNK     1      31.983  -8.461  29.991  1.00  0.00    -0.004 A 
HETATM   19  C10 UNK     1      31.944  -9.757  30.494  1.00  0.00     0.030 A 
HETATM   20  C14 UNK     1      31.200 -10.732  29.830  1.00  0.00     0.011 A 
HETATM   21 Br1  UNK     1      31.139 -12.496  30.506  1.00  0.00    -0.051 Br
HETATM   22  C19 UNK     1      30.501 -10.405  28.668  1.00  0.00     0.022 A 
HETATM   23  C15 UNK     1      30.545  -9.103  28.170  1.00  0.00     0.044 A 
HETATM   24  C11 UNK     1      31.288  -8.128  28.834  1.00  0.00     0.123 A 
HETATM   25  F1  UNK     1      31.325  -6.879  28.349  1.00  0.00    -0.206 F 
ENDBRANCH   5  18
BRANCH  11  26
HETATM   26  N1  UNK     1      36.353  -8.356  31.641  1.00  0.00    -0.379 N 
HETATM   27  H8  UNK     1      36.704  -8.955  30.905  1.00  0.00     0.158 HD
HETATM   28  H9  UNK     1      36.982  -7.988  32.341  1.00  0.00     0.158 HD
ENDBRANCH  11  26
TORSDOF 2
ENDMDL
MODEL 7
REMARK VINA RESULT:      -8.0      4.047      6.455
REMARK  2 active torsions:
REMARK  status: ('A' for Active; 'I' for Inactive)
REMARK    1  A    between atoms: C8_15  and  N1_6 
REMARK    2  A    between atoms: C1_8  and  C4_11 
ROOT
HETATM    1  O1  UNK     1      30.973  -8.568  36.436  1.00  0.00    -0.291 OA
HETATM    2  O2  UNK     1      31.449  -4.431  36.032  1.00  0.00    -0.274 OA
HETATM    3  O3  UNK     1      32.801  -4.760  34.226  1.00  0.00    -0.259 OA
HETATM    4  N2  UNK     1      33.841 -10.820  33.289  1.00  0.00    -0.191 NA
HETATM    5  C1  UNK     1      32.532  -7.626  34.217  1.00  0.00     0.112 C 
HETATM    6  C2  UNK     1      31.882  -6.707  35.234  1.00  0.00     0.066 A 
HETATM    7  C3  UNK     1      31.155  -7.210  36.244  1.00  0.00     0.104 A 
HETATM    8  C5  UNK     1      32.450  -9.093  34.630  1.00  0.00     0.086 C 
HETATM    9  C6  UNK     1      30.500  -6.335  37.212  1.00  0.00     0.033 A 
HETATM   10  C7  UNK     1      32.095  -5.242  35.105  1.00  0.00     0.298 A 
HETATM   11  C8  UNK     1      31.694  -9.489  35.679  1.00  0.00     0.159 C 
HETATM   12  C9  UNK     1      30.664  -4.960  37.073  1.00  0.00     0.092 A 
HETATM   13  C12 UNK     1      29.713  -6.803  38.271  1.00  0.00     0.017 A 
HETATM   14  C13 UNK     1      30.071  -4.050  37.949  1.00  0.00     0.038 A 
HETATM   15  C16 UNK     1      29.112  -5.904  39.158  1.00  0.00     0.001 A 
HETATM   16  C17 UNK     1      33.219 -10.046  33.889  1.00  0.00     0.100 C 
HETATM   17  C18 UNK     1      29.290  -4.530  38.996  1.00  0.00     0.003 A 
ENDROOT
BRANCH   5  18
HETATM   18  C4  UNK     1      31.908  -7.437  32.864  1.00  0.00    -0.004 A 
HETATM   19  C10 UNK     1      30.524  -7.394  32.747  1.00  0.00     0.030 A 
HETATM   20  C14 UNK     1      29.943  -7.220  31.490  1.00  0.00     0.011 A 
HETATM   21 Br1  UNK     1      28.062  -7.158  31.320  1.00  0.00    -0.051 Br
HETATM   22  C19 UNK     1      30.751  -7.092  30.360  1.00  0.00     0.022 A 
HETATM   23  C15 UNK     1      32.139  -7.137  30.486  1.00  0.00     0.044 A 
HETATM   24  C11 UNK     1      32.720  -7.309  31.742  1.00  0.00     0.123 A 
HETATM   25  F1  UNK     1      34.055  -7.352  31.854  1.00  0.00    -0.206 F 
ENDBRANCH   5  18
BRANCH  11  26
HETATM   26  N1  UNK     1      31.555 -10.782  36.107  1.00  0.00    -0.379 N 
HETATM   27  H8  UNK     1      32.359 -11.396  36.075  1.00  0.00     0.158 HD
HETATM   28  H9  UNK     1      30.668 -11.122  36.453  1.00  0.00     0.158 HD
ENDBRANCH  11  26
TORSDOF 2
ENDMDL
MODEL 8
REMARK VINA RESULT:      -8.0      1.958      2.284
REMARK  2 active torsions:
REMARK  status: ('A' for Active; 'I' for Inactive)
REMARK    1  A    between atoms: C8_15  and  N1_6 
REMARK    2  A    between atoms: C1_8  and  C4_11 
ROOT
HETATM    1  O1  UNK     1      33.059  -4.750  35.396  1.00  0.00    -0.291 OA
HETATM    2  O2  UNK     1      33.704  -8.866  35.015  1.00  0.00    -0.274 OA
HETATM    3  O3  UNK     1      32.081  -9.267  36.565  1.00  0.00    -0.259 OA
HETATM    4  N2  UNK     1      29.909  -3.950  38.952  1.00  0.00    -0.191 NA
HETATM    5  C1  UNK     1      31.364  -6.500  36.914  1.00  0.00     0.112 C 
HETATM    6  C2  UNK     1      32.466  -6.991  35.993  1.00  0.00     0.066 A 
HETATM    7  C3  UNK     1      33.217  -6.121  35.302  1.00  0.00     0.104 A 
HETATM    8  C5  UNK     1      31.407  -4.988  37.109  1.00  0.00     0.086 C 
HETATM    9  C6  UNK     1      34.260  -6.582  34.390  1.00  0.00     0.033 A 
HETATM   10  C7  UNK     1      32.714  -8.454  35.901  1.00  0.00     0.298 A 
HETATM   11  C8  UNK     1      32.217  -4.203  36.362  1.00  0.00     0.159 C 
HETATM   12  C9  UNK     1      34.471  -7.952  34.269  1.00  0.00     0.092 A 
HETATM   13  C12 UNK     1      35.059  -5.721  33.627  1.00  0.00     0.017 A 
HETATM   14  C13 UNK     1      35.442  -8.481  33.419  1.00  0.00     0.038 A 
HETATM   15  C16 UNK     1      36.038  -6.235  32.771  1.00  0.00     0.001 A 
HETATM   16  C17 UNK     1      30.580  -4.415  38.127  1.00  0.00     0.100 C 
HETATM   17  C18 UNK     1      36.228  -7.613  32.666  1.00  0.00     0.003 A 
ENDROOT
BRANCH   5  18
HETATM   18  C4  UNK     1      30.019  -6.914  36.390  1.00  0.00    -0.004 A 
HETATM   19  C10 UNK     1      29.615  -6.492  35.129  1.00  0.00     0.030 A 
HETATM   20  C14 UNK     1      28.364  -6.873  34.642  1.00  0.00     0.011 A 
HETATM   21 Br1  UNK     1      27.806  -6.306  32.928  1.00  0.00    -0.051 Br
HETATM   22  C19 UNK     1      27.527  -7.673  35.420  1.00  0.00     0.022 A 
HETATM   23  C15 UNK     1      27.940  -8.092  36.684  1.00  0.00     0.044 A 
HETATM   24  C11 UNK     1      29.190  -7.712  37.171  1.00  0.00     0.123 A 
HETATM   25  F1  UNK     1      29.579  -8.119  38.388  1.00  0.00    -0.206 F 
ENDBRANCH   5  18
BRANCH  11  26
HETATM   26  N1  UNK     1      32.307  -2.841  36.463  1.00  0.00    -0.379 N 
HETATM   27  H8  UNK     1      32.257  -2.285  35.619  1.00  0.00     0.158 HD
HETATM   28  H9  UNK     1      32.417  -2.392  37.363  1.00  0.00     0.158 HD
ENDBRANCH  11  26
TORSDOF 2
ENDMDL
MODEL 9
REMARK VINA RESULT:      -8.0      4.900      6.244
REMARK  2 active torsions:
REMARK  status: ('A' for Active; 'I' for Inactive)
REMARK    1  A    between atoms: C8_15  and  N1_6 
REMARK    2  A    between atoms: C1_8  and  C4_11 
ROOT
HETATM    1  O1  UNK     1      30.749 -10.271  33.634  1.00  0.00    -0.291 OA
HETATM    2  O2  UNK     1      27.977  -7.468  32.232  1.00  0.00    -0.274 OA
HETATM    3  O3  UNK     1      27.803  -6.588  34.328  1.00  0.00    -0.259 OA
HETATM    4  N2  UNK     1      31.120  -9.892  38.422  1.00  0.00    -0.191 NA
HETATM    5  C1  UNK     1      29.774  -8.325  35.505  1.00  0.00     0.112 C 
HETATM    6  C2  UNK     1      29.338  -8.383  34.053  1.00  0.00     0.066 A 
HETATM    7  C3  UNK     1      29.840  -9.312  33.225  1.00  0.00     0.104 A 
HETATM    8  C5  UNK     1      30.607  -9.539  35.906  1.00  0.00     0.086 C 
HETATM    9  C6  UNK     1      29.450  -9.360  31.819  1.00  0.00     0.033 A 
HETATM   10  C7  UNK     1      28.320  -7.409  33.579  1.00  0.00     0.298 A 
HETATM   11  C8  UNK     1      31.051 -10.424  34.986  1.00  0.00     0.159 C 
HETATM   12  C9  UNK     1      28.527  -8.425  31.359  1.00  0.00     0.092 A 
HETATM   13  C12 UNK     1      29.958 -10.292  30.905  1.00  0.00     0.017 A 
HETATM   14  C13 UNK     1      28.102  -8.395  30.031  1.00  0.00     0.038 A 
HETATM   15  C16 UNK     1      29.541 -10.274  29.570  1.00  0.00     0.001 A 
HETATM   16  C17 UNK     1      30.890  -9.734  37.296  1.00  0.00     0.100 C 
HETATM   17  C18 UNK     1      28.615  -9.326  29.134  1.00  0.00     0.003 A 
ENDROOT
BRANCH   5  18
HETATM   18  C4  UNK     1      30.543  -7.062  35.773  1.00  0.00    -0.004 A 
HETATM   19  C10 UNK     1      31.751  -6.844  35.121  1.00  0.00     0.030 A 
HETATM   20  C14 UNK     1      32.468  -5.673  35.370  1.00  0.00     0.011 A 
HETATM   21 Br1  UNK     1      34.111  -5.366  34.488  1.00  0.00    -0.051 Br
HETATM   22  C19 UNK     1      31.971  -4.729  36.269  1.00  0.00     0.022 A 
HETATM   23  C15 UNK     1      30.757  -4.955  36.919  1.00  0.00     0.044 A 
HETATM   24  C11 UNK     1      30.041  -6.126  36.669  1.00  0.00     0.123 A 
HETATM   25  F1  UNK     1      28.876  -6.335  37.298  1.00  0.00    -0.206 F 
ENDBRANCH   5  18
BRANCH  11  26
HETATM   26  N1  UNK     1      31.812 -11.529  35.257  1.00  0.00    -0.379 N 
HETATM   27  H8  UNK     1      31.400 -12.288  35.785  1.00  0.00     0.158 HD
HETATM   28  H9  UNK     1      32.769 -11.593  34.936  1.00  0.00     0.158 HD
ENDBRANCH  11  26
TORSDOF 2
ENDMDL
MODEL 10
REMARK VINA RESULT:      -8.0      4.027      6.414
REMARK  2 active torsions:
REMARK  status: ('A' for Active; 'I' for Inactive)
REMARK    1  A    between atoms: C8_15  and  N1_6 
REMARK    2  A    between atoms: C1_8  and  C4_11 
ROOT
HETATM    1  O1  UNK     1      34.707  -7.177  35.592  1.00  0.00    -0.291 OA
HETATM    2  O2  UNK     1      30.923  -5.623  34.713  1.00  0.00    -0.274 OA
HETATM    3  O3  UNK     1      31.133  -6.325  32.554  1.00  0.00    -0.259 OA
HETATM    4  N2  UNK     1      36.766  -8.758  31.535  1.00  0.00    -0.191 NA
HETATM    5  C1  UNK     1      33.696  -7.580  32.936  1.00  0.00     0.112 C 
HETATM    6  C2  UNK     1      32.933  -6.842  34.020  1.00  0.00     0.066 A 
HETATM    7  C3  UNK     1      33.457  -6.696  35.247  1.00  0.00     0.104 A 
HETATM    8  C5  UNK     1      35.133  -7.884  33.348  1.00  0.00     0.086 C 
HETATM    9  C6  UNK     1      32.720  -6.013  36.306  1.00  0.00     0.033 A 
HETATM   10  C7  UNK     1      31.609  -6.256  33.682  1.00  0.00     0.298 A 
HETATM   11  C8  UNK     1      35.561  -7.686  34.615  1.00  0.00     0.159 C 
HETATM   12  C9  UNK     1      31.462  -5.497  36.007  1.00  0.00     0.092 A 
HETATM   13  C12 UNK     1      33.207  -5.851  37.609  1.00  0.00     0.017 A 
HETATM   14  C13 UNK     1      30.687  -4.835  36.958  1.00  0.00     0.038 A 
HETATM   15  C16 UNK     1      32.442  -5.189  38.574  1.00  0.00     0.001 A 
HETATM   16  C17 UNK     1      36.035  -8.367  32.346  1.00  0.00     0.100 C 
HETATM   17  C18 UNK     1      31.184  -4.682  38.249  1.00  0.00     0.003 A 
ENDROOT
BRANCH   5  18
HETATM   18  C4  UNK     1      32.987  -8.852  32.568  1.00  0.00    -0.004 A 
HETATM   19  C10 UNK     1      32.726  -9.801  33.550  1.00  0.00     0.030 A 
HETATM   20  C14 UNK     1      32.069 -10.983  33.209  1.00  0.00     0.011 A 
HETATM   21 Br1  UNK     1      31.708 -12.279  34.537  1.00  0.00    -0.051 Br
HETATM   22  C19 UNK     1      31.678 -11.209  31.889  1.00  0.00     0.022 A 
HETATM   23  C15 UNK     1      31.943 -10.252  30.909  1.00  0.00     0.044 A 
HETATM   24  C11 UNK     1      32.599  -9.069  31.250  1.00  0.00     0.123 A 
HETATM   25  F1  UNK     1      32.851  -8.155  30.303  1.00  0.00    -0.206 F 
ENDBRANCH   5  18
BRANCH  11  26
HETATM   26  N1  UNK     1      36.825  -7.943  35.071  1.00  0.00    -0.379 N 
HETATM   27  H8  UNK     1      37.125  -8.906  35.160  1.00  0.00     0.158 HD
HETATM   28  H9  UNK     1      37.455  -7.189  35.312  1.00  0.00     0.158 HD
ENDBRANCH  11  26
TORSDOF 2
ENDMDL
