MODEL 1
REMARK VINA RESULT:      -6.7      0.000      0.000
REMARK  1 active torsions:
REMARK  status: ('A' for Active; 'I' for Inactive)
REMARK    1  A    between atoms: C3_7  and  O3_3 
ROOT
HETATM    1  O1  UNK     1      21.443  -9.895  34.447  1.00  0.00    -0.322 OA
HETATM    2  O2  UNK     1      20.020  -5.392  35.500  1.00  0.00    -0.275 OA
HETATM    3  O4  UNK     1      19.392  -3.270  36.094  1.00  0.00    -0.260 OA
HETATM    4  C1  UNK     1      21.930  -8.996  36.462  1.00  0.00     0.034 A 
HETATM    5  C2  UNK     1      21.264  -6.754  37.090  1.00  0.00     0.032 A 
HETATM    6  C3  UNK     1      21.906  -7.959  37.416  1.00  0.00     0.094 A 
HETATM    7  C4  UNK     1      21.317  -8.786  35.231  1.00  0.00     0.090 A 
HETATM    8  C5  UNK     1      20.667  -6.603  35.838  1.00  0.00     0.095 A 
HETATM    9  C6  UNK     1      20.671  -7.608  34.866  1.00  0.00     0.076 A 
HETATM   10  C7  UNK     1      22.456 -10.313  36.411  1.00  0.00     0.041 A 
HETATM   11  C8  UNK     1      21.206  -5.646  38.031  1.00  0.00     0.023 A 
HETATM   12  C9  UNK     1      22.134 -10.813  35.172  1.00  0.00     0.143 A 
HETATM   13  C10 UNK     1      20.591  -4.509  37.700  1.00  0.00     0.083 A 
HETATM   14  C11 UNK     1      19.952  -4.321  36.385  1.00  0.00     0.288 A 
ENDROOT
BRANCH   6  15
HETATM   15  O3  UNK     1      22.499  -8.137  38.636  1.00  0.00    -0.354 OA
HETATM   16  C12 UNK     1      21.707  -8.742  39.653  1.00  0.00     0.210 C 
ENDBRANCH   6  15
TORSDOF 1
ENDMDL
MODEL 2
REMARK VINA RESULT:      -6.7     30.638     32.418
REMARK  1 active torsions:
REMARK  status: ('A' for Active; 'I' for Inactive)
REMARK    1  A    between atoms: C3_7  and  O3_3 
ROOT
HETATM    1  O1  UNK     1      15.636   5.391   8.842  1.00  0.00    -0.322 OA
HETATM    2  O2  UNK     1      11.087   5.480   7.196  1.00  0.00    -0.275 OA
HETATM    3  O4  UNK     1       8.913   5.600   6.485  1.00  0.00    -0.260 OA
HETATM    4  C1  UNK     1      14.144   6.848   9.714  1.00  0.00     0.034 A 
HETATM    5  C2  UNK     1      11.846   6.974   8.964  1.00  0.00     0.032 A 
HETATM    6  C3  UNK     1      12.868   7.435   9.809  1.00  0.00     0.094 A 
HETATM    7  C4  UNK     1      14.347   5.832   8.786  1.00  0.00     0.090 A 
HETATM    8  C5  UNK     1      12.109   5.951   8.052  1.00  0.00     0.095 A 
HETATM    9  C6  UNK     1      13.363   5.344   7.929  1.00  0.00     0.076 A 
HETATM   10  C7  UNK     1      15.392   7.027  10.367  1.00  0.00     0.041 A 
HETATM   11  C8  UNK     1      10.506   7.539   9.012  1.00  0.00     0.023 A 
HETATM   12  C9  UNK     1      16.260   6.122   9.803  1.00  0.00     0.143 A 
HETATM   13  C10 UNK     1       9.551   7.085   8.199  1.00  0.00     0.083 A 
HETATM   14  C11 UNK     1       9.800   6.007   7.227  1.00  0.00     0.288 A 
ENDROOT
BRANCH   6  15
HETATM   15  O3  UNK     1      12.639   8.436  10.713  1.00  0.00    -0.354 OA
HETATM   16  C12 UNK     1      13.013   9.753  10.321  1.00  0.00     0.210 C 
ENDBRANCH   6  15
TORSDOF 1
ENDMDL
MODEL 3
REMARK VINA RESULT:      -6.6      5.752      8.936
REMARK  1 active torsions:
REMARK  status: ('A' for Active; 'I' for Inactive)
REMARK    1  A    between atoms: C3_7  and  O3_3 
ROOT
HETATM    1  O1  UNK     1      17.397   1.991  36.847  1.00  0.00    -0.322 OA
HETATM    2  O2  UNK     1      18.756   0.948  32.322  1.00  0.00    -0.275 OA
HETATM    3  O4  UNK     1      19.421   0.355  30.211  1.00  0.00    -0.260 OA
HETATM    4  C1  UNK     1      18.128  -0.084  36.334  1.00  0.00     0.034 A 
HETATM    5  C2  UNK     1      18.832  -0.711  34.104  1.00  0.00     0.032 A 
HETATM    6  C3  UNK     1      18.623  -1.060  35.447  1.00  0.00     0.094 A 
HETATM    7  C4  UNK     1      17.865   1.192  35.846  1.00  0.00     0.090 A 
HETATM    8  C5  UNK     1      18.550   0.586  33.673  1.00  0.00     0.095 A 
HETATM    9  C6  UNK     1      18.057   1.581  34.523  1.00  0.00     0.076 A 
HETATM   10  C7  UNK     1      17.796  -0.045  37.714  1.00  0.00     0.041 A 
HETATM   11  C8  UNK     1      19.340  -1.673  33.139  1.00  0.00     0.023 A 
HETATM   12  C9  UNK     1      17.359   1.233  37.973  1.00  0.00     0.143 A 
HETATM   13  C10 UNK     1      19.532  -1.318  31.867  1.00  0.00     0.083 A 
HETATM   14  C11 UNK     1      19.242   0.043  31.383  1.00  0.00     0.288 A 
ENDROOT
BRANCH   6  15
HETATM   15  O3  UNK     1      18.892  -2.324  35.899  1.00  0.00    -0.354 OA
HETATM   16  C12 UNK     1      20.179  -2.541  36.467  1.00  0.00     0.210 C 
ENDBRANCH   6  15
TORSDOF 1
ENDMDL
MODEL 4
REMARK VINA RESULT:      -6.6      6.824     10.395
REMARK  1 active torsions:
REMARK  status: ('A' for Active; 'I' for Inactive)
REMARK    1  A    between atoms: C3_7  and  O3_3 
ROOT
HETATM    1  O1  UNK     1      17.711   2.828  31.917  1.00  0.00    -0.322 OA
HETATM    2  O2  UNK     1      19.456  -1.259  33.830  1.00  0.00    -0.275 OA
HETATM    3  O4  UNK     1      20.332  -3.214  34.644  1.00  0.00    -0.260 OA
HETATM    4  C1  UNK     1      19.011   1.460  30.674  1.00  0.00     0.034 A 
HETATM    5  C2  UNK     1      19.934  -0.606  31.533  1.00  0.00     0.032 A 
HETATM    6  C3  UNK     1      19.788   0.303  30.473  1.00  0.00     0.094 A 
HETATM    7  C4  UNK     1      18.417   1.661  31.916  1.00  0.00     0.090 A 
HETATM    8  C5  UNK     1      19.314  -0.350  32.757  1.00  0.00     0.095 A 
HETATM    9  C6  UNK     1      18.537   0.787  32.994  1.00  0.00     0.076 A 
HETATM   10  C7  UNK     1      18.635   2.578  29.882  1.00  0.00     0.041 A 
HETATM   11  C8  UNK     1      20.724  -1.820  31.389  1.00  0.00     0.023 A 
HETATM   12  C9  UNK     1      17.850   3.374  30.681  1.00  0.00     0.143 A 
HETATM   13  C10 UNK     1      20.849  -2.670  32.411  1.00  0.00     0.083 A 
HETATM   14  C11 UNK     1      20.206  -2.425  33.714  1.00  0.00     0.288 A 
ENDROOT
BRANCH   6  15
HETATM   15  O3  UNK     1      20.383   0.078  29.262  1.00  0.00    -0.354 OA
HETATM   16  C12 UNK     1      19.619  -0.635  28.294  1.00  0.00     0.210 C 
ENDBRANCH   6  15
TORSDOF 1
ENDMDL
MODEL 5
REMARK VINA RESULT:      -6.6      5.579      8.553
REMARK  1 active torsions:
REMARK  status: ('A' for Active; 'I' for Inactive)
REMARK    1  A    between atoms: C3_7  and  O3_3 
ROOT
HETATM    1  O1  UNK     1      20.385  -3.175  34.958  1.00  0.00    -0.322 OA
HETATM    2  O2  UNK     1      20.808  -1.466  30.451  1.00  0.00    -0.275 OA
HETATM    3  O4  UNK     1      20.938  -0.582  28.342  1.00  0.00    -0.260 OA
HETATM    4  C1  UNK     1      19.173  -1.381  34.308  1.00  0.00     0.034 A 
HETATM    5  C2  UNK     1      19.309  -0.448  32.078  1.00  0.00     0.032 A 
HETATM    6  C3  UNK     1      18.759  -0.416  33.370  1.00  0.00     0.094 A 
HETATM    7  C4  UNK     1      20.113  -2.332  33.921  1.00  0.00     0.090 A 
HETATM    8  C5  UNK     1      20.248  -1.426  31.748  1.00  0.00     0.095 A 
HETATM    9  C6  UNK     1      20.683  -2.400  32.652  1.00  0.00     0.076 A 
HETATM   10  C7  UNK     1      18.864  -1.674  35.663  1.00  0.00     0.041 A 
HETATM   11  C8  UNK     1      18.923   0.522  31.064  1.00  0.00     0.023 A 
HETATM   12  C9  UNK     1      19.624  -2.768  36.007  1.00  0.00     0.143 A 
HETATM   13  C10 UNK     1      19.459   0.472  29.843  1.00  0.00     0.083 A 
HETATM   14  C11 UNK     1      20.453  -0.549  29.467  1.00  0.00     0.288 A 
ENDROOT
BRANCH   6  15
HETATM   15  O3  UNK     1      17.836   0.531  33.722  1.00  0.00    -0.354 OA
HETATM   16  C12 UNK     1      18.322   1.671  34.423  1.00  0.00     0.210 C 
ENDBRANCH   6  15
TORSDOF 1
ENDMDL
MODEL 6
REMARK VINA RESULT:      -6.6      5.255      8.530
REMARK  1 active torsions:
REMARK  status: ('A' for Active; 'I' for Inactive)
REMARK    1  A    between atoms: C3_7  and  O3_3 
ROOT
HETATM    1  O1  UNK     1      20.566  -0.891  29.925  1.00  0.00    -0.322 OA
HETATM    2  O2  UNK     1      20.571  -3.104  34.227  1.00  0.00    -0.275 OA
HETATM    3  O4  UNK     1      20.501  -4.083  36.297  1.00  0.00    -0.260 OA
HETATM    4  C1  UNK     1      19.245  -0.128  31.592  1.00  0.00     0.034 A 
HETATM    5  C2  UNK     1      19.173  -1.161  33.781  1.00  0.00     0.032 A 
HETATM    6  C3  UNK     1      18.726  -0.162  32.901  1.00  0.00     0.094 A 
HETATM    7  C4  UNK     1      20.183  -1.086  31.219  1.00  0.00     0.090 A 
HETATM    8  C5  UNK     1      20.115  -2.095  33.349  1.00  0.00     0.095 A 
HETATM    9  C6  UNK     1      20.653  -2.093  32.058  1.00  0.00     0.076 A 
HETATM   10  C7  UNK     1      19.056   0.692  30.448  1.00  0.00     0.041 A 
HETATM   11  C8  UNK     1      18.674  -1.250  35.145  1.00  0.00     0.023 A 
HETATM   12  C9  UNK     1      19.877   0.188  29.468  1.00  0.00     0.143 A 
HETATM   13  C10 UNK     1      19.114  -2.208  35.964  1.00  0.00     0.083 A 
HETATM   14  C11 UNK     1      20.108  -3.207  35.534  1.00  0.00     0.288 A 
ENDROOT
BRANCH   6  15
HETATM   15  O3  UNK     1      17.803   0.767  33.297  1.00  0.00    -0.354 OA
HETATM   16  C12 UNK     1      18.309   1.983  33.838  1.00  0.00     0.210 C 
ENDBRANCH   6  15
TORSDOF 1
ENDMDL
MODEL 7
REMARK VINA RESULT:      -6.5      7.745      9.612
REMARK  1 active torsions:
REMARK  status: ('A' for Active; 'I' for Inactive)
REMARK    1  A    between atoms: C3_7  and  O3_3 
ROOT
HETATM    1  O1  UNK     1      20.425  -2.020  30.090  1.00  0.00    -0.322 OA
HETATM    2  O2  UNK     1      18.416  -1.051  34.384  1.00  0.00    -0.275 OA
HETATM    3  O4  UNK     1      17.452  -0.492  36.386  1.00  0.00    -0.260 OA
HETATM    4  C1  UNK     1      19.716   0.073  30.563  1.00  0.00     0.034 A 
HETATM    5  C2  UNK     1      18.699   0.665  32.679  1.00  0.00     0.032 A 
HETATM    6  C3  UNK     1      19.133   1.045  31.399  1.00  0.00     0.094 A 
HETATM    7  C4  UNK     1      19.841  -1.229  31.036  1.00  0.00     0.090 A 
HETATM    8  C5  UNK     1      18.851  -0.658  33.098  1.00  0.00     0.095 A 
HETATM    9  C6  UNK     1      19.424  -1.650  32.296  1.00  0.00     0.076 A 
HETATM   10  C7  UNK     1      20.261   0.061  29.252  1.00  0.00     0.041 A 
HETATM   11  C8  UNK     1      18.088   1.621  33.590  1.00  0.00     0.023 A 
HETATM   12  C9  UNK     1      20.675  -1.229  29.015  1.00  0.00     0.143 A 
HETATM   13  C10 UNK     1      17.683   1.237  34.802  1.00  0.00     0.083 A 
HETATM   14  C11 UNK     1      17.830  -0.153  35.270  1.00  0.00     0.288 A 
ENDROOT
BRANCH   6  15
HETATM   15  O3  UNK     1      18.999   2.335  30.962  1.00  0.00    -0.354 OA
HETATM   16  C12 UNK     1      18.023   2.571  29.952  1.00  0.00     0.210 C 
ENDBRANCH   6  15
TORSDOF 1
ENDMDL
MODEL 8
REMARK VINA RESULT:      -6.5     30.694     32.631
REMARK  1 active torsions:
REMARK  status: ('A' for Active; 'I' for Inactive)
REMARK    1  A    between atoms: C3_7  and  O3_3 
ROOT
HETATM    1  O1  UNK     1       9.965   5.524   6.802  1.00  0.00    -0.322 OA
HETATM    2  O2  UNK     1      14.532   5.351   8.391  1.00  0.00    -0.275 OA
HETATM    3  O4  UNK     1      16.670   5.346   9.213  1.00  0.00    -0.260 OA
HETATM    4  C1  UNK     1      10.643   6.910   8.452  1.00  0.00     0.034 A 
HETATM    5  C2  UNK     1      12.904   6.906   9.319  1.00  0.00     0.032 A 
HETATM    6  C3  UNK     1      11.602   7.431   9.343  1.00  0.00     0.094 A 
HETATM    7  C4  UNK     1      11.021   5.894   7.581  1.00  0.00     0.090 A 
HETATM    8  C5  UNK     1      13.224   5.887   8.422  1.00  0.00     0.095 A 
HETATM    9  C6  UNK     1      12.300   5.344   7.524  1.00  0.00     0.076 A 
HETATM   10  C7  UNK     1       9.274   7.164   8.176  1.00  0.00     0.041 A 
HETATM   11  C8  UNK     1      13.938   7.401  10.214  1.00  0.00     0.023 A 
HETATM   12  C9  UNK     1       8.912   6.299   7.171  1.00  0.00     0.143 A 
HETATM   13  C10 UNK     1      15.169   6.887  10.174  1.00  0.00     0.083 A 
HETATM   14  C11 UNK     1      15.536   5.810   9.238  1.00  0.00     0.288 A 
ENDROOT
BRANCH   6  15
HETATM   15  O3  UNK     1      11.259   8.432  10.211  1.00  0.00    -0.354 OA
HETATM   16  C12 UNK     1      11.214   9.753   9.681  1.00  0.00     0.210 C 
ENDBRANCH   6  15
TORSDOF 1
ENDMDL
MODEL 9
REMARK VINA RESULT:      -6.5     14.412     15.371
REMARK  1 active torsions:
REMARK  status: ('A' for Active; 'I' for Inactive)
REMARK    1  A    between atoms: C3_7  and  O3_3 
ROOT
HETATM    1  O1  UNK     1      20.351   5.586  30.871  1.00  0.00    -0.322 OA
HETATM    2  O2  UNK     1      15.730   6.576  31.906  1.00  0.00    -0.275 OA
HETATM    3  O4  UNK     1      13.574   7.094  32.484  1.00  0.00    -0.260 OA
HETATM    4  C1  UNK     1      19.830   6.716  32.757  1.00  0.00     0.034 A 
HETATM    5  C2  UNK     1      17.552   7.261  33.369  1.00  0.00     0.032 A 
HETATM    6  C3  UNK     1      18.925   7.311  33.658  1.00  0.00     0.094 A 
HETATM    7  C4  UNK     1      19.330   6.101  31.614  1.00  0.00     0.090 A 
HETATM    8  C5  UNK     1      17.110   6.630  32.206  1.00  0.00     0.095 A 
HETATM    9  C6  UNK     1      17.978   6.030  31.288  1.00  0.00     0.076 A 
HETATM   10  C7  UNK     1      21.240   6.559  32.694  1.00  0.00     0.041 A 
HETATM   11  C8  UNK     1      16.567   7.857  34.259  1.00  0.00     0.023 A 
HETATM   12  C9  UNK     1      21.503   5.869  31.534  1.00  0.00     0.143 A 
HETATM   13  C10 UNK     1      15.267   7.798  33.964  1.00  0.00     0.083 A 
HETATM   14  C11 UNK     1      14.772   7.139  32.743  1.00  0.00     0.288 A 
ENDROOT
BRANCH   6  15
HETATM   15  O3  UNK     1      19.388   7.922  34.792  1.00  0.00    -0.354 OA
HETATM   16  C12 UNK     1      20.030   9.181  34.625  1.00  0.00     0.210 C 
ENDBRANCH   6  15
TORSDOF 1
ENDMDL
MODEL 10
REMARK VINA RESULT:      -6.4     14.672     17.284
REMARK  1 active torsions:
REMARK  status: ('A' for Active; 'I' for Inactive)
REMARK    1  A    between atoms: C3_7  and  O3_3 
ROOT
HETATM    1  O1  UNK     1      16.219  10.705  34.945  1.00  0.00    -0.322 OA
HETATM    2  O2  UNK     1      19.722   7.683  33.530  1.00  0.00    -0.275 OA
HETATM    3  O4  UNK     1      21.316   6.215  32.785  1.00  0.00    -0.260 OA
HETATM    4  C1  UNK     1      15.856   9.272  33.236  1.00  0.00     0.034 A 
HETATM    5  C2  UNK     1      17.540   7.719  32.450  1.00  0.00     0.032 A 
HETATM    6  C3  UNK     1      16.244   8.249  32.348  1.00  0.00     0.094 A 
HETATM    7  C4  UNK     1      16.773   9.720  34.182  1.00  0.00     0.090 A 
HETATM    8  C5  UNK     1      18.415   8.210  33.420  1.00  0.00     0.095 A 
HETATM    9  C6  UNK     1      18.067   9.223  34.317  1.00  0.00     0.076 A 
HETATM   10  C7  UNK     1      14.679  10.038  33.446  1.00  0.00     0.041 A 
HETATM   11  C8  UNK     1      18.000   6.662  31.562  1.00  0.00     0.023 A 
HETATM   12  C9  UNK     1      14.951  10.890  34.491  1.00  0.00     0.143 A 
HETATM   13  C10 UNK     1      19.237   6.174  31.678  1.00  0.00     0.083 A 
HETATM   14  C11 UNK     1      20.182   6.672  32.692  1.00  0.00     0.288 A 
ENDROOT
BRANCH   6  15
HETATM   15  O3  UNK     1      15.363   7.788  31.407  1.00  0.00    -0.354 OA
HETATM   16  C12 UNK     1      14.273   7.002  31.880  1.00  0.00     0.210 C 
ENDBRANCH   6  15
TORSDOF 1
ENDMDL
