MODEL 1
REMARK VINA RESULT:      -8.5      0.000      0.000
REMARK  2 active torsions:
REMARK  status: ('A' for Active; 'I' for Inactive)
REMARK    1  A    between atoms: C7_10  and  O2_2 
REMARK    2  A    between atoms: C3_6  and  C4_7 
ROOT
HETATM    1  O1  UNK     1      18.710  -0.517  33.521  1.00  0.00    -0.309 OA
HETATM    2  O3  UNK     1      20.543  -3.449  35.675  1.00  0.00    -0.287 OA
HETATM    3  C1  UNK     1      19.017  -1.645  35.650  1.00  0.00     0.081 A 
HETATM    4  C2  UNK     1      18.425  -0.665  34.855  1.00  0.00     0.093 A 
HETATM    5  C3  UNK     1      19.632  -1.376  32.943  1.00  0.00     0.090 A 
HETATM    6  C5  UNK     1      19.989  -2.564  35.038  1.00  0.00     0.190 A 
HETATM    7  C6  UNK     1      20.263  -2.362  33.601  1.00  0.00     0.094 A 
HETATM    8  C7  UNK     1      18.690  -1.750  37.004  1.00  0.00     0.082 A 
HETATM    9  C8  UNK     1      17.500   0.218  35.410  1.00  0.00     0.038 A 
HETATM   10  C9  UNK     1      17.764  -0.865  37.557  1.00  0.00     0.037 A 
HETATM   11  C10 UNK     1      17.171   0.117  36.762  1.00  0.00     0.006 A 
ENDROOT
BRANCH   5  12
HETATM   12  C4  UNK     1      19.859  -1.133  31.504  1.00  0.00    -0.002 A 
HETATM   13  C11 UNK     1      19.639   0.135  30.962  1.00  0.00     0.014 A 
HETATM   14  C13 UNK     1      19.855   0.365  29.604  1.00  0.00     0.001 A 
HETATM   15  C15 UNK     1      20.293  -0.674  28.783  1.00  0.00     0.000 A 
HETATM   16  C14 UNK     1      20.515  -1.941  29.320  1.00  0.00     0.001 A 
HETATM   17  C12 UNK     1      20.298  -2.171  30.678  1.00  0.00     0.014 A 
ENDBRANCH   5  12
BRANCH   8  18
HETATM   18  O2  UNK     1      19.239  -2.690  37.822  1.00  0.00    -0.360 OA
HETATM   19  H10 UNK     1      18.675  -3.477  37.862  1.00  0.00     0.217 HD
ENDBRANCH   8  18
TORSDOF 2
ENDMDL
MODEL 2
REMARK VINA RESULT:      -8.1     25.520     27.344
REMARK  2 active torsions:
REMARK  status: ('A' for Active; 'I' for Inactive)
REMARK    1  A    between atoms: C7_10  and  O2_2 
REMARK    2  A    between atoms: C3_6  and  C4_7 
ROOT
HETATM    1  O1  UNK     1      13.213   7.880   8.511  1.00  0.00    -0.309 OA
HETATM    2  O3  UNK     1      15.754   4.813   9.371  1.00  0.00    -0.287 OA
HETATM    3  C1  UNK     1      15.352   7.142   9.395  1.00  0.00     0.081 A 
HETATM    4  C2  UNK     1      14.435   8.142   9.077  1.00  0.00     0.093 A 
HETATM    5  C3  UNK     1      12.881   6.561   8.239  1.00  0.00     0.090 A 
HETATM    6  C5  UNK     1      15.000   5.742   9.115  1.00  0.00     0.190 A 
HETATM    7  C6  UNK     1      13.675   5.511   8.504  1.00  0.00     0.094 A 
HETATM    8  C7  UNK     1      16.583   7.467   9.969  1.00  0.00     0.082 A 
HETATM    9  C8  UNK     1      14.744   9.478   9.332  1.00  0.00     0.038 A 
HETATM   10  C9  UNK     1      16.890   8.805  10.223  1.00  0.00     0.037 A 
HETATM   11  C10 UNK     1      15.973   9.808   9.905  1.00  0.00     0.006 A 
ENDROOT
BRANCH   5  12
HETATM   12  C4  UNK     1      11.544   6.391   7.638  1.00  0.00    -0.002 A 
HETATM   13  C11 UNK     1      10.411   6.317   8.451  1.00  0.00     0.014 A 
HETATM   14  C13 UNK     1       9.148   6.157   7.883  1.00  0.00     0.001 A 
HETATM   15  C15 UNK     1       9.013   6.071   6.498  1.00  0.00     0.000 A 
HETATM   16  C14 UNK     1      10.140   6.145   5.681  1.00  0.00     0.001 A 
HETATM   17  C12 UNK     1      11.404   6.304   6.250  1.00  0.00     0.014 A 
ENDBRANCH   5  12
BRANCH   8  18
HETATM   18  O2  UNK     1      17.512   6.527  10.298  1.00  0.00    -0.360 OA
HETATM   19  H10 UNK     1      18.057   6.304   9.529  1.00  0.00     0.217 HD
ENDBRANCH   8  18
TORSDOF 2
ENDMDL
MODEL 3
REMARK VINA RESULT:      -8.1      4.399      7.352
REMARK  2 active torsions:
REMARK  status: ('A' for Active; 'I' for Inactive)
REMARK    1  A    between atoms: C7_10  and  O2_2 
REMARK    2  A    between atoms: C3_6  and  C4_7 
ROOT
HETATM    1  O1  UNK     1      19.400   2.007  31.287  1.00  0.00    -0.309 OA
HETATM    2  O3  UNK     1      17.829   1.650  27.545  1.00  0.00    -0.287 OA
HETATM    3  C1  UNK     1      19.091   0.667  29.285  1.00  0.00     0.081 A 
HETATM    4  C2  UNK     1      19.598   0.855  30.569  1.00  0.00     0.093 A 
HETATM    5  C3  UNK     1      18.669   3.031  30.704  1.00  0.00     0.090 A 
HETATM    6  C5  UNK     1      18.307   1.748  28.667  1.00  0.00     0.190 A 
HETATM    7  C6  UNK     1      18.124   2.968  29.479  1.00  0.00     0.094 A 
HETATM    8  C7  UNK     1      19.324  -0.528  28.600  1.00  0.00     0.082 A 
HETATM    9  C8  UNK     1      20.344  -0.154  31.179  1.00  0.00     0.038 A 
HETATM   10  C9  UNK     1      20.071  -1.536  29.212  1.00  0.00     0.037 A 
HETATM   11  C10 UNK     1      20.580  -1.349  30.498  1.00  0.00     0.006 A 
ENDROOT
BRANCH   5  12
HETATM   12  C4  UNK     1      18.512   4.221  31.563  1.00  0.00    -0.002 A 
HETATM   13  C11 UNK     1      18.185   4.076  32.913  1.00  0.00     0.014 A 
HETATM   14  C13 UNK     1      18.037   5.200  33.725  1.00  0.00     0.001 A 
HETATM   15  C15 UNK     1      18.217   6.475  33.189  1.00  0.00     0.000 A 
HETATM   16  C14 UNK     1      18.544   6.625  31.842  1.00  0.00     0.001 A 
HETATM   17  C12 UNK     1      18.691   5.501  31.030  1.00  0.00     0.014 A 
ENDBRANCH   5  12
BRANCH   8  18
HETATM   18  O2  UNK     1      18.849  -0.759  27.345  1.00  0.00    -0.360 OA
HETATM   19  H10 UNK     1      19.112  -0.045  26.745  1.00  0.00     0.217 HD
ENDBRANCH   8  18
TORSDOF 2
ENDMDL
MODEL 4
REMARK VINA RESULT:      -8.1      2.013      6.013
REMARK  2 active torsions:
REMARK  status: ('A' for Active; 'I' for Inactive)
REMARK    1  A    between atoms: C7_10  and  O2_2 
REMARK    2  A    between atoms: C3_6  and  C4_7 
ROOT
HETATM    1  O1  UNK     1      18.560   0.547  32.569  1.00  0.00    -0.309 OA
HETATM    2  O3  UNK     1      20.416  -3.080  32.513  1.00  0.00    -0.287 OA
HETATM    3  C1  UNK     1      19.792  -1.136  31.323  1.00  0.00     0.081 A 
HETATM    4  C2  UNK     1      19.142   0.094  31.412  1.00  0.00     0.093 A 
HETATM    5  C3  UNK     1      18.616  -0.260  33.695  1.00  0.00     0.090 A 
HETATM    6  C5  UNK     1      19.860  -1.990  32.518  1.00  0.00     0.190 A 
HETATM    7  C6  UNK     1      19.216  -1.460  33.737  1.00  0.00     0.094 A 
HETATM    8  C7  UNK     1      20.366  -1.547  30.118  1.00  0.00     0.082 A 
HETATM    9  C8  UNK     1      19.064   0.924  30.293  1.00  0.00     0.038 A 
HETATM   10  C9  UNK     1      20.287  -0.715  29.000  1.00  0.00     0.037 A 
HETATM   11  C10 UNK     1      19.637   0.517  29.087  1.00  0.00     0.006 A 
ENDROOT
BRANCH   5  12
HETATM   12  C4  UNK     1      17.964   0.324  34.884  1.00  0.00    -0.002 A 
HETATM   13  C11 UNK     1      16.625   0.042  35.162  1.00  0.00     0.014 A 
HETATM   14  C13 UNK     1      16.011   0.593  36.286  1.00  0.00     0.001 A 
HETATM   15  C15 UNK     1      16.734   1.427  37.137  1.00  0.00     0.000 A 
HETATM   16  C14 UNK     1      18.072   1.711  36.864  1.00  0.00     0.001 A 
HETATM   17  C12 UNK     1      18.686   1.161  35.740  1.00  0.00     0.014 A 
ENDBRANCH   5  12
BRANCH   8  18
HETATM   18  O2  UNK     1      21.012  -2.738  29.980  1.00  0.00    -0.360 OA
HETATM   19  H10 UNK     1      21.855  -2.617  29.518  1.00  0.00     0.217 HD
ENDBRANCH   8  18
TORSDOF 2
ENDMDL
MODEL 5
REMARK VINA RESULT:      -8.0      1.975      6.709
REMARK  2 active torsions:
REMARK  status: ('A' for Active; 'I' for Inactive)
REMARK    1  A    between atoms: C7_10  and  O2_2 
REMARK    2  A    between atoms: C3_6  and  C4_7 
ROOT
HETATM    1  O1  UNK     1      19.117  -0.565  33.179  1.00  0.00    -0.309 OA
HETATM    2  O3  UNK     1      18.437   2.764  30.930  1.00  0.00    -0.287 OA
HETATM    3  C1  UNK     1      19.241   0.544  31.021  1.00  0.00     0.081 A 
HETATM    4  C2  UNK     1      19.446  -0.560  31.847  1.00  0.00     0.093 A 
HETATM    5  C3  UNK     1      18.563   0.583  33.726  1.00  0.00     0.090 A 
HETATM    6  C5  UNK     1      18.647   1.760  31.597  1.00  0.00     0.190 A 
HETATM    7  C6  UNK     1      18.313   1.706  33.034  1.00  0.00     0.094 A 
HETATM    8  C7  UNK     1      19.597   0.493  29.671  1.00  0.00     0.082 A 
HETATM    9  C8  UNK     1      20.007  -1.726  31.327  1.00  0.00     0.038 A 
HETATM   10  C9  UNK     1      20.159  -0.675  29.153  1.00  0.00     0.037 A 
HETATM   11  C10 UNK     1      20.364  -1.781  29.979  1.00  0.00     0.006 A 
ENDROOT
BRANCH   5  12
HETATM   12  C4  UNK     1      18.242   0.468  35.163  1.00  0.00    -0.002 A 
HETATM   13  C11 UNK     1      18.177  -0.787  35.771  1.00  0.00     0.014 A 
HETATM   14  C13 UNK     1      17.875  -0.895  37.128  1.00  0.00     0.001 A 
HETATM   15  C15 UNK     1      17.637   0.254  37.882  1.00  0.00     0.000 A 
HETATM   16  C14 UNK     1      17.701   1.509  37.279  1.00  0.00     0.001 A 
HETATM   17  C12 UNK     1      18.003   1.617  35.922  1.00  0.00     0.014 A 
ENDBRANCH   5  12
BRANCH   8  18
HETATM   18  O2  UNK     1      19.417   1.543  28.824  1.00  0.00    -0.360 OA
HETATM   19  H10 UNK     1      19.470   1.250  27.902  1.00  0.00     0.217 HD
ENDBRANCH   8  18
TORSDOF 2
ENDMDL
MODEL 6
REMARK VINA RESULT:      -7.9      3.604      5.968
REMARK  2 active torsions:
REMARK  status: ('A' for Active; 'I' for Inactive)
REMARK    1  A    between atoms: C7_10  and  O2_2 
REMARK    2  A    between atoms: C3_6  and  C4_7 
ROOT
HETATM    1  O1  UNK     1      19.259   2.041  30.447  1.00  0.00    -0.309 OA
HETATM    2  O3  UNK     1      18.511   0.056  33.925  1.00  0.00    -0.287 OA
HETATM    3  C1  UNK     1      19.302  -0.039  31.701  1.00  0.00     0.081 A 
HETATM    4  C2  UNK     1      19.534   0.701  30.542  1.00  0.00     0.093 A 
HETATM    5  C3  UNK     1      18.719   2.684  31.550  1.00  0.00     0.090 A 
HETATM    6  C5  UNK     1      18.737   0.642  32.875  1.00  0.00     0.190 A 
HETATM    7  C6  UNK     1      18.456   2.084  32.722  1.00  0.00     0.094 A 
HETATM    8  C7  UNK     1      19.601  -1.403  31.741  1.00  0.00     0.082 A 
HETATM    9  C8  UNK     1      20.070   0.080  29.414  1.00  0.00     0.038 A 
HETATM   10  C9  UNK     1      20.137  -2.022  30.611  1.00  0.00     0.037 A 
HETATM   11  C10 UNK     1      20.370  -1.283  29.450  1.00  0.00     0.006 A 
ENDROOT
BRANCH   5  12
HETATM   12  C4  UNK     1      18.466   4.124  31.342  1.00  0.00    -0.002 A 
HETATM   13  C11 UNK     1      17.667   4.835  32.241  1.00  0.00     0.014 A 
HETATM   14  C13 UNK     1      17.430   6.195  32.045  1.00  0.00     0.001 A 
HETATM   15  C15 UNK     1      17.991   6.849  30.949  1.00  0.00     0.000 A 
HETATM   16  C14 UNK     1      18.789   6.144  30.049  1.00  0.00     0.001 A 
HETATM   17  C12 UNK     1      19.027   4.784  30.245  1.00  0.00     0.014 A 
ENDBRANCH   5  12
BRANCH   8  18
HETATM   18  O2  UNK     1      19.394  -2.168  32.848  1.00  0.00    -0.360 OA
HETATM   19  H10 UNK     1      18.619  -1.853  33.338  1.00  0.00     0.217 HD
ENDBRANCH   8  18
TORSDOF 2
ENDMDL
MODEL 7
REMARK VINA RESULT:      -7.8     14.439     17.294
REMARK  2 active torsions:
REMARK  status: ('A' for Active; 'I' for Inactive)
REMARK    1  A    between atoms: C7_10  and  O2_2 
REMARK    2  A    between atoms: C3_6  and  C4_7 
ROOT
HETATM    1  O1  UNK     1      19.039  -1.109  17.658  1.00  0.00    -0.309 OA
HETATM    2  O3  UNK     1      19.196   2.309  15.446  1.00  0.00    -0.287 OA
HETATM    3  C1  UNK     1      19.049   1.319  17.587  1.00  0.00     0.081 A 
HETATM    4  C2  UNK     1      19.001   0.112  18.283  1.00  0.00     0.093 A 
HETATM    5  C3  UNK     1      19.122  -1.141  16.275  1.00  0.00     0.090 A 
HETATM    6  C5  UNK     1      19.146   1.289  16.120  1.00  0.00     0.190 A 
HETATM    7  C6  UNK     1      19.181  -0.049  15.495  1.00  0.00     0.094 A 
HETATM    8  C7  UNK     1      19.006   2.534  18.275  1.00  0.00     0.082 A 
HETATM    9  C8  UNK     1      18.910   0.112  19.674  1.00  0.00     0.038 A 
HETATM   10  C9  UNK     1      18.915   2.532  19.668  1.00  0.00     0.037 A 
HETATM   11  C10 UNK     1      18.867   1.324  20.366  1.00  0.00     0.006 A 
ENDROOT
BRANCH   5  12
HETATM   12  C4  UNK     1      19.163  -2.503  15.707  1.00  0.00    -0.002 A 
HETATM   13  C11 UNK     1      18.040  -3.031  15.066  1.00  0.00     0.014 A 
HETATM   14  C13 UNK     1      18.079  -4.317  14.528  1.00  0.00     0.001 A 
HETATM   15  C15 UNK     1      19.242  -5.080  14.629  1.00  0.00     0.000 A 
HETATM   16  C14 UNK     1      20.365  -4.556  15.268  1.00  0.00     0.001 A 
HETATM   17  C12 UNK     1      20.327  -3.270  15.805  1.00  0.00     0.014 A 
ENDBRANCH   5  12
BRANCH   8  18
HETATM   18  O2  UNK     1      19.051   3.739  17.642  1.00  0.00    -0.360 OA
HETATM   19  H10 UNK     1      19.218   3.619  16.695  1.00  0.00     0.217 HD
ENDBRANCH   8  18
TORSDOF 2
ENDMDL
MODEL 8
REMARK VINA RESULT:      -7.8     15.094     17.326
REMARK  2 active torsions:
REMARK  status: ('A' for Active; 'I' for Inactive)
REMARK    1  A    between atoms: C7_10  and  O2_2 
REMARK    2  A    between atoms: C3_6  and  C4_7 
ROOT
HETATM    1  O1  UNK     1      19.166   0.300  15.895  1.00  0.00    -0.309 OA
HETATM    2  O3  UNK     1      18.650  -0.527  19.851  1.00  0.00    -0.287 OA
HETATM    3  C1  UNK     1      19.075   1.097  18.188  1.00  0.00     0.081 A 
HETATM    4  C2  UNK     1      19.240   1.310  16.820  1.00  0.00     0.093 A 
HETATM    5  C3  UNK     1      18.923  -0.989  16.343  1.00  0.00     0.090 A 
HETATM    6  C5  UNK     1      18.809  -0.268  18.666  1.00  0.00     0.190 A 
HETATM    7  C6  UNK     1      18.741  -1.320  17.631  1.00  0.00     0.094 A 
HETATM    8  C7  UNK     1      19.162   2.164  19.086  1.00  0.00     0.082 A 
HETATM    9  C8  UNK     1      19.493   2.595  16.341  1.00  0.00     0.038 A 
HETATM   10  C9  UNK     1      19.415   3.449  18.603  1.00  0.00     0.037 A 
HETATM   11  C10 UNK     1      19.581   3.664  17.234  1.00  0.00     0.006 A 
ENDROOT
BRANCH   5  12
HETATM   12  C4  UNK     1      18.857  -1.997  15.266  1.00  0.00    -0.002 A 
HETATM   13  C11 UNK     1      19.443  -1.739  14.025  1.00  0.00     0.014 A 
HETATM   14  C13 UNK     1      19.382  -2.691  13.008  1.00  0.00     0.001 A 
HETATM   15  C15 UNK     1      18.735  -3.906  13.230  1.00  0.00     0.000 A 
HETATM   16  C14 UNK     1      18.149  -4.169  14.467  1.00  0.00     0.001 A 
HETATM   17  C12 UNK     1      18.210  -3.216  15.484  1.00  0.00     0.014 A 
ENDBRANCH   5  12
BRANCH   8  18
HETATM   18  O2  UNK     1      19.007   2.007  20.429  1.00  0.00    -0.360 OA
HETATM   19  H10 UNK     1      18.067   1.974  20.662  1.00  0.00     0.217 HD
ENDBRANCH   8  18
TORSDOF 2
ENDMDL
MODEL 9
REMARK VINA RESULT:      -7.7      3.890      5.904
REMARK  2 active torsions:
REMARK  status: ('A' for Active; 'I' for Inactive)
REMARK    1  A    between atoms: C7_10  and  O2_2 
REMARK    2  A    between atoms: C3_6  and  C4_7 
ROOT
HETATM    1  O1  UNK     1      19.215   2.750  30.440  1.00  0.00    -0.309 OA
HETATM    2  O3  UNK     1      17.687   3.084  34.202  1.00  0.00    -0.287 OA
HETATM    3  C1  UNK     1      18.305   4.164  32.194  1.00  0.00     0.081 A 
HETATM    4  C2  UNK     1      18.834   3.978  30.917  1.00  0.00     0.093 A 
HETATM    5  C3  UNK     1      19.074   1.647  31.269  1.00  0.00     0.090 A 
HETATM    6  C5  UNK     1      18.146   2.995  33.072  1.00  0.00     0.190 A 
HETATM    7  C6  UNK     1      18.573   1.696  32.514  1.00  0.00     0.094 A 
HETATM    8  C7  UNK     1      17.934   5.439  32.627  1.00  0.00     0.082 A 
HETATM    9  C8  UNK     1      18.994   5.070  30.063  1.00  0.00     0.038 A 
HETATM   10  C9  UNK     1      18.096   6.530  31.771  1.00  0.00     0.037 A 
HETATM   11  C10 UNK     1      18.625   6.345  30.493  1.00  0.00     0.006 A 
ENDROOT
BRANCH   5  12
HETATM   12  C4  UNK     1      19.508   0.376  30.657  1.00  0.00    -0.002 A 
HETATM   13  C11 UNK     1      19.790   0.315  29.291  1.00  0.00     0.014 A 
HETATM   14  C13 UNK     1      20.202  -0.886  28.713  1.00  0.00     0.001 A 
HETATM   15  C15 UNK     1      20.333  -2.030  29.500  1.00  0.00     0.000 A 
HETATM   16  C14 UNK     1      20.053  -1.973  30.864  1.00  0.00     0.001 A 
HETATM   17  C12 UNK     1      19.641  -0.772  31.442  1.00  0.00     0.014 A 
ENDBRANCH   5  12
BRANCH   8  18
HETATM   18  O2  UNK     1      17.413   5.672  33.863  1.00  0.00    -0.360 OA
HETATM   19  H10 UNK     1      17.342   4.845  34.363  1.00  0.00     0.217 HD
ENDBRANCH   8  18
TORSDOF 2
ENDMDL
MODEL 10
REMARK VINA RESULT:      -7.5     24.905     27.925
REMARK  2 active torsions:
REMARK  status: ('A' for Active; 'I' for Inactive)
REMARK    1  A    between atoms: C7_10  and  O2_2 
REMARK    2  A    between atoms: C3_6  and  C4_7 
ROOT
HETATM    1  O1  UNK     1      11.419   7.546   9.447  1.00  0.00    -0.309 OA
HETATM    2  O3  UNK     1      12.229   6.283   5.659  1.00  0.00    -0.287 OA
HETATM    3  C1  UNK     1      10.596   6.802   7.286  1.00  0.00     0.081 A 
HETATM    4  C2  UNK     1      10.390   7.241   8.593  1.00  0.00     0.093 A 
HETATM    5  C3  UNK     1      12.720   7.404   8.989  1.00  0.00     0.090 A 
HETATM    6  C5  UNK     1      11.975   6.659   6.795  1.00  0.00     0.190 A 
HETATM    7  C6  UNK     1      13.047   6.997   7.752  1.00  0.00     0.094 A 
HETATM    8  C7  UNK     1       9.509   6.505   6.460  1.00  0.00     0.082 A 
HETATM    9  C8  UNK     1       9.092   7.386   9.083  1.00  0.00     0.038 A 
HETATM   10  C9  UNK     1       8.211   6.651   6.953  1.00  0.00     0.037 A 
HETATM   11  C10 UNK     1       8.004   7.090   8.262  1.00  0.00     0.006 A 
ENDROOT
BRANCH   5  12
HETATM   12  C4  UNK     1      13.750   7.764   9.985  1.00  0.00    -0.002 A 
HETATM   13  C11 UNK     1      13.493   8.756  10.933  1.00  0.00     0.014 A 
HETATM   14  C13 UNK     1      14.465   9.095  11.875  1.00  0.00     0.001 A 
HETATM   15  C15 UNK     1      15.697   8.441  11.871  1.00  0.00     0.000 A 
HETATM   16  C14 UNK     1      15.957   7.449  10.926  1.00  0.00     0.001 A 
HETATM   17  C12 UNK     1      14.985   7.110   9.985  1.00  0.00     0.014 A 
ENDBRANCH   5  12
BRANCH   8  18
HETATM   18  O2  UNK     1       9.658   6.075   5.177  1.00  0.00    -0.360 OA
HETATM   19  H10 UNK     1       8.818   6.138   4.697  1.00  0.00     0.217 HD
ENDBRANCH   8  18
TORSDOF 2
ENDMDL
