MODEL 1
REMARK VINA RESULT:      -8.7      0.000      0.000
REMARK  4 active torsions:
REMARK  status: ('A' for Active; 'I' for Inactive)
REMARK    1  A    between atoms: C1_8  and  N1_6 
REMARK       I    between atoms: C5_12  and  N1_6 
REMARK    2  A    between atoms: C14_21  and  N2_7 
REMARK    3  A    between atoms: C1_8  and  C2_9 
REMARK    4  A    between atoms: C5_12  and  C6_13 
ROOT
HETATM    1  C1  UNK     1      19.872  -5.266  14.963  1.00  0.00     0.092 C 
HETATM    2  C3  UNK     1      21.153  -5.842  15.586  1.00  0.00     0.053 C 
HETATM    3  C8  UNK     1      18.701  -5.929  15.577  1.00  0.00    -0.086 C 
HETATM    4  C16 UNK     1      17.753  -6.469  16.080  1.00  0.00     0.015 C 
ENDROOT
BRANCH   1   5
HETATM    5  N1  UNK     1      19.820  -3.850  15.247  1.00  0.00    -0.337 N 
HETATM    6  C5  UNK     1      18.746  -3.051  14.899  1.00  0.00     0.259 C 
HETATM    7  O2  UNK     1      17.725  -3.417  14.320  1.00  0.00    -0.267 OA
HETATM    8  H3  UNK     1      20.630  -3.430  15.692  1.00  0.00     0.164 HD
BRANCH   6   9
HETATM    9  C6  UNK     1      18.926  -1.649  15.296  1.00  0.00     0.108 A 
HETATM   10  C11 UNK     1      19.284  -0.596  14.320  1.00  0.00     0.304 A 
HETATM   11  O1  UNK     1      19.428   0.696  14.819  1.00  0.00    -0.274 OA
HETATM   12  O3  UNK     1      19.450  -0.843  13.130  1.00  0.00    -0.259 OA
HETATM   13  C10 UNK     1      19.242   0.991  16.184  1.00  0.00     0.089 A 
HETATM   14  C7  UNK     1      18.905  -0.014  17.084  1.00  0.00     0.001 A 
HETATM   15  C13 UNK     1      19.407   2.313  16.589  1.00  0.00     0.041 A 
HETATM   16  C12 UNK     1      18.729   0.317  18.430  1.00  0.00     0.050 A 
HETATM   17  C9  UNK     1      18.748  -1.375  16.593  1.00  0.00     0.037 A 
HETATM   18  C14 UNK     1      18.891   1.640  18.851  1.00  0.00     0.103 A 
HETATM   19  C15 UNK     1      19.230   2.636  17.933  1.00  0.00     0.039 A 
BRANCH  18  20
HETATM   20  N2  UNK     1      18.712   1.973  20.220  1.00  0.00    -0.116 N 
HETATM   21  O4  UNK     1      17.619   1.704  20.773  1.00  0.00    -0.532 OA
HETATM   22  O5  UNK     1      19.653   2.527  20.839  1.00  0.00    -0.532 OA
ENDBRANCH  18  20
ENDBRANCH   6   9
ENDBRANCH   1   5
BRANCH   1  23
HETATM   23  C2  UNK     1      19.899  -5.510  13.436  1.00  0.00     0.040 C 
HETATM   24  C4  UNK     1      20.693  -6.739  12.998  1.00  0.00     0.009 C 
ENDBRANCH   1  23
TORSDOF 4
ENDMDL
MODEL 2
REMARK VINA RESULT:      -8.7     13.424     16.743
REMARK  4 active torsions:
REMARK  status: ('A' for Active; 'I' for Inactive)
REMARK    1  A    between atoms: C1_8  and  N1_6 
REMARK       I    between atoms: C5_12  and  N1_6 
REMARK    2  A    between atoms: C14_21  and  N2_7 
REMARK    3  A    between atoms: C1_8  and  C2_9 
REMARK    4  A    between atoms: C5_12  and  C6_13 
ROOT
HETATM    1  C1  UNK     1      18.763   5.555  31.912  1.00  0.00     0.092 C 
HETATM    2  C3  UNK     1      17.778   5.412  33.083  1.00  0.00     0.053 C 
HETATM    3  C8  UNK     1      20.020   6.150  32.415  1.00  0.00    -0.086 C 
HETATM    4  C16 UNK     1      21.040   6.632  32.828  1.00  0.00     0.015 C 
ENDROOT
BRANCH   1   5
HETATM    5  N1  UNK     1      19.039   4.240  31.381  1.00  0.00    -0.337 N 
HETATM    6  C5  UNK     1      18.050   3.398  30.903  1.00  0.00     0.259 C 
HETATM    7  O2  UNK     1      16.846   3.641  30.863  1.00  0.00    -0.267 OA
HETATM    8  H3  UNK     1      20.002   3.918  31.399  1.00  0.00     0.164 HD
BRANCH   6   9
HETATM    9  C6  UNK     1      18.578   2.118  30.414  1.00  0.00     0.108 A 
HETATM   10  C11 UNK     1      18.551   1.755  28.979  1.00  0.00     0.304 A 
HETATM   11  O1  UNK     1      19.081   0.513  28.640  1.00  0.00    -0.274 OA
HETATM   12  O3  UNK     1      18.086   2.505  28.128  1.00  0.00    -0.259 OA
HETATM   13  C10 UNK     1      19.617  -0.358  29.609  1.00  0.00     0.089 A 
HETATM   14  C7  UNK     1      19.632   0.005  30.952  1.00  0.00     0.001 A 
HETATM   15  C13 UNK     1      20.125  -1.579  29.173  1.00  0.00     0.041 A 
HETATM   16  C12 UNK     1      20.172  -0.885  31.885  1.00  0.00     0.050 A 
HETATM   17  C9  UNK     1      19.086   1.297  31.339  1.00  0.00     0.037 A 
HETATM   18  C14 UNK     1      20.685  -2.115  31.462  1.00  0.00     0.103 A 
HETATM   19  C15 UNK     1      20.661  -2.461  30.109  1.00  0.00     0.039 A 
BRANCH  18  20
HETATM   20  N2  UNK     1      21.232  -3.017  32.412  1.00  0.00    -0.116 N 
HETATM   21  O4  UNK     1      21.485  -2.602  33.569  1.00  0.00    -0.532 OA
HETATM   22  O5  UNK     1      21.448  -4.204  32.068  1.00  0.00    -0.532 OA
ENDBRANCH  18  20
ENDBRANCH   6   9
ENDBRANCH   1   5
BRANCH   1  23
HETATM   23  C2  UNK     1      18.129   6.455  30.826  1.00  0.00     0.040 C 
HETATM   24  C4  UNK     1      17.088   7.446  31.343  1.00  0.00     0.009 C 
ENDBRANCH   1  23
TORSDOF 4
ENDMDL
MODEL 3
REMARK VINA RESULT:      -8.5     16.581     19.483
REMARK  4 active torsions:
REMARK  status: ('A' for Active; 'I' for Inactive)
REMARK    1  A    between atoms: C1_8  and  N1_6 
REMARK       I    between atoms: C5_12  and  N1_6 
REMARK    2  A    between atoms: C14_21  and  N2_7 
REMARK    3  A    between atoms: C1_8  and  C2_9 
REMARK    4  A    between atoms: C5_12  and  C6_13 
ROOT
HETATM    1  C1  UNK     1      16.700   6.978  32.389  1.00  0.00     0.092 C 
HETATM    2  C3  UNK     1      17.276   7.323  31.006  1.00  0.00     0.053 C 
HETATM    3  C8  UNK     1      15.236   7.187  32.363  1.00  0.00    -0.086 C 
HETATM    4  C16 UNK     1      14.047   7.357  32.337  1.00  0.00     0.015 C 
ENDROOT
BRANCH   1   5
HETATM    5  N1  UNK     1      16.977   5.587  32.666  1.00  0.00    -0.337 N 
HETATM    6  C5  UNK     1      18.247   5.044  32.599  1.00  0.00     0.259 C 
HETATM    7  O2  UNK     1      19.279   5.644  32.306  1.00  0.00    -0.267 OA
HETATM    8  H3  UNK     1      16.188   4.985  32.885  1.00  0.00     0.164 HD
BRANCH   6   9
HETATM    9  C6  UNK     1      18.274   3.613  32.927  1.00  0.00     0.108 A 
HETATM   10  C11 UNK     1      18.371   2.571  31.881  1.00  0.00     0.304 A 
HETATM   11  O1  UNK     1      18.387   1.248  32.317  1.00  0.00    -0.274 OA
HETATM   12  O3  UNK     1      18.434   2.851  30.689  1.00  0.00    -0.259 OA
HETATM   13  C10 UNK     1      18.313   0.915  33.683  1.00  0.00     0.089 A 
HETATM   14  C7  UNK     1      18.222   1.911  34.650  1.00  0.00     0.001 A 
HETATM   15  C13 UNK     1      18.336  -0.436  34.023  1.00  0.00     0.041 A 
HETATM   16  C12 UNK     1      18.152   1.541  35.995  1.00  0.00     0.050 A 
HETATM   17  C9  UNK     1      18.204   3.303  34.226  1.00  0.00     0.037 A 
HETATM   18  C14 UNK     1      18.174   0.190  36.351  1.00  0.00     0.103 A 
HETATM   19  C15 UNK     1      18.265  -0.797  35.366  1.00  0.00     0.039 A 
BRANCH  18  20
HETATM   20  N2  UNK     1      18.101  -0.183  37.719  1.00  0.00    -0.116 N 
HETATM   21  O4  UNK     1      17.970   0.713  38.587  1.00  0.00    -0.532 OA
HETATM   22  O5  UNK     1      18.170  -1.399  38.022  1.00  0.00    -0.532 OA
ENDBRANCH  18  20
ENDBRANCH   6   9
ENDBRANCH   1   5
BRANCH   1  23
HETATM   23  C2  UNK     1      17.362   7.884  33.452  1.00  0.00     0.040 C 
HETATM   24  C4  UNK     1      16.936   7.602  34.890  1.00  0.00     0.009 C 
ENDBRANCH   1  23
TORSDOF 4
ENDMDL
MODEL 4
REMARK VINA RESULT:      -8.3     16.966     19.889
REMARK  4 active torsions:
REMARK  status: ('A' for Active; 'I' for Inactive)
REMARK    1  A    between atoms: C1_8  and  N1_6 
REMARK       I    between atoms: C5_12  and  N1_6 
REMARK    2  A    between atoms: C14_21  and  N2_7 
REMARK    3  A    between atoms: C1_8  and  C2_9 
REMARK    4  A    between atoms: C5_12  and  C6_13 
ROOT
HETATM    1  C1  UNK     1      17.456   7.520  33.720  1.00  0.00     0.092 C 
HETATM    2  C3  UNK     1      16.388   7.972  34.727  1.00  0.00     0.053 C 
HETATM    3  C8  UNK     1      18.756   8.112  34.102  1.00  0.00    -0.086 C 
HETATM    4  C16 UNK     1      19.810   8.593  34.417  1.00  0.00     0.015 C 
ENDROOT
BRANCH   1   5
HETATM    5  N1  UNK     1      17.555   6.079  33.774  1.00  0.00    -0.337 N 
HETATM    6  C5  UNK     1      18.418   5.353  32.972  1.00  0.00     0.259 C 
HETATM    7  O2  UNK     1      19.191   5.812  32.134  1.00  0.00    -0.267 OA
HETATM    8  H3  UNK     1      16.932   5.588  34.408  1.00  0.00     0.164 HD
BRANCH   6   9
HETATM    9  C6  UNK     1      18.338   3.906  33.213  1.00  0.00     0.108 A 
HETATM   10  C11 UNK     1      18.292   2.928  32.103  1.00  0.00     0.304 A 
HETATM   11  O1  UNK     1      18.217   1.584  32.459  1.00  0.00    -0.274 OA
HETATM   12  O3  UNK     1      18.318   3.277  30.928  1.00  0.00    -0.259 OA
HETATM   13  C10 UNK     1      18.185   1.171  33.805  1.00  0.00     0.089 A 
HETATM   14  C7  UNK     1      18.229   2.108  34.832  1.00  0.00     0.001 A 
HETATM   15  C13 UNK     1      18.110  -0.196  34.062  1.00  0.00     0.041 A 
HETATM   16  C12 UNK     1      18.197   1.660  36.156  1.00  0.00     0.050 A 
HETATM   17  C9  UNK     1      18.309   3.521  34.493  1.00  0.00     0.037 A 
HETATM   18  C14 UNK     1      18.121   0.292  36.429  1.00  0.00     0.103 A 
HETATM   19  C15 UNK     1      18.077  -0.634  35.384  1.00  0.00     0.039 A 
BRANCH  18  20
HETATM   20  N2  UNK     1      18.087  -0.159  37.775  1.00  0.00    -0.116 N 
HETATM   21  O4  UNK     1      18.174  -1.389  38.006  1.00  0.00    -0.532 OA
HETATM   22  O5  UNK     1      17.970   0.684  38.696  1.00  0.00    -0.532 OA
ENDBRANCH  18  20
ENDBRANCH   6   9
ENDBRANCH   1   5
BRANCH   1  23
HETATM   23  C2  UNK     1      17.041   7.981  32.303  1.00  0.00     0.040 C 
HETATM   24  C4  UNK     1      15.645   7.540  31.870  1.00  0.00     0.009 C 
ENDBRANCH   1  23
TORSDOF 4
ENDMDL
MODEL 5
REMARK VINA RESULT:      -8.0     16.899     18.650
REMARK  4 active torsions:
REMARK  status: ('A' for Active; 'I' for Inactive)
REMARK    1  A    between atoms: C1_8  and  N1_6 
REMARK       I    between atoms: C5_12  and  N1_6 
REMARK    2  A    between atoms: C14_21  and  N2_7 
REMARK    3  A    between atoms: C1_8  and  C2_9 
REMARK    4  A    between atoms: C5_12  and  C6_13 
ROOT
HETATM    1  C1  UNK     1      17.328  -0.384  35.266  1.00  0.00     0.092 C 
HETATM    2  C3  UNK     1      16.130  -1.211  34.774  1.00  0.00     0.053 C 
HETATM    3  C8  UNK     1      18.558  -1.193  35.125  1.00  0.00    -0.086 C 
HETATM    4  C16 UNK     1      19.555  -1.852  35.007  1.00  0.00     0.015 C 
ENDROOT
BRANCH   1   5
HETATM    5  N1  UNK     1      17.439   0.798  34.442  1.00  0.00    -0.337 N 
HETATM    6  C5  UNK     1      18.422   1.754  34.624  1.00  0.00     0.259 C 
HETATM    7  O2  UNK     1      19.305   1.734  35.479  1.00  0.00    -0.267 OA
HETATM    8  H3  UNK     1      16.735   0.938  33.723  1.00  0.00     0.164 HD
BRANCH   6   9
HETATM    9  C6  UNK     1      18.328   2.859  33.662  1.00  0.00     0.108 A 
HETATM   10  C11 UNK     1      18.280   2.625  32.201  1.00  0.00     0.304 A 
HETATM   11  O1  UNK     1      18.192   3.754  31.390  1.00  0.00    -0.274 OA
HETATM   12  O3  UNK     1      18.317   1.497  31.722  1.00  0.00    -0.259 OA
HETATM   13  C10 UNK     1      18.151   5.055  31.929  1.00  0.00     0.089 A 
HETATM   14  C7  UNK     1      18.198   5.251  33.305  1.00  0.00     0.001 A 
HETATM   15  C13 UNK     1      18.063   6.122  31.038  1.00  0.00     0.041 A 
HETATM   16  C12 UNK     1      18.154   6.557  33.802  1.00  0.00     0.050 A 
HETATM   17  C9  UNK     1      18.289   4.092  34.179  1.00  0.00     0.037 A 
HETATM   18  C14 UNK     1      18.066   7.638  32.920  1.00  0.00     0.103 A 
HETATM   19  C15 UNK     1      18.020   7.421  31.541  1.00  0.00     0.039 A 
BRANCH  18  20
HETATM   20  N2  UNK     1      18.023   8.963  33.428  1.00  0.00    -0.116 N 
HETATM   21  O4  UNK     1      17.047   9.695  33.134  1.00  0.00    -0.532 OA
HETATM   22  O5  UNK     1      18.961   9.365  34.157  1.00  0.00    -0.532 OA
ENDBRANCH  18  20
ENDBRANCH   6   9
ENDBRANCH   1   5
BRANCH   1  23
HETATM   23  C2  UNK     1      17.098   0.007  36.744  1.00  0.00     0.040 C 
HETATM   24  C4  UNK     1      17.814  -0.879  37.760  1.00  0.00     0.009 C 
ENDBRANCH   1  23
TORSDOF 4
ENDMDL
MODEL 6
REMARK VINA RESULT:      -7.9     11.994     14.413
REMARK  4 active torsions:
REMARK  status: ('A' for Active; 'I' for Inactive)
REMARK    1  A    between atoms: C1_8  and  N1_6 
REMARK       I    between atoms: C5_12  and  N1_6 
REMARK    2  A    between atoms: C14_21  and  N2_7 
REMARK    3  A    between atoms: C1_8  and  C2_9 
REMARK    4  A    between atoms: C5_12  and  C6_13 
ROOT
HETATM    1  C1  UNK     1      16.203   8.031  10.152  1.00  0.00     0.092 C 
HETATM    2  C3  UNK     1      17.214   6.904   9.890  1.00  0.00     0.053 C 
HETATM    3  C8  UNK     1      16.767   9.304   9.653  1.00  0.00    -0.086 C 
HETATM    4  C16 UNK     1      17.227  10.336   9.244  1.00  0.00     0.015 C 
ENDROOT
BRANCH   1   5
HETATM    5  N1  UNK     1      14.987   7.734   9.430  1.00  0.00    -0.337 N 
HETATM    6  C5  UNK     1      14.275   6.560   9.605  1.00  0.00     0.259 C 
HETATM    7  O2  UNK     1      14.565   5.642  10.369  1.00  0.00    -0.267 OA
HETATM    8  H3  UNK     1      14.672   8.409   8.740  1.00  0.00     0.164 HD
BRANCH   6   9
HETATM    9  C6  UNK     1      13.075   6.490   8.762  1.00  0.00     0.108 A 
HETATM   10  C11 UNK     1      13.092   6.894   7.338  1.00  0.00     0.304 A 
HETATM   11  O1  UNK     1      11.890   6.783   6.643  1.00  0.00    -0.274 OA
HETATM   12  O3  UNK     1      14.109   7.307   6.792  1.00  0.00    -0.259 OA
HETATM   13  C10 UNK     1      10.715   6.311   7.261  1.00  0.00     0.089 A 
HETATM   14  C7  UNK     1      10.722   5.937   8.601  1.00  0.00     0.001 A 
HETATM   15  C13 UNK     1       9.561   6.235   6.484  1.00  0.00     0.041 A 
HETATM   16  C12 UNK     1       9.537   5.473   9.177  1.00  0.00     0.050 A 
HETATM   17  C9  UNK     1      11.963   6.041   9.354  1.00  0.00     0.037 A 
HETATM   18  C14 UNK     1       8.372   5.392   8.410  1.00  0.00     0.103 A 
HETATM   19  C15 UNK     1       8.384   5.772   7.067  1.00  0.00     0.039 A 
BRANCH  18  20
HETATM   20  N2  UNK     1       7.169   4.921   9.000  1.00  0.00    -0.116 N 
HETATM   21  O4  UNK     1       6.484   5.708   9.696  1.00  0.00    -0.532 OA
HETATM   22  O5  UNK     1       6.824   3.730   8.808  1.00  0.00    -0.532 OA
ENDBRANCH  18  20
ENDBRANCH   6   9
ENDBRANCH   1   5
BRANCH   1  23
HETATM   23  C2  UNK     1      15.924   8.116  11.670  1.00  0.00     0.040 C 
HETATM   24  C4  UNK     1      14.869   9.145  12.071  1.00  0.00     0.009 C 
ENDBRANCH   1  23
TORSDOF 4
ENDMDL
MODEL 7
REMARK VINA RESULT:      -7.8     17.071     19.700
REMARK  4 active torsions:
REMARK  status: ('A' for Active; 'I' for Inactive)
REMARK    1  A    between atoms: C1_8  and  N1_6 
REMARK       I    between atoms: C5_12  and  N1_6 
REMARK    2  A    between atoms: C14_21  and  N2_7 
REMARK    3  A    between atoms: C1_8  and  C2_9 
REMARK    4  A    between atoms: C5_12  and  C6_13 
ROOT
HETATM    1  C1  UNK     1      18.909  -5.951  36.691  1.00  0.00     0.092 C 
HETATM    2  C3  UNK     1      17.546  -6.652  36.793  1.00  0.00     0.053 C 
HETATM    3  C8  UNK     1      19.631  -6.478  35.512  1.00  0.00    -0.086 C 
HETATM    4  C16 UNK     1      20.214  -6.907  34.554  1.00  0.00     0.015 C 
ENDROOT
BRANCH   1   5
HETATM    5  N1  UNK     1      18.684  -4.534  36.516  1.00  0.00    -0.337 N 
HETATM    6  C5  UNK     1      19.712  -3.611  36.445  1.00  0.00     0.259 C 
HETATM    7  O2  UNK     1      20.914  -3.855  36.517  1.00  0.00    -0.267 OA
HETATM    8  H3  UNK     1      17.721  -4.211  36.481  1.00  0.00     0.164 HD
BRANCH   6   9
HETATM    9  C6  UNK     1      19.231  -2.235  36.263  1.00  0.00     0.108 A 
HETATM   10  C11 UNK     1      18.774  -1.407  37.401  1.00  0.00     0.304 A 
HETATM   11  O1  UNK     1      18.340  -0.118  37.101  1.00  0.00    -0.274 OA
HETATM   12  O3  UNK     1      18.773  -1.829  38.552  1.00  0.00    -0.259 OA
HETATM   13  C10 UNK     1      18.335   0.377  35.782  1.00  0.00     0.089 A 
HETATM   14  C7  UNK     1      18.770  -0.419  34.727  1.00  0.00     0.001 A 
HETATM   15  C13 UNK     1      17.884   1.679  35.580  1.00  0.00     0.041 A 
HETATM   16  C12 UNK     1      18.751   0.107  33.433  1.00  0.00     0.050 A 
HETATM   17  C9  UNK     1      19.229  -1.771  35.008  1.00  0.00     0.037 A 
HETATM   18  C14 UNK     1      18.300   1.412  33.215  1.00  0.00     0.103 A 
HETATM   19  C15 UNK     1      17.867   2.196  34.287  1.00  0.00     0.039 A 
BRANCH  18  20
HETATM   20  N2  UNK     1      18.281   1.943  31.899  1.00  0.00    -0.116 N 
HETATM   21  O4  UNK     1      17.683   3.025  31.688  1.00  0.00    -0.532 OA
HETATM   22  O5  UNK     1      18.864   1.316  30.982  1.00  0.00    -0.532 OA
ENDBRANCH  18  20
ENDBRANCH   6   9
ENDBRANCH   1   5
BRANCH   1  23
HETATM   23  C2  UNK     1      19.711  -6.215  37.986  1.00  0.00     0.040 C 
HETATM   24  C4  UNK     1      20.197  -7.652  38.157  1.00  0.00     0.009 C 
ENDBRANCH   1  23
TORSDOF 4
ENDMDL
MODEL 8
REMARK VINA RESULT:      -7.8     18.438     20.039
REMARK  4 active torsions:
REMARK  status: ('A' for Active; 'I' for Inactive)
REMARK    1  A    between atoms: C1_8  and  N1_6 
REMARK       I    between atoms: C5_12  and  N1_6 
REMARK    2  A    between atoms: C14_21  and  N2_7 
REMARK    3  A    between atoms: C1_8  and  C2_9 
REMARK    4  A    between atoms: C5_12  and  C6_13 
ROOT
HETATM    1  C1  UNK     1      19.622  -6.963  36.583  1.00  0.00     0.092 C 
HETATM    2  C3  UNK     1      20.947  -7.433  35.962  1.00  0.00     0.053 C 
HETATM    3  C8  UNK     1      19.772  -6.921  38.054  1.00  0.00    -0.086 C 
HETATM    4  C16 UNK     1      19.898  -6.887  39.248  1.00  0.00     0.015 C 
ENDROOT
BRANCH   1   5
HETATM    5  N1  UNK     1      19.335  -5.632  36.097  1.00  0.00    -0.337 N 
HETATM    6  C5  UNK     1      20.175  -4.554  36.311  1.00  0.00     0.259 C 
HETATM    7  O2  UNK     1      21.243  -4.574  36.920  1.00  0.00    -0.267 OA
HETATM    8  H3  UNK     1      18.456  -5.490  35.608  1.00  0.00     0.164 HD
BRANCH   6   9
HETATM    9  C6  UNK     1      19.669  -3.310  35.718  1.00  0.00     0.108 A 
HETATM   10  C11 UNK     1      20.135  -2.821  34.401  1.00  0.00     0.304 A 
HETATM   11  O1  UNK     1      19.581  -1.628  33.946  1.00  0.00    -0.274 OA
HETATM   12  O3  UNK     1      20.969  -3.431  33.741  1.00  0.00    -0.259 OA
HETATM   13  C10 UNK     1      18.624  -0.917  34.697  1.00  0.00     0.089 A 
HETATM   14  C7  UNK     1      18.200  -1.395  35.933  1.00  0.00     0.001 A 
HETATM   15  C13 UNK     1      18.127   0.267  34.159  1.00  0.00     0.041 A 
HETATM   16  C12 UNK     1      17.249  -0.663  36.648  1.00  0.00     0.050 A 
HETATM   17  C9  UNK     1      18.760  -2.640  36.436  1.00  0.00     0.037 A 
HETATM   18  C14 UNK     1      16.741   0.527  36.121  1.00  0.00     0.103 A 
HETATM   19  C15 UNK     1      17.179   0.991  34.878  1.00  0.00     0.039 A 
BRANCH  18  20
HETATM   20  N2  UNK     1      15.775   1.269  36.851  1.00  0.00    -0.116 N 
HETATM   21  O4  UNK     1      16.166   2.125  37.680  1.00  0.00    -0.532 OA
HETATM   22  O5  UNK     1      14.557   1.048  36.647  1.00  0.00    -0.532 OA
ENDBRANCH  18  20
ENDBRANCH   6   9
ENDBRANCH   1   5
BRANCH   1  23
HETATM   23  C2  UNK     1      18.498  -7.942  36.176  1.00  0.00     0.040 C 
HETATM   24  C4  UNK     1      17.327  -7.301  35.434  1.00  0.00     0.009 C 
ENDBRANCH   1  23
TORSDOF 4
ENDMDL
MODEL 9
REMARK VINA RESULT:      -7.7     19.100     21.780
REMARK  4 active torsions:
REMARK  status: ('A' for Active; 'I' for Inactive)
REMARK    1  A    between atoms: C1_8  and  N1_6 
REMARK       I    between atoms: C5_12  and  N1_6 
REMARK    2  A    between atoms: C14_21  and  N2_7 
REMARK    3  A    between atoms: C1_8  and  C2_9 
REMARK    4  A    between atoms: C5_12  and  C6_13 
ROOT
HETATM    1  C1  UNK     1      18.040  -0.858  36.242  1.00  0.00     0.092 C 
HETATM    2  C3  UNK     1      19.087   0.136  35.716  1.00  0.00     0.053 C 
HETATM    3  C8  UNK     1      16.773  -0.652  35.508  1.00  0.00    -0.086 C 
HETATM    4  C16 UNK     1      15.746  -0.483  34.909  1.00  0.00     0.015 C 
ENDROOT
BRANCH   1   5
HETATM    5  N1  UNK     1      18.519  -2.199  35.998  1.00  0.00    -0.337 N 
HETATM    6  C5  UNK     1      19.369  -2.865  36.863  1.00  0.00     0.259 C 
HETATM    7  O2  UNK     1      19.819  -2.428  37.920  1.00  0.00    -0.267 OA
HETATM    8  H3  UNK     1      18.239  -2.648  35.131  1.00  0.00     0.164 HD
BRANCH   6   9
HETATM    9  C6  UNK     1      19.712  -4.215  36.399  1.00  0.00     0.108 A 
HETATM   10  C11 UNK     1      20.257  -4.465  35.046  1.00  0.00     0.304 A 
HETATM   11  O1  UNK     1      20.542  -5.789  34.722  1.00  0.00    -0.274 OA
HETATM   12  O3  UNK     1      20.448  -3.556  34.245  1.00  0.00    -0.259 OA
HETATM   13  C10 UNK     1      20.324  -6.841  35.633  1.00  0.00     0.089 A 
HETATM   14  C7  UNK     1      19.811  -6.583  36.900  1.00  0.00     0.001 A 
HETATM   15  C13 UNK     1      20.641  -8.133  35.218  1.00  0.00     0.041 A 
HETATM   16  C12 UNK     1      19.609  -7.653  37.776  1.00  0.00     0.050 A 
HETATM   17  C9  UNK     1      19.503  -5.210  37.268  1.00  0.00     0.037 A 
HETATM   18  C14 UNK     1      19.922  -8.955  37.373  1.00  0.00     0.103 A 
HETATM   19  C15 UNK     1      20.436  -9.194  36.097  1.00  0.00     0.039 A 
BRANCH  18  20
HETATM   20  N2  UNK     1      19.715 -10.039  38.266  1.00  0.00    -0.116 N 
HETATM   21  O4  UNK     1      19.410 -11.163  37.798  1.00  0.00    -0.532 OA
HETATM   22  O5  UNK     1      19.842  -9.845  39.499  1.00  0.00    -0.532 OA
ENDBRANCH  18  20
ENDBRANCH   6   9
ENDBRANCH   1   5
BRANCH   1  23
HETATM   23  C2  UNK     1      17.838  -0.623  37.757  1.00  0.00     0.040 C 
HETATM   24  C4  UNK     1      17.634   0.836  38.158  1.00  0.00     0.009 C 
ENDBRANCH   1  23
TORSDOF 4
ENDMDL
MODEL 10
REMARK VINA RESULT:      -7.7     16.360     19.036
REMARK  4 active torsions:
REMARK  status: ('A' for Active; 'I' for Inactive)
REMARK    1  A    between atoms: C1_8  and  N1_6 
REMARK       I    between atoms: C5_12  and  N1_6 
REMARK    2  A    between atoms: C14_21  and  N2_7 
REMARK    3  A    between atoms: C1_8  and  C2_9 
REMARK    4  A    between atoms: C5_12  and  C6_13 
ROOT
HETATM    1  C1  UNK     1      19.464  -6.251  36.957  1.00  0.00     0.092 C 
HETATM    2  C3  UNK     1      18.094  -6.894  37.224  1.00  0.00     0.053 C 
HETATM    3  C8  UNK     1      20.268  -7.169  36.122  1.00  0.00    -0.086 C 
HETATM    4  C16 UNK     1      20.919  -7.916  35.443  1.00  0.00     0.015 C 
ENDROOT
BRANCH   1   5
HETATM    5  N1  UNK     1      19.256  -5.014  36.239  1.00  0.00    -0.337 N 
HETATM    6  C5  UNK     1      20.204  -4.008  36.183  1.00  0.00     0.259 C 
HETATM    7  O2  UNK     1      21.313  -4.023  36.714  1.00  0.00    -0.267 OA
HETATM    8  H3  UNK     1      18.355  -4.875  35.791  1.00  0.00     0.164 HD
BRANCH   6   9
HETATM    9  C6  UNK     1      19.763  -2.852  35.392  1.00  0.00     0.108 A 
HETATM   10  C11 UNK     1      18.906  -1.790  35.965  1.00  0.00     0.304 A 
HETATM   11  O1  UNK     1      18.553  -0.746  35.115  1.00  0.00    -0.274 OA
HETATM   12  O3  UNK     1      18.522  -1.824  37.129  1.00  0.00    -0.259 OA
HETATM   13  C10 UNK     1      18.987  -0.697  33.776  1.00  0.00     0.089 A 
HETATM   14  C7  UNK     1      19.792  -1.707  33.258  1.00  0.00     0.001 A 
HETATM   15  C13 UNK     1      18.582   0.388  33.002  1.00  0.00     0.041 A 
HETATM   16  C12 UNK     1      20.203  -1.623  31.925  1.00  0.00     0.050 A 
HETATM   17  C9  UNK     1      20.179  -2.812  34.121  1.00  0.00     0.037 A 
HETATM   18  C14 UNK     1      19.805  -0.540  31.137  1.00  0.00     0.103 A 
HETATM   19  C15 UNK     1      18.996   0.463  31.674  1.00  0.00     0.039 A 
BRANCH  18  20
HETATM   20  N2  UNK     1      20.223  -0.459  29.782  1.00  0.00    -0.116 N 
HETATM   21  O4  UNK     1      19.907   0.549  29.107  1.00  0.00    -0.532 OA
HETATM   22  O5  UNK     1      20.899  -1.399  29.298  1.00  0.00    -0.532 OA
ENDBRANCH  18  20
ENDBRANCH   6   9
ENDBRANCH   1   5
BRANCH   1  23
HETATM   23  C2  UNK     1      20.167  -5.981  38.307  1.00  0.00     0.040 C 
HETATM   24  C4  UNK     1      20.110  -7.139  39.302  1.00  0.00     0.009 C 
ENDBRANCH   1  23
TORSDOF 4
ENDMDL
