MODEL 1
REMARK VINA RESULT:      -7.6      0.000      0.000
REMARK  4 active torsions:
REMARK  status: ('A' for Active; 'I' for Inactive)
REMARK    1  A    between atoms: C8_13  and  O2_2 
REMARK    2  A    between atoms: C9_14  and  O3_3 
REMARK    3  A    between atoms: C15_20  and  O5_5 
REMARK    4  A    between atoms: C2_7  and  C5_10 
ROOT
HETATM    1  O1  UNK     1      19.512   8.173  33.536  1.00  0.00    -0.321 OA
HETATM    2  O4  UNK     1      15.992   6.534  32.284  1.00  0.00    -0.286 OA
HETATM    3  C1  UNK     1      17.123   8.397  33.173  1.00  0.00     0.052 A 
HETATM    4  C2  UNK     1      18.341   6.276  32.573  1.00  0.00     0.048 A 
HETATM    5  C3  UNK     1      18.353   8.902  33.596  1.00  0.00     0.092 A 
HETATM    6  C4  UNK     1      17.056   7.024  32.640  1.00  0.00     0.198 A 
HETATM    7  C6  UNK     1      15.973   9.186  33.258  1.00  0.00     0.058 A 
HETATM    8  C7  UNK     1      18.438  10.197  34.108  1.00  0.00     0.077 A 
HETATM    9  C8  UNK     1      16.061  10.482  33.770  1.00  0.00     0.102 A 
HETATM   10  C9  UNK     1      17.291  10.985  34.194  1.00  0.00     0.104 A 
HETATM   11  C10 UNK     1      19.441   6.902  33.018  1.00  0.00     0.159 A 
ENDROOT
BRANCH   4  12
HETATM   12  C5  UNK     1      18.421   4.912  32.026  1.00  0.00    -0.020 A 
HETATM   13  C11 UNK     1      18.140   3.812  32.840  1.00  0.00     0.015 A 
HETATM   14  C13 UNK     1      18.216   2.519  32.321  1.00  0.00     0.037 A 
HETATM   15  C15 UNK     1      18.572   2.324  30.986  1.00  0.00     0.068 A 
HETATM   16  C14 UNK     1      18.853   3.420  30.172  1.00  0.00     0.037 A 
HETATM   17  C12 UNK     1      18.778   4.713  30.690  1.00  0.00     0.015 A 
BRANCH  15  18
HETATM   18  O5  UNK     1      18.645   1.062  30.481  1.00  0.00    -0.356 OA
HETATM   19  C18 UNK     1      19.101   0.928  29.135  1.00  0.00     0.210 C 
ENDBRANCH  15  18
ENDBRANCH   4  12
BRANCH   9  20
HETATM   20  O2  UNK     1      14.937  11.246  33.849  1.00  0.00    -0.353 OA
HETATM   21  C16 UNK     1      13.794  10.798  33.123  1.00  0.00     0.210 C 
ENDBRANCH   9  20
BRANCH  10  22
HETATM   22  O3  UNK     1      17.385  12.251  34.693  1.00  0.00    -0.353 OA
HETATM   23  C17 UNK     1      18.091  13.206  33.904  1.00  0.00     0.210 C 
ENDBRANCH  10  22
TORSDOF 4
ENDMDL
MODEL 2
REMARK VINA RESULT:      -7.6     13.919     18.369
REMARK  4 active torsions:
REMARK  status: ('A' for Active; 'I' for Inactive)
REMARK    1  A    between atoms: C8_13  and  O2_2 
REMARK    2  A    between atoms: C9_14  and  O3_3 
REMARK    3  A    between atoms: C15_20  and  O5_5 
REMARK    4  A    between atoms: C2_7  and  C5_10 
ROOT
HETATM    1  O1  UNK     1      18.318  -1.265  18.001  1.00  0.00    -0.321 OA
HETATM    2  O4  UNK     1      19.612   1.023  14.880  1.00  0.00    -0.286 OA
HETATM    3  C1  UNK     1      19.123   0.871  17.178  1.00  0.00     0.052 A 
HETATM    4  C2  UNK     1      18.874  -1.109  15.642  1.00  0.00     0.048 A 
HETATM    5  C3  UNK     1      18.665   0.045  18.205  1.00  0.00     0.092 A 
HETATM    6  C4  UNK     1      19.241   0.323  15.814  1.00  0.00     0.198 A 
HETATM    7  C6  UNK     1      19.463   2.200  17.445  1.00  0.00     0.058 A 
HETATM    8  C7  UNK     1      18.542   0.544  19.502  1.00  0.00     0.077 A 
HETATM    9  C8  UNK     1      19.339   2.697  18.743  1.00  0.00     0.102 A 
HETATM   10  C9  UNK     1      18.880   1.871  19.769  1.00  0.00     0.104 A 
HETATM   11  C10 UNK     1      18.452  -1.771  16.730  1.00  0.00     0.159 A 
ENDROOT
BRANCH   4  12
HETATM   12  C5  UNK     1      18.982  -1.790  14.342  1.00  0.00    -0.020 A 
HETATM   13  C11 UNK     1      19.176  -1.047  13.175  1.00  0.00     0.015 A 
HETATM   14  C13 UNK     1      19.279  -1.693  11.942  1.00  0.00     0.037 A 
HETATM   15  C15 UNK     1      19.189  -3.084  11.875  1.00  0.00     0.068 A 
HETATM   16  C14 UNK     1      18.997  -3.828  13.038  1.00  0.00     0.037 A 
HETATM   17  C12 UNK     1      18.894  -3.182  14.271  1.00  0.00     0.015 A 
BRANCH  15  18
HETATM   18  O5  UNK     1      19.291  -3.713  10.672  1.00  0.00    -0.356 OA
HETATM   19  C18 UNK     1      19.265  -5.140  10.682  1.00  0.00     0.210 C 
ENDBRANCH  15  18
ENDBRANCH   4  12
BRANCH   9  20
HETATM   20  O2  UNK     1      19.673   3.992  18.997  1.00  0.00    -0.353 OA
HETATM   21  C16 UNK     1      20.916   4.457  18.473  1.00  0.00     0.210 C 
ENDBRANCH   9  20
BRANCH  10  22
HETATM   22  O3  UNK     1      18.759   2.348  21.040  1.00  0.00    -0.353 OA
HETATM   23  C17 UNK     1      19.868   2.147  21.914  1.00  0.00     0.210 C 
ENDBRANCH  10  22
TORSDOF 4
ENDMDL
MODEL 3
REMARK VINA RESULT:      -7.6      1.661      8.435
REMARK  4 active torsions:
REMARK  status: ('A' for Active; 'I' for Inactive)
REMARK    1  A    between atoms: C8_13  and  O2_2 
REMARK    2  A    between atoms: C9_14  and  O3_3 
REMARK    3  A    between atoms: C15_20  and  O5_5 
REMARK    4  A    between atoms: C2_7  and  C5_10 
ROOT
HETATM    1  O1  UNK     1      18.833   4.582  29.628  1.00  0.00    -0.321 OA
HETATM    2  O4  UNK     1      17.968   4.310  33.607  1.00  0.00    -0.286 OA
HETATM    3  C1  UNK     1      18.538   3.207  31.606  1.00  0.00     0.052 A 
HETATM    4  C2  UNK     1      18.294   5.712  31.709  1.00  0.00     0.048 A 
HETATM    5  C3  UNK     1      18.816   3.359  30.248  1.00  0.00     0.092 A 
HETATM    6  C4  UNK     1      18.245   4.403  32.418  1.00  0.00     0.198 A 
HETATM    7  C6  UNK     1      18.534   1.935  32.185  1.00  0.00     0.058 A 
HETATM    8  C7  UNK     1      19.091   2.241  29.461  1.00  0.00     0.077 A 
HETATM    9  C8  UNK     1      18.811   0.818  31.395  1.00  0.00     0.102 A 
HETATM   10  C9  UNK     1      19.088   0.970  30.037  1.00  0.00     0.104 A 
HETATM   11  C10 UNK     1      18.580   5.692  30.399  1.00  0.00     0.159 A 
ENDROOT
BRANCH   4  12
HETATM   12  C5  UNK     1      18.061   6.986  32.409  1.00  0.00    -0.020 A 
HETATM   13  C11 UNK     1      19.041   7.512  33.253  1.00  0.00     0.015 A 
HETATM   14  C13 UNK     1      18.820   8.719  33.916  1.00  0.00     0.037 A 
HETATM   15  C15 UNK     1      17.618   9.403  33.735  1.00  0.00     0.068 A 
HETATM   16  C14 UNK     1      16.637   8.880  32.893  1.00  0.00     0.037 A 
HETATM   17  C12 UNK     1      16.859   7.672  32.230  1.00  0.00     0.015 A 
BRANCH  15  18
HETATM   18  O5  UNK     1      17.402  10.582  34.382  1.00  0.00    -0.356 OA
HETATM   19  C18 UNK     1      18.312  11.647  34.110  1.00  0.00     0.210 C 
ENDBRANCH  15  18
ENDBRANCH   4  12
BRANCH   9  20
HETATM   20  O2  UNK     1      18.808  -0.420  31.965  1.00  0.00    -0.353 OA
HETATM   21  C16 UNK     1      18.489  -0.494  33.354  1.00  0.00     0.210 C 
ENDBRANCH   9  20
BRANCH  10  22
HETATM   22  O3  UNK     1      19.361  -0.117  29.261  1.00  0.00    -0.353 OA
HETATM   23  C17 UNK     1      20.725  -0.527  29.179  1.00  0.00     0.210 C 
ENDBRANCH  10  22
TORSDOF 4
ENDMDL
MODEL 4
REMARK VINA RESULT:      -7.6      1.285      1.777
REMARK  4 active torsions:
REMARK  status: ('A' for Active; 'I' for Inactive)
REMARK    1  A    between atoms: C8_13  and  O2_2 
REMARK    2  A    between atoms: C9_14  and  O3_3 
REMARK    3  A    between atoms: C15_20  and  O5_5 
REMARK    4  A    between atoms: C2_7  and  C5_10 
ROOT
HETATM    1  O1  UNK     1      18.398   9.024  33.920  1.00  0.00    -0.321 OA
HETATM    2  O4  UNK     1      15.483   7.362  31.598  1.00  0.00    -0.286 OA
HETATM    3  C1  UNK     1      16.149   9.121  33.014  1.00  0.00     0.052 A 
HETATM    4  C2  UNK     1      17.716   7.242  32.418  1.00  0.00     0.048 A 
HETATM    5  C3  UNK     1      17.178   9.638  33.801  1.00  0.00     0.092 A 
HETATM    6  C4  UNK     1      16.370   7.863  32.277  1.00  0.00     0.198 A 
HETATM    7  C6  UNK     1      14.925   9.790  32.931  1.00  0.00     0.058 A 
HETATM    8  C7  UNK     1      16.988  10.824  34.510  1.00  0.00     0.077 A 
HETATM    9  C8  UNK     1      14.737  10.977  33.641  1.00  0.00     0.102 A 
HETATM   10  C9  UNK     1      15.767  11.493  34.428  1.00  0.00     0.104 A 
HETATM   11  C10 UNK     1      18.601   7.864  33.212  1.00  0.00     0.159 A 
ENDROOT
BRANCH   4  12
HETATM   12  C5  UNK     1      18.082   6.007  31.706  1.00  0.00    -0.020 A 
HETATM   13  C11 UNK     1      18.730   6.075  30.470  1.00  0.00     0.015 A 
HETATM   14  C13 UNK     1      19.077   4.905  29.795  1.00  0.00     0.037 A 
HETATM   15  C15 UNK     1      18.777   3.663  30.356  1.00  0.00     0.068 A 
HETATM   16  C14 UNK     1      18.131   3.592  31.589  1.00  0.00     0.037 A 
HETATM   17  C12 UNK     1      17.784   4.762  32.264  1.00  0.00     0.015 A 
BRANCH  15  18
HETATM   18  O5  UNK     1      19.117   2.521  29.698  1.00  0.00    -0.356 OA
HETATM   19  C18 UNK     1      18.134   1.954  28.832  1.00  0.00     0.210 C 
ENDBRANCH  15  18
ENDBRANCH   4  12
BRANCH   9  20
HETATM   20  O2  UNK     1      13.543  11.625  33.554  1.00  0.00    -0.353 OA
HETATM   21  C16 UNK     1      13.244  12.274  32.319  1.00  0.00     0.210 C 
ENDBRANCH   9  20
BRANCH  10  22
HETATM   22  O3  UNK     1      15.592  12.653  35.122  1.00  0.00    -0.353 OA
HETATM   23  C17 UNK     1      16.758  13.255  35.680  1.00  0.00     0.210 C 
ENDBRANCH  10  22
TORSDOF 4
ENDMDL
MODEL 5
REMARK VINA RESULT:      -7.5      1.973      8.834
REMARK  4 active torsions:
REMARK  status: ('A' for Active; 'I' for Inactive)
REMARK    1  A    between atoms: C8_13  and  O2_2 
REMARK    2  A    between atoms: C9_14  and  O3_3 
REMARK    3  A    between atoms: C15_20  and  O5_5 
REMARK    4  A    between atoms: C2_7  and  C5_10 
ROOT
HETATM    1  O1  UNK     1      18.351   2.149  33.512  1.00  0.00    -0.321 OA
HETATM    2  O4  UNK     1      18.785   4.514  30.215  1.00  0.00    -0.286 OA
HETATM    3  C1  UNK     1      18.897   2.359  31.157  1.00  0.00     0.052 A 
HETATM    4  C2  UNK     1      18.191   4.358  32.516  1.00  0.00     0.048 A 
HETATM    5  C3  UNK     1      18.742   1.602  32.318  1.00  0.00     0.092 A 
HETATM    6  C4  UNK     1      18.633   3.809  31.205  1.00  0.00     0.198 A 
HETATM    7  C6  UNK     1      19.299   1.747  29.967  1.00  0.00     0.058 A 
HETATM    8  C7  UNK     1      18.991   0.229  32.296  1.00  0.00     0.077 A 
HETATM    9  C8  UNK     1      19.546   0.374  29.947  1.00  0.00     0.102 A 
HETATM   10  C9  UNK     1      19.393  -0.383  31.108  1.00  0.00     0.104 A 
HETATM   11  C10 UNK     1      18.088   3.498  33.540  1.00  0.00     0.159 A 
ENDROOT
BRANCH   4  12
HETATM   12  C5  UNK     1      17.857   5.781  32.693  1.00  0.00    -0.020 A 
HETATM   13  C11 UNK     1      18.827   6.678  33.147  1.00  0.00     0.015 A 
HETATM   14  C13 UNK     1      18.511   8.026  33.314  1.00  0.00     0.037 A 
HETATM   15  C15 UNK     1      17.224   8.481  33.025  1.00  0.00     0.068 A 
HETATM   16  C14 UNK     1      16.254   7.588  32.571  1.00  0.00     0.037 A 
HETATM   17  C12 UNK     1      16.571   6.240  32.404  1.00  0.00     0.015 A 
BRANCH  15  18
HETATM   18  O5  UNK     1      16.916   9.797  33.187  1.00  0.00    -0.356 OA
HETATM   19  C18 UNK     1      16.043  10.132  34.265  1.00  0.00     0.210 C 
ENDBRANCH  15  18
ENDBRANCH   4  12
BRANCH   9  20
HETATM   20  O2  UNK     1      19.936  -0.218  28.784  1.00  0.00    -0.353 OA
HETATM   21  C16 UNK     1      18.920  -0.486  27.820  1.00  0.00     0.210 C 
ENDBRANCH   9  20
BRANCH  10  22
HETATM   22  O3  UNK     1      19.630  -1.725  31.096  1.00  0.00    -0.353 OA
HETATM   23  C17 UNK     1      20.710  -2.199  31.899  1.00  0.00     0.210 C 
ENDBRANCH  10  22
TORSDOF 4
ENDMDL
MODEL 6
REMARK VINA RESULT:      -7.5      1.447      8.176
REMARK  4 active torsions:
REMARK  status: ('A' for Active; 'I' for Inactive)
REMARK    1  A    between atoms: C8_13  and  O2_2 
REMARK    2  A    between atoms: C9_14  and  O3_3 
REMARK    3  A    between atoms: C15_20  and  O5_5 
REMARK    4  A    between atoms: C2_7  and  C5_10 
ROOT
HETATM    1  O1  UNK     1      18.683   5.265  30.186  1.00  0.00    -0.321 OA
HETATM    2  O4  UNK     1      17.592   5.149  34.116  1.00  0.00    -0.286 OA
HETATM    3  C1  UNK     1      18.298   3.972  32.204  1.00  0.00     0.052 A 
HETATM    4  C2  UNK     1      18.003   6.473  32.180  1.00  0.00     0.048 A 
HETATM    5  C3  UNK     1      18.653   4.071  30.859  1.00  0.00     0.092 A 
HETATM    6  C4  UNK     1      17.937   5.196  32.942  1.00  0.00     0.198 A 
HETATM    7  C6  UNK     1      18.284   2.727  32.838  1.00  0.00     0.058 A 
HETATM    8  C7  UNK     1      18.994   2.925  30.139  1.00  0.00     0.077 A 
HETATM    9  C8  UNK     1      18.626   1.582  32.117  1.00  0.00     0.102 A 
HETATM   10  C9  UNK     1      18.980   1.681  30.771  1.00  0.00     0.104 A 
HETATM   11  C10 UNK     1      18.365   6.402  30.891  1.00  0.00     0.159 A 
ENDROOT
BRANCH   4  12
HETATM   12  C5  UNK     1      17.706   7.772  32.807  1.00  0.00    -0.020 A 
HETATM   13  C11 UNK     1      16.419   8.310  32.730  1.00  0.00     0.015 A 
HETATM   14  C13 UNK     1      16.137   9.540  33.324  1.00  0.00     0.037 A 
HETATM   15  C15 UNK     1      17.142  10.234  33.999  1.00  0.00     0.068 A 
HETATM   16  C14 UNK     1      18.427   9.699  34.078  1.00  0.00     0.037 A 
HETATM   17  C12 UNK     1      18.709   8.468  33.483  1.00  0.00     0.015 A 
BRANCH  15  18
HETATM   18  O5  UNK     1      16.866  11.434  34.580  1.00  0.00    -0.356 OA
HETATM   19  C18 UNK     1      17.876  12.439  34.504  1.00  0.00     0.210 C 
ENDBRANCH  15  18
ENDBRANCH   4  12
BRANCH   9  20
HETATM   20  O2  UNK     1      18.613   0.371  32.740  1.00  0.00    -0.353 OA
HETATM   21  C16 UNK     1      18.196   0.349  34.104  1.00  0.00     0.210 C 
ENDBRANCH   9  20
BRANCH  10  22
HETATM   22  O3  UNK     1      19.318   0.567  30.061  1.00  0.00    -0.353 OA
HETATM   23  C17 UNK     1      19.018   0.573  28.667  1.00  0.00     0.210 C 
ENDBRANCH  10  22
TORSDOF 4
ENDMDL
MODEL 7
REMARK VINA RESULT:      -7.5      2.245      8.809
REMARK  4 active torsions:
REMARK  status: ('A' for Active; 'I' for Inactive)
REMARK    1  A    between atoms: C8_13  and  O2_2 
REMARK    2  A    between atoms: C9_14  and  O3_3 
REMARK    3  A    between atoms: C15_20  and  O5_5 
REMARK    4  A    between atoms: C2_7  and  C5_10 
ROOT
HETATM    1  O1  UNK     1      19.023   2.816  30.270  1.00  0.00    -0.321 OA
HETATM    2  O4  UNK     1      17.876   3.456  34.134  1.00  0.00    -0.286 OA
HETATM    3  C1  UNK     1      18.593   1.931  32.489  1.00  0.00     0.052 A 
HETATM    4  C2  UNK     1      18.332   4.386  31.990  1.00  0.00     0.048 A 
HETATM    5  C3  UNK     1      18.967   1.771  31.155  1.00  0.00     0.092 A 
HETATM    6  C4  UNK     1      18.238   3.277  32.978  1.00  0.00     0.198 A 
HETATM    7  C6  UNK     1      18.554   0.829  33.345  1.00  0.00     0.058 A 
HETATM    8  C7  UNK     1      19.303   0.506  30.670  1.00  0.00     0.077 A 
HETATM    9  C8  UNK     1      18.890  -0.436  32.859  1.00  0.00     0.102 A 
HETATM   10  C9  UNK     1      19.264  -0.596  31.524  1.00  0.00     0.104 A 
HETATM   11  C10 UNK     1      18.710   4.069  30.743  1.00  0.00     0.159 A 
ENDROOT
BRANCH   4  12
HETATM   12  C5  UNK     1      18.043   5.783  32.356  1.00  0.00    -0.020 A 
HETATM   13  C11 UNK     1      19.035   6.573  32.942  1.00  0.00     0.015 A 
HETATM   14  C13 UNK     1      18.762   7.896  33.289  1.00  0.00     0.037 A 
HETATM   15  C15 UNK     1      17.496   8.432  33.050  1.00  0.00     0.068 A 
HETATM   16  C14 UNK     1      16.504   7.645  32.466  1.00  0.00     0.037 A 
HETATM   17  C12 UNK     1      16.778   6.321  32.119  1.00  0.00     0.015 A 
BRANCH  15  18
HETATM   18  O5  UNK     1      17.230   9.723  33.389  1.00  0.00    -0.356 OA
HETATM   19  C18 UNK     1      18.303  10.484  33.942  1.00  0.00     0.210 C 
ENDBRANCH  15  18
ENDBRANCH   4  12
BRANCH   9  20
HETATM   20  O2  UNK     1      18.852  -1.507  33.699  1.00  0.00    -0.353 OA
HETATM   21  C16 UNK     1      18.879  -1.235  35.099  1.00  0.00     0.210 C 
ENDBRANCH   9  20
BRANCH  10  22
HETATM   22  O3  UNK     1      19.596  -1.827  31.043  1.00  0.00    -0.353 OA
HETATM   23  C17 UNK     1      20.346  -1.866  29.830  1.00  0.00     0.210 C 
ENDBRANCH  10  22
TORSDOF 4
ENDMDL
MODEL 8
REMARK VINA RESULT:      -7.3      7.541     11.196
REMARK  4 active torsions:
REMARK  status: ('A' for Active; 'I' for Inactive)
REMARK    1  A    between atoms: C8_13  and  O2_2 
REMARK    2  A    between atoms: C9_14  and  O3_3 
REMARK    3  A    between atoms: C15_20  and  O5_5 
REMARK    4  A    between atoms: C2_7  and  C5_10 
ROOT
HETATM    1  O1  UNK     1      18.496  -1.352  36.814  1.00  0.00    -0.321 OA
HETATM    2  O4  UNK     1      20.500  -3.691  34.138  1.00  0.00    -0.286 OA
HETATM    3  C1  UNK     1      19.305  -1.706  34.554  1.00  0.00     0.052 A 
HETATM    4  C2  UNK     1      19.774  -3.372  36.384  1.00  0.00     0.048 A 
HETATM    5  C3  UNK     1      18.623  -0.953  35.509  1.00  0.00     0.092 A 
HETATM    6  C4  UNK     1      19.917  -2.987  34.953  1.00  0.00     0.198 A 
HETATM    7  C6  UNK     1      19.401  -1.250  33.237  1.00  0.00     0.058 A 
HETATM    8  C7  UNK     1      18.031   0.260  35.152  1.00  0.00     0.077 A 
HETATM    9  C8  UNK     1      18.810  -0.036  32.882  1.00  0.00     0.102 A 
HETATM   10  C9  UNK     1      18.127   0.716  33.838  1.00  0.00     0.104 A 
HETATM   11  C10 UNK     1      19.089  -2.537  37.180  1.00  0.00     0.159 A 
ENDROOT
BRANCH   4  12
HETATM   12  C5  UNK     1      20.371  -4.605  36.922  1.00  0.00    -0.020 A 
HETATM   13  C11 UNK     1      21.438  -4.534  37.821  1.00  0.00     0.015 A 
HETATM   14  C13 UNK     1      22.003  -5.703  38.331  1.00  0.00     0.037 A 
HETATM   15  C15 UNK     1      21.501  -6.946  37.944  1.00  0.00     0.068 A 
HETATM   16  C14 UNK     1      20.436  -7.020  37.047  1.00  0.00     0.037 A 
HETATM   17  C12 UNK     1      19.871  -5.851  36.537  1.00  0.00     0.015 A 
BRANCH  15  18
HETATM   18  O5  UNK     1      22.053  -8.086  38.443  1.00  0.00    -0.356 OA
HETATM   19  C18 UNK     1      22.396  -8.089  39.828  1.00  0.00     0.210 C 
ENDBRANCH  15  18
ENDBRANCH   4  12
BRANCH   9  20
HETATM   20  O2  UNK     1      18.909   0.405  31.597  1.00  0.00    -0.353 OA
HETATM   21  C16 UNK     1      20.026  -0.054  30.838  1.00  0.00     0.210 C 
ENDBRANCH   9  20
BRANCH  10  22
HETATM   22  O3  UNK     1      17.549   1.904  33.499  1.00  0.00    -0.353 OA
HETATM   23  C17 UNK     1      18.242   3.091  33.878  1.00  0.00     0.210 C 
ENDBRANCH  10  22
TORSDOF 4
ENDMDL
MODEL 9
REMARK VINA RESULT:      -7.3      1.519      8.180
REMARK  4 active torsions:
REMARK  status: ('A' for Active; 'I' for Inactive)
REMARK    1  A    between atoms: C8_13  and  O2_2 
REMARK    2  A    between atoms: C9_14  and  O3_3 
REMARK    3  A    between atoms: C15_20  and  O5_5 
REMARK    4  A    between atoms: C2_7  and  C5_10 
ROOT
HETATM    1  O1  UNK     1      18.108   3.877  34.102  1.00  0.00    -0.321 OA
HETATM    2  O4  UNK     1      18.304   6.307  30.830  1.00  0.00    -0.286 OA
HETATM    3  C1  UNK     1      18.399   4.124  31.705  1.00  0.00     0.052 A 
HETATM    4  C2  UNK     1      17.961   6.119  33.179  1.00  0.00     0.048 A 
HETATM    5  C3  UNK     1      18.332   3.344  32.860  1.00  0.00     0.092 A 
HETATM    6  C4  UNK     1      18.224   5.584  31.815  1.00  0.00     0.198 A 
HETATM    7  C6  UNK     1      18.631   3.525  30.465  1.00  0.00     0.058 A 
HETATM    8  C7  UNK     1      18.499   1.961  32.780  1.00  0.00     0.077 A 
HETATM    9  C8  UNK     1      18.797   2.141  30.387  1.00  0.00     0.102 A 
HETATM   10  C9  UNK     1      18.732   1.362  31.541  1.00  0.00     0.104 A 
HETATM   11  C10 UNK     1      17.925   5.237  34.189  1.00  0.00     0.159 A 
ENDROOT
BRANCH   4  12
HETATM   12  C5  UNK     1      17.730   7.552  33.423  1.00  0.00    -0.020 A 
HETATM   13  C11 UNK     1      16.441   8.081  33.325  1.00  0.00     0.015 A 
HETATM   14  C13 UNK     1      16.221   9.439  33.556  1.00  0.00     0.037 A 
HETATM   15  C15 UNK     1      17.291  10.271  33.887  1.00  0.00     0.068 A 
HETATM   16  C14 UNK     1      18.579   9.746  33.986  1.00  0.00     0.037 A 
HETATM   17  C12 UNK     1      18.798   8.387  33.755  1.00  0.00     0.015 A 
BRANCH  15  18
HETATM   18  O5  UNK     1      17.077  11.596  34.114  1.00  0.00    -0.356 OA
HETATM   19  C18 UNK     1      18.227  12.438  34.181  1.00  0.00     0.210 C 
ENDBRANCH  15  18
ENDBRANCH   4  12
BRANCH   9  20
HETATM   20  O2  UNK     1      19.021   1.563  29.174  1.00  0.00    -0.353 OA
HETATM   21  C16 UNK     1      17.889   1.369  28.328  1.00  0.00     0.210 C 
ENDBRANCH   9  20
BRANCH  10  22
HETATM   22  O3  UNK     1      18.890   0.010  31.473  1.00  0.00    -0.353 OA
HETATM   23  C17 UNK     1      18.784  -0.717  32.695  1.00  0.00     0.210 C 
ENDBRANCH  10  22
TORSDOF 4
ENDMDL
MODEL 10
REMARK VINA RESULT:      -7.2     13.728     18.192
REMARK  4 active torsions:
REMARK  status: ('A' for Active; 'I' for Inactive)
REMARK    1  A    between atoms: C8_13  and  O2_2 
REMARK    2  A    between atoms: C9_14  and  O3_3 
REMARK    3  A    between atoms: C15_20  and  O5_5 
REMARK    4  A    between atoms: C2_7  and  C5_10 
ROOT
HETATM    1  O1  UNK     1      19.593   1.177  15.150  1.00  0.00    -0.321 OA
HETATM    2  O4  UNK     1      18.398  -1.811  17.658  1.00  0.00    -0.286 OA
HETATM    3  C1  UNK     1      18.982   0.453  17.384  1.00  0.00     0.052 A 
HETATM    4  C2  UNK     1      18.939  -1.144  15.437  1.00  0.00     0.048 A 
HETATM    5  C3  UNK     1      19.400   1.432  16.483  1.00  0.00     0.092 A 
HETATM    6  C4  UNK     1      18.738  -0.916  16.894  1.00  0.00     0.198 A 
HETATM    7  C6  UNK     1      18.802   0.770  18.733  1.00  0.00     0.058 A 
HETATM    8  C7  UNK     1      19.641   2.733  16.926  1.00  0.00     0.077 A 
HETATM    9  C8  UNK     1      19.043   2.072  19.174  1.00  0.00     0.102 A 
HETATM   10  C9  UNK     1      19.462   3.051  18.272  1.00  0.00     0.104 A 
HETATM   11  C10 UNK     1      19.342  -0.097  14.701  1.00  0.00     0.159 A 
ENDROOT
BRANCH   4  12
HETATM   12  C5  UNK     1      18.693  -2.453  14.811  1.00  0.00    -0.020 A 
HETATM   13  C11 UNK     1      19.209  -2.733  13.544  1.00  0.00     0.015 A 
HETATM   14  C13 UNK     1      18.975  -3.975  12.951  1.00  0.00     0.037 A 
HETATM   15  C15 UNK     1      18.225  -4.939  13.626  1.00  0.00     0.068 A 
HETATM   16  C14 UNK     1      17.710  -4.661  14.891  1.00  0.00     0.037 A 
HETATM   17  C12 UNK     1      17.943  -3.420  15.484  1.00  0.00     0.015 A 
BRANCH  15  18
HETATM   18  O5  UNK     1      17.998  -6.150  13.048  1.00  0.00    -0.356 OA
HETATM   19  C18 UNK     1      17.091  -7.027  13.713  1.00  0.00     0.210 C 
ENDBRANCH  15  18
ENDBRANCH   4  12
BRANCH   9  20
HETATM   20  O2  UNK     1      18.864   2.376  20.489  1.00  0.00    -0.353 OA
HETATM   21  C16 UNK     1      19.915   2.020  21.386  1.00  0.00     0.210 C 
ENDBRANCH   9  20
BRANCH  10  22
HETATM   22  O3  UNK     1      19.698   4.325  18.695  1.00  0.00    -0.353 OA
HETATM   23  C17 UNK     1      20.971   4.886  18.382  1.00  0.00     0.210 C 
ENDBRANCH  10  22
TORSDOF 4
ENDMDL
