MODEL 1
REMARK VINA RESULT:      -8.7      0.000      0.000
REMARK  1 active torsions:
REMARK  status: ('A' for Active; 'I' for Inactive)
REMARK       I    between atoms: C8_12  and  N1_4 
REMARK    1  A    between atoms: C11_15  and  C8_12 
ROOT
HETATM    1  O1  UNK     1      19.003   4.548  30.474  1.00  0.00    -0.267 OA
HETATM    2  N1  UNK     1      18.393   3.012  32.154  1.00  0.00    -0.313 N 
HETATM    3  C1  UNK     1      18.513   1.805  34.329  1.00  0.00     0.025 C 
HETATM    4  C2  UNK     1      18.479   0.460  33.632  1.00  0.00     0.042 C 
HETATM    5  C3  UNK     1      17.779   2.833  33.485  1.00  0.00     0.133 C 
HETATM    6  C4  UNK     1      18.919   0.583  32.197  1.00  0.00    -0.031 A 
HETATM    7  C5  UNK     1      18.868   1.810  31.496  1.00  0.00     0.043 A 
HETATM    8  C6  UNK     1      19.352  -0.588  31.549  1.00  0.00     0.016 A 
HETATM    9  C7  UNK     1      19.251   1.802  30.142  1.00  0.00     0.031 A 
HETATM   10  C8  UNK     1      18.513   4.284  31.571  1.00  0.00     0.264 C 
HETATM   11  C9  UNK     1      19.744  -0.562  30.216  1.00  0.00    -0.061 A 
HETATM   12  C10 UNK     1      19.690   0.632  29.513  1.00  0.00     0.009 A 
HETATM   13  C12 UNK     1      20.205  -1.809  29.543  1.00  0.00     0.048 C 
ENDROOT
BRANCH  10  14
HETATM   14  C11 UNK     1      18.000   5.423  32.367  1.00  0.00     0.108 A 
HETATM   15  C13 UNK     1      16.734   5.788  32.129  1.00  0.00     0.037 A 
HETATM   16  C14 UNK     1      16.141   6.897  32.861  1.00  0.00    -0.001 A 
HETATM   17  C16 UNK     1      16.910   7.567  33.807  1.00  0.00     0.089 A 
HETATM   18  C17 UNK     1      14.824   7.311  32.647  1.00  0.00     0.014 A 
HETATM   19  O2  UNK     1      18.242   7.178  34.052  1.00  0.00    -0.274 OA
HETATM   20  C18 UNK     1      16.402   8.636  34.542  1.00  0.00     0.038 A 
HETATM   21  C15 UNK     1      18.837   6.122  33.368  1.00  0.00     0.304 A 
HETATM   22  O3  UNK     1      19.996   5.791  33.588  1.00  0.00    -0.259 OA
HETATM   23  C20 UNK     1      15.089   9.044  34.322  1.00  0.00     0.003 A 
HETATM   24  C19 UNK     1      14.300   8.382  33.376  1.00  0.00     0.001 A 
ENDBRANCH  10  14
TORSDOF 1
ENDMDL
MODEL 2
REMARK VINA RESULT:      -8.5     14.404     17.808
REMARK  1 active torsions:
REMARK  status: ('A' for Active; 'I' for Inactive)
REMARK       I    between atoms: C8_12  and  N1_4 
REMARK    1  A    between atoms: C11_15  and  C8_12 
ROOT
HETATM    1  O1  UNK     1      17.799  -2.370  14.463  1.00  0.00    -0.267 OA
HETATM    2  N1  UNK     1      19.693  -3.328  15.486  1.00  0.00    -0.313 N 
HETATM    3  C1  UNK     1      22.104  -3.697  15.987  1.00  0.00     0.025 C 
HETATM    4  C2  UNK     1      21.972  -5.185  15.735  1.00  0.00     0.042 C 
HETATM    5  C3  UNK     1      20.776  -3.144  16.474  1.00  0.00     0.133 C 
HETATM    6  C4  UNK     1      20.771  -5.483  14.877  1.00  0.00    -0.031 A 
HETATM    7  C5  UNK     1      19.681  -4.588  14.769  1.00  0.00     0.043 A 
HETATM    8  C6  UNK     1      20.744  -6.719  14.204  1.00  0.00     0.016 A 
HETATM    9  C7  UNK     1      18.585  -4.989  13.984  1.00  0.00     0.031 A 
HETATM   10  C8  UNK     1      18.738  -2.324  15.256  1.00  0.00     0.264 C 
HETATM   11  C9  UNK     1      19.657  -7.079  13.419  1.00  0.00    -0.061 A 
HETATM   12  C10 UNK     1      18.576  -6.217  13.312  1.00  0.00     0.009 A 
HETATM   13  C12 UNK     1      19.644  -8.390  12.707  1.00  0.00     0.048 C 
ENDROOT
BRANCH  10  14
HETATM   14  C11 UNK     1      18.886  -1.082  16.049  1.00  0.00     0.108 A 
HETATM   15  C13 UNK     1      18.600  -1.175  17.353  1.00  0.00     0.037 A 
HETATM   16  C14 UNK     1      18.715  -0.008  18.214  1.00  0.00    -0.001 A 
HETATM   17  C16 UNK     1      19.124   1.200  17.659  1.00  0.00     0.089 A 
HETATM   18  C17 UNK     1      18.429  -0.059  19.580  1.00  0.00     0.014 A 
HETATM   19  O2  UNK     1      19.423   1.292  16.286  1.00  0.00    -0.274 OA
HETATM   20  C18 UNK     1      19.254   2.355  18.428  1.00  0.00     0.038 A 
HETATM   21  C15 UNK     1      19.322   0.193  15.436  1.00  0.00     0.304 A 
HETATM   22  O3  UNK     1      19.583   0.283  14.242  1.00  0.00    -0.259 OA
HETATM   23  C20 UNK     1      18.966   2.295  19.790  1.00  0.00     0.003 A 
HETATM   24  C19 UNK     1      18.554   1.090  20.366  1.00  0.00     0.001 A 
ENDBRANCH  10  14
TORSDOF 1
ENDMDL
MODEL 3
REMARK VINA RESULT:      -8.5      2.438      7.808
REMARK  1 active torsions:
REMARK  status: ('A' for Active; 'I' for Inactive)
REMARK       I    between atoms: C8_12  and  N1_4 
REMARK    1  A    between atoms: C11_15  and  C8_12 
ROOT
HETATM    1  O1  UNK     1      20.043   6.587  33.462  1.00  0.00    -0.267 OA
HETATM    2  N1  UNK     1      17.801   7.076  33.999  1.00  0.00    -0.313 N 
HETATM    3  C1  UNK     1      15.351   7.347  33.644  1.00  0.00     0.025 C 
HETATM    4  C2  UNK     1      15.384   8.755  34.203  1.00  0.00     0.042 C 
HETATM    5  C3  UNK     1      16.460   6.524  34.277  1.00  0.00     0.133 C 
HETATM    6  C4  UNK     1      16.772   9.334  34.128  1.00  0.00    -0.031 A 
HETATM    7  C5  UNK     1      17.925   8.520  34.036  1.00  0.00     0.043 A 
HETATM    8  C6  UNK     1      16.895  10.735  34.194  1.00  0.00     0.016 A 
HETATM    9  C7  UNK     1      19.176   9.163  34.027  1.00  0.00     0.031 A 
HETATM   10  C8  UNK     1      18.889   6.237  33.706  1.00  0.00     0.264 C 
HETATM   11  C9  UNK     1      18.143  11.343  34.162  1.00  0.00    -0.061 A 
HETATM   12  C10 UNK     1      19.284  10.557  34.083  1.00  0.00     0.009 A 
HETATM   13  C12 UNK     1      18.258  12.828  34.228  1.00  0.00     0.048 C 
ENDROOT
BRANCH  10  14
HETATM   14  C11 UNK     1      18.611   4.782  33.685  1.00  0.00     0.108 A 
HETATM   15  C13 UNK     1      18.845   4.119  34.824  1.00  0.00     0.037 A 
HETATM   16  C14 UNK     1      18.602   2.687  34.901  1.00  0.00    -0.001 A 
HETATM   17  C16 UNK     1      18.126   2.023  33.776  1.00  0.00     0.089 A 
HETATM   18  C17 UNK     1      18.831   1.954  36.069  1.00  0.00     0.014 A 
HETATM   19  O2  UNK     1      17.882   2.727  32.580  1.00  0.00    -0.274 OA
HETATM   20  C18 UNK     1      17.873   0.653  33.783  1.00  0.00     0.038 A 
HETATM   21  C15 UNK     1      18.104   4.097  32.475  1.00  0.00     0.304 A 
HETATM   22  O3  UNK     1      17.890   4.701  31.430  1.00  0.00    -0.259 OA
HETATM   23  C20 UNK     1      18.104  -0.070  34.951  1.00  0.00     0.003 A 
HETATM   24  C19 UNK     1      18.582   0.579  36.092  1.00  0.00     0.001 A 
ENDBRANCH  10  14
TORSDOF 1
ENDMDL
MODEL 4
REMARK VINA RESULT:      -8.3      7.428      9.820
REMARK  1 active torsions:
REMARK  status: ('A' for Active; 'I' for Inactive)
REMARK       I    between atoms: C8_12  and  N1_4 
REMARK    1  A    between atoms: C11_15  and  C8_12 
ROOT
HETATM    1  O1  UNK     1      21.430  -3.060  37.905  1.00  0.00    -0.267 OA
HETATM    2  N1  UNK     1      20.060  -4.867  37.264  1.00  0.00    -0.313 N 
HETATM    3  C1  UNK     1      18.032  -6.310  37.190  1.00  0.00     0.025 C 
HETATM    4  C2  UNK     1      18.851  -7.548  37.497  1.00  0.00     0.042 C 
HETATM    5  C3  UNK     1      18.897  -5.297  36.461  1.00  0.00     0.133 C 
HETATM    6  C4  UNK     1      20.153  -7.183  38.159  1.00  0.00    -0.031 A 
HETATM    7  C5  UNK     1      20.727  -5.896  38.036  1.00  0.00     0.043 A 
HETATM    8  C6  UNK     1      20.817  -8.191  38.884  1.00  0.00     0.016 A 
HETATM    9  C7  UNK     1      21.974  -5.679  38.649  1.00  0.00     0.031 A 
HETATM   10  C8  UNK     1      20.480  -3.526  37.278  1.00  0.00     0.264 C 
HETATM   11  C9  UNK     1      22.038  -7.941  39.496  1.00  0.00    -0.061 A 
HETATM   12  C10 UNK     1      22.618  -6.687  39.376  1.00  0.00     0.009 A 
HETATM   13  C12 UNK     1      22.727  -9.016  40.265  1.00  0.00     0.048 C 
ENDROOT
BRANCH  10  14
HETATM   14  C11 UNK     1      19.692  -2.581  36.454  1.00  0.00     0.108 A 
HETATM   15  C13 UNK     1      18.676  -1.965  37.071  1.00  0.00     0.037 A 
HETATM   16  C14 UNK     1      17.843  -1.019  36.344  1.00  0.00    -0.001 A 
HETATM   17  C16 UNK     1      18.121  -0.768  35.004  1.00  0.00     0.089 A 
HETATM   18  C17 UNK     1      16.774  -0.352  36.947  1.00  0.00     0.014 A 
HETATM   19  O2  UNK     1      19.191  -1.420  34.361  1.00  0.00    -0.274 OA
HETATM   20  C18 UNK     1      17.362   0.126  34.252  1.00  0.00     0.038 A 
HETATM   21  C15 UNK     1      20.006  -2.330  35.029  1.00  0.00     0.304 A 
HETATM   22  O3  UNK     1      20.935  -2.893  34.461  1.00  0.00    -0.259 OA
HETATM   23  C20 UNK     1      16.297   0.786  34.861  1.00  0.00     0.003 A 
HETATM   24  C19 UNK     1      16.003   0.548  36.206  1.00  0.00     0.001 A 
ENDBRANCH  10  14
TORSDOF 1
ENDMDL
MODEL 5
REMARK VINA RESULT:      -8.3     14.705     16.409
REMARK  1 active torsions:
REMARK  status: ('A' for Active; 'I' for Inactive)
REMARK       I    between atoms: C8_12  and  N1_4 
REMARK    1  A    between atoms: C11_15  and  C8_12 
ROOT
HETATM    1  O1  UNK     1      31.062  -8.590  33.818  1.00  0.00    -0.267 OA
HETATM    2  N1  UNK     1      29.440  -7.263  32.741  1.00  0.00    -0.313 N 
HETATM    3  C1  UNK     1      27.211  -6.239  32.314  1.00  0.00     0.025 C 
HETATM    4  C2  UNK     1      27.231  -6.697  30.870  1.00  0.00     0.042 C 
HETATM    5  C3  UNK     1      28.634  -6.027  32.800  1.00  0.00     0.133 C 
HETATM    6  C4  UNK     1      28.180  -7.850  30.681  1.00  0.00    -0.031 A 
HETATM    7  C5  UNK     1      29.240  -8.110  31.582  1.00  0.00     0.043 A 
HETATM    8  C6  UNK     1      28.004  -8.655  29.540  1.00  0.00     0.016 A 
HETATM    9  C7  UNK     1      30.101  -9.180  31.281  1.00  0.00     0.031 A 
HETATM   10  C8  UNK     1      30.344  -7.593  33.765  1.00  0.00     0.264 C 
HETATM   11  C9  UNK     1      28.859  -9.719  29.280  1.00  0.00    -0.061 A 
HETATM   12  C10 UNK     1      29.909  -9.979  30.149  1.00  0.00     0.009 A 
HETATM   13  C12 UNK     1      28.658 -10.566  28.070  1.00  0.00     0.048 C 
ENDROOT
BRANCH  10  14
HETATM   14  C11 UNK     1      30.431  -6.643  34.898  1.00  0.00     0.108 A 
HETATM   15  C13 UNK     1      29.542  -6.815  35.883  1.00  0.00     0.037 A 
HETATM   16  C14 UNK     1      29.548  -5.930  37.038  1.00  0.00    -0.001 A 
HETATM   17  C16 UNK     1      30.489  -4.907  37.098  1.00  0.00     0.089 A 
HETATM   18  C17 UNK     1      28.640  -6.073  38.090  1.00  0.00     0.014 A 
HETATM   19  O2  UNK     1      31.422  -4.732  36.057  1.00  0.00    -0.274 OA
HETATM   20  C18 UNK     1      30.548  -4.026  38.176  1.00  0.00     0.038 A 
HETATM   21  C15 UNK     1      31.441  -5.562  34.940  1.00  0.00     0.304 A 
HETATM   22  O3  UNK     1      32.256  -5.401  34.038  1.00  0.00    -0.259 OA
HETATM   23  C20 UNK     1      29.639  -4.175  39.220  1.00  0.00     0.003 A 
HETATM   24  C19 UNK     1      28.687  -5.196  39.179  1.00  0.00     0.001 A 
ENDBRANCH  10  14
TORSDOF 1
ENDMDL
MODEL 6
REMARK VINA RESULT:      -8.1     14.556     16.011
REMARK  1 active torsions:
REMARK  status: ('A' for Active; 'I' for Inactive)
REMARK       I    between atoms: C8_12  and  N1_4 
REMARK    1  A    between atoms: C11_15  and  C8_12 
ROOT
HETATM    1  O1  UNK     1      24.300  -5.659  38.748  1.00  0.00    -0.267 OA
HETATM    2  N1  UNK     1      25.734  -7.527  38.670  1.00  0.00    -0.313 N 
HETATM    3  C1  UNK     1      26.932  -9.550  39.490  1.00  0.00     0.025 C 
HETATM    4  C2  UNK     1      28.266  -8.997  39.030  1.00  0.00     0.042 C 
HETATM    5  C3  UNK     1      25.823  -9.000  38.610  1.00  0.00     0.133 C 
HETATM    6  C4  UNK     1      28.209  -7.500  38.885  1.00  0.00    -0.031 A 
HETATM    7  C5  UNK     1      26.990  -6.805  38.707  1.00  0.00     0.043 A 
HETATM    8  C6  UNK     1      29.431  -6.801  38.891  1.00  0.00     0.016 A 
HETATM    9  C7  UNK     1      27.056  -5.412  38.527  1.00  0.00     0.031 A 
HETATM   10  C8  UNK     1      24.491  -6.873  38.699  1.00  0.00     0.264 C 
HETATM   11  C9  UNK     1      29.463  -5.422  38.731  1.00  0.00    -0.061 A 
HETATM   12  C10 UNK     1      28.277  -4.728  38.545  1.00  0.00     0.009 A 
HETATM   13  C12 UNK     1      30.765  -4.693  38.744  1.00  0.00     0.048 C 
ENDROOT
BRANCH  10  14
HETATM   14  C11 UNK     1      23.290  -7.740  38.674  1.00  0.00     0.108 A 
HETATM   15  C13 UNK     1      23.066  -8.407  37.536  1.00  0.00     0.037 A 
HETATM   16  C14 UNK     1      21.912  -9.284  37.415  1.00  0.00    -0.001 A 
HETATM   17  C16 UNK     1      21.049  -9.414  38.498  1.00  0.00     0.089 A 
HETATM   18  C17 UNK     1      21.639 -10.000  36.246  1.00  0.00     0.014 A 
HETATM   19  O2  UNK     1      21.290  -8.709  39.693  1.00  0.00    -0.274 OA
HETATM   20  C18 UNK     1      19.926 -10.237  38.447  1.00  0.00     0.038 A 
HETATM   21  C15 UNK     1      22.386  -7.863  39.840  1.00  0.00     0.304 A 
HETATM   22  O3  UNK     1      22.588  -7.253  40.883  1.00  0.00    -0.259 OA
HETATM   23  C20 UNK     1      19.661 -10.947  37.278  1.00  0.00     0.003 A 
HETATM   24  C19 UNK     1      20.517 -10.829  36.180  1.00  0.00     0.001 A 
ENDBRANCH  10  14
TORSDOF 1
ENDMDL
MODEL 7
REMARK VINA RESULT:      -8.1     15.992     18.089
REMARK  1 active torsions:
REMARK  status: ('A' for Active; 'I' for Inactive)
REMARK       I    between atoms: C8_12  and  N1_4 
REMARK    1  A    between atoms: C11_15  and  C8_12 
ROOT
HETATM    1  O1  UNK     1      28.436  -8.628  35.246  1.00  0.00    -0.267 OA
HETATM    2  N1  UNK     1      30.005  -6.960  34.689  1.00  0.00    -0.313 N 
HETATM    3  C1  UNK     1      32.240  -5.941  34.280  1.00  0.00     0.025 C 
HETATM    4  C2  UNK     1      31.932  -4.789  35.215  1.00  0.00     0.042 C 
HETATM    5  C3  UNK     1      30.949  -6.458  33.670  1.00  0.00     0.133 C 
HETATM    6  C4  UNK     1      30.836  -5.155  36.181  1.00  0.00    -0.031 A 
HETATM    7  C5  UNK     1      29.914  -6.195  35.917  1.00  0.00     0.043 A 
HETATM    8  C6  UNK     1      30.729  -4.394  37.360  1.00  0.00     0.016 A 
HETATM    9  C7  UNK     1      28.896  -6.417  36.862  1.00  0.00     0.031 A 
HETATM   10  C8  UNK     1      29.248  -8.123  34.472  1.00  0.00     0.264 C 
HETATM   11  C9  UNK     1      29.726  -4.650  38.285  1.00  0.00    -0.061 A 
HETATM   12  C10 UNK     1      28.807  -5.659  38.034  1.00  0.00     0.009 A 
HETATM   13  C12 UNK     1      29.627  -3.838  39.532  1.00  0.00     0.048 C 
ENDROOT
BRANCH  10  14
HETATM   14  C11 UNK     1      29.458  -8.813  33.177  1.00  0.00     0.108 A 
HETATM   15  C13 UNK     1      28.569  -8.543  32.213  1.00  0.00     0.037 A 
HETATM   16  C14 UNK     1      28.692  -9.173  30.908  1.00  0.00    -0.001 A 
HETATM   17  C16 UNK     1      29.743 -10.055  30.681  1.00  0.00     0.089 A 
HETATM   18  C17 UNK     1      27.789  -8.921  29.872  1.00  0.00     0.014 A 
HETATM   19  O2  UNK     1      30.674 -10.334  31.700  1.00  0.00    -0.274 OA
HETATM   20  C18 UNK     1      29.916 -10.691  29.454  1.00  0.00     0.038 A 
HETATM   21  C15 UNK     1      30.584  -9.748  32.960  1.00  0.00     0.304 A 
HETATM   22  O3  UNK     1      31.399  -9.998  33.841  1.00  0.00    -0.259 OA
HETATM   23  C20 UNK     1      29.011 -10.434  28.426  1.00  0.00     0.003 A 
HETATM   24  C19 UNK     1      27.949  -9.551  28.634  1.00  0.00     0.001 A 
ENDBRANCH  10  14
TORSDOF 1
ENDMDL
MODEL 8
REMARK VINA RESULT:      -8.0      7.817     10.106
REMARK  1 active torsions:
REMARK  status: ('A' for Active; 'I' for Inactive)
REMARK       I    between atoms: C8_12  and  N1_4 
REMARK    1  A    between atoms: C11_15  and  C8_12 
ROOT
HETATM    1  O1  UNK     1      17.787  -5.265  36.249  1.00  0.00    -0.267 OA
HETATM    2  N1  UNK     1      19.743  -5.256  37.564  1.00  0.00    -0.313 N 
HETATM    3  C1  UNK     1      22.180  -5.186  38.071  1.00  0.00     0.025 C 
HETATM    4  C2  UNK     1      22.080  -6.434  38.924  1.00  0.00     0.042 C 
HETATM    5  C3  UNK     1      20.854  -4.445  38.100  1.00  0.00     0.133 C 
HETATM    6  C4  UNK     1      20.858  -7.238  38.566  1.00  0.00    -0.031 A 
HETATM    7  C5  UNK     1      19.740  -6.662  37.918  1.00  0.00     0.043 A 
HETATM    8  C6  UNK     1      20.843  -8.596  38.937  1.00  0.00     0.016 A 
HETATM    9  C7  UNK     1      18.629  -7.490  37.680  1.00  0.00     0.031 A 
HETATM   10  C8  UNK     1      18.752  -4.687  36.746  1.00  0.00     0.264 C 
HETATM   11  C9  UNK     1      19.739  -9.395  38.669  1.00  0.00    -0.061 A 
HETATM   12  C10 UNK     1      18.631  -8.841  38.044  1.00  0.00     0.009 A 
HETATM   13  C12 UNK     1      19.738 -10.833  39.063  1.00  0.00     0.048 C 
ENDROOT
BRANCH  10  14
HETATM   14  C11 UNK     1      18.892  -3.242  36.452  1.00  0.00     0.108 A 
HETATM   15  C13 UNK     1      18.143  -2.413  37.189  1.00  0.00     0.037 A 
HETATM   16  C14 UNK     1      18.212  -0.976  36.972  1.00  0.00    -0.001 A 
HETATM   17  C16 UNK     1      19.066  -0.483  35.991  1.00  0.00     0.089 A 
HETATM   18  C17 UNK     1      17.449  -0.074  37.718  1.00  0.00     0.014 A 
HETATM   19  O2  UNK     1      19.851  -1.361  35.219  1.00  0.00    -0.274 OA
HETATM   20  C18 UNK     1      19.178   0.882  35.734  1.00  0.00     0.038 A 
HETATM   21  C15 UNK     1      19.808  -2.740  35.402  1.00  0.00     0.304 A 
HETATM   22  O3  UNK     1      20.494  -3.497  34.725  1.00  0.00    -0.259 OA
HETATM   23  C20 UNK     1      18.414   1.775  36.482  1.00  0.00     0.003 A 
HETATM   24  C19 UNK     1      17.551   1.299  37.472  1.00  0.00     0.001 A 
ENDBRANCH  10  14
TORSDOF 1
ENDMDL
MODEL 9
REMARK VINA RESULT:      -8.0     15.734     17.586
REMARK  1 active torsions:
REMARK  status: ('A' for Active; 'I' for Inactive)
REMARK       I    between atoms: C8_12  and  N1_4 
REMARK    1  A    between atoms: C11_15  and  C8_12 
ROOT
HETATM    1  O1  UNK     1      28.842  -9.294  38.689  1.00  0.00    -0.267 OA
HETATM    2  N1  UNK     1      28.985  -7.826  36.852  1.00  0.00    -0.313 N 
HETATM    3  C1  UNK     1      29.105  -7.122  34.466  1.00  0.00     0.025 C 
HETATM    4  C2  UNK     1      30.341  -6.287  34.732  1.00  0.00     0.042 C 
HETATM    5  C3  UNK     1      28.262  -7.198  35.727  1.00  0.00     0.133 C 
HETATM    6  C4  UNK     1      31.046  -6.746  35.980  1.00  0.00    -0.031 A 
HETATM    7  C5  UNK     1      30.385  -7.479  36.993  1.00  0.00     0.043 A 
HETATM    8  C6  UNK     1      32.398  -6.385  36.131  1.00  0.00     0.016 A 
HETATM    9  C7  UNK     1      31.124  -7.811  38.143  1.00  0.00     0.031 A 
HETATM   10  C8  UNK     1      28.340  -8.718  37.726  1.00  0.00     0.264 C 
HETATM   11  C9  UNK     1      33.108  -6.745  37.269  1.00  0.00    -0.061 A 
HETATM   12  C10 UNK     1      32.471  -7.455  38.276  1.00  0.00     0.009 A 
HETATM   13  C12 UNK     1      34.541  -6.360  37.415  1.00  0.00     0.048 C 
ENDROOT
BRANCH  10  14
HETATM   14  C11 UNK     1      26.911  -8.992  37.449  1.00  0.00     0.108 A 
HETATM   15  C13 UNK     1      26.640 -10.147  36.828  1.00  0.00     0.037 A 
HETATM   16  C14 UNK     1      25.266 -10.504  36.512  1.00  0.00    -0.001 A 
HETATM   17  C16 UNK     1      24.244  -9.629  36.866  1.00  0.00     0.089 A 
HETATM   18  C17 UNK     1      24.937 -11.698  35.867  1.00  0.00     0.014 A 
HETATM   19  O2  UNK     1      24.536  -8.416  37.519  1.00  0.00    -0.274 OA
HETATM   20  C18 UNK     1      22.908  -9.912  36.593  1.00  0.00     0.038 A 
HETATM   21  C15 UNK     1      25.841  -8.045  37.834  1.00  0.00     0.304 A 
HETATM   22  O3  UNK     1      26.085  -6.987  38.402  1.00  0.00    -0.259 OA
HETATM   23  C20 UNK     1      22.588 -11.105  35.948  1.00  0.00     0.003 A 
HETATM   24  C19 UNK     1      23.601 -11.997  35.586  1.00  0.00     0.001 A 
ENDBRANCH  10  14
TORSDOF 1
ENDMDL
MODEL 10
REMARK VINA RESULT:      -7.9      1.740      7.624
REMARK  1 active torsions:
REMARK  status: ('A' for Active; 'I' for Inactive)
REMARK       I    between atoms: C8_12  and  N1_4 
REMARK    1  A    between atoms: C11_15  and  C8_12 
ROOT
HETATM    1  O1  UNK     1      16.254   5.436  31.970  1.00  0.00    -0.267 OA
HETATM    2  N1  UNK     1      18.374   6.308  32.519  1.00  0.00    -0.313 N 
HETATM    3  C1  UNK     1      20.478   6.609  33.816  1.00  0.00     0.025 C 
HETATM    4  C2  UNK     1      20.278   8.110  33.871  1.00  0.00     0.042 C 
HETATM    5  C3  UNK     1      19.828   6.056  32.559  1.00  0.00     0.133 C 
HETATM    6  C4  UNK     1      18.833   8.472  33.652  1.00  0.00    -0.031 A 
HETATM    7  C5  UNK     1      17.929   7.602  32.997  1.00  0.00     0.043 A 
HETATM    8  C6  UNK     1      18.408   9.740  34.090  1.00  0.00     0.016 A 
HETATM    9  C7  UNK     1      16.615   8.062  32.796  1.00  0.00     0.031 A 
HETATM   10  C8  UNK     1      17.478   5.334  32.048  1.00  0.00     0.264 C 
HETATM   11  C9  UNK     1      17.098  10.158  33.896  1.00  0.00    -0.061 A 
HETATM   12  C10 UNK     1      16.203   9.321  33.246  1.00  0.00     0.009 A 
HETATM   13  C12 UNK     1      16.660  11.503  34.369  1.00  0.00     0.048 C 
ENDROOT
BRANCH  10  14
HETATM   14  C11 UNK     1      18.073   4.051  31.608  1.00  0.00     0.108 A 
HETATM   15  C13 UNK     1      17.995   3.034  32.475  1.00  0.00     0.037 A 
HETATM   16  C14 UNK     1      18.552   1.735  32.133  1.00  0.00    -0.001 A 
HETATM   17  C16 UNK     1      19.163   1.569  30.895  1.00  0.00     0.089 A 
HETATM   18  C17 UNK     1      18.492   0.646  33.007  1.00  0.00     0.014 A 
HETATM   19  O2  UNK     1      19.242   2.643  29.987  1.00  0.00    -0.274 OA
HETATM   20  C18 UNK     1      19.716   0.350  30.506  1.00  0.00     0.038 A 
HETATM   21  C15 UNK     1      18.719   3.898  30.285  1.00  0.00     0.304 A 
HETATM   22  O3  UNK     1      18.793   4.827  29.489  1.00  0.00    -0.259 OA
HETATM   23  C20 UNK     1      19.654  -0.730  31.383  1.00  0.00     0.003 A 
HETATM   24  C19 UNK     1      19.042  -0.583  32.631  1.00  0.00     0.001 A 
ENDBRANCH  10  14
TORSDOF 1
ENDMDL
