MODEL 1
REMARK VINA RESULT:      -6.6      0.000      0.000
REMARK  1 active torsions:
REMARK  status: ('A' for Active; 'I' for Inactive)
REMARK    1  A    between atoms: C8_11  and  O2_2 
ROOT
HETATM    1  O1  UNK     1      17.151   6.762  31.585  1.00  0.00    -0.314 OA
HETATM    2  O3  UNK     1      19.367   7.419  34.940  1.00  0.00    -0.287 OA
HETATM    3  C1  UNK     1      19.316   6.713  32.685  1.00  0.00     0.051 A 
HETATM    4  C2  UNK     1      18.500   6.511  31.573  1.00  0.00     0.090 A 
HETATM    5  C3  UNK     1      18.711   7.219  33.928  1.00  0.00     0.187 A 
HETATM    6  C4  UNK     1      16.579   7.239  32.753  1.00  0.00     0.053 A 
HETATM    7  C5  UNK     1      20.685   6.439  32.616  1.00  0.00     0.054 A 
HETATM    8  C6  UNK     1      19.048   6.032  30.383  1.00  0.00     0.041 A 
HETATM    9  C7  UNK     1      17.259   7.474  33.886  1.00  0.00     0.088 A 
HETATM   10  C8  UNK     1      21.230   5.961  31.424  1.00  0.00     0.066 A 
HETATM   11  C9  UNK     1      20.415   5.758  30.310  1.00  0.00     0.039 A 
HETATM   12  C10 UNK     1      15.106   7.476  32.643  1.00  0.00     0.077 C 
ENDROOT
BRANCH  10  13
HETATM   13  O2  UNK     1      22.562   5.693  31.347  1.00  0.00    -0.361 OA
HETATM   14  H8  UNK     1      22.687   4.817  30.941  1.00  0.00     0.217 HD
ENDBRANCH  10  13
TORSDOF 1
ENDMDL
MODEL 2
REMARK VINA RESULT:      -6.4      6.927      8.141
REMARK  1 active torsions:
REMARK  status: ('A' for Active; 'I' for Inactive)
REMARK    1  A    between atoms: C8_11  and  O2_2 
ROOT
HETATM    1  O1  UNK     1      18.462   0.923  31.073  1.00  0.00    -0.314 OA
HETATM    2  O3  UNK     1      21.253  -1.330  29.142  1.00  0.00    -0.287 OA
HETATM    3  C1  UNK     1      20.014  -0.945  31.117  1.00  0.00     0.051 A 
HETATM    4  C2  UNK     1      19.053  -0.134  31.718  1.00  0.00     0.090 A 
HETATM    5  C3  UNK     1      20.417  -0.660  29.731  1.00  0.00     0.187 A 
HETATM    6  C4  UNK     1      18.838   1.193  29.768  1.00  0.00     0.053 A 
HETATM    7  C5  UNK     1      20.582  -2.008  31.822  1.00  0.00     0.054 A 
HETATM    8  C6  UNK     1      18.653  -0.382  33.032  1.00  0.00     0.041 A 
HETATM    9  C7  UNK     1      19.750   0.486  29.083  1.00  0.00     0.088 A 
HETATM   10  C8  UNK     1      20.180  -2.254  33.136  1.00  0.00     0.066 A 
HETATM   11  C9  UNK     1      19.218  -1.444  33.740  1.00  0.00     0.039 A 
HETATM   12  C10 UNK     1      18.127   2.366  29.171  1.00  0.00     0.077 C 
ENDROOT
BRANCH  10  13
HETATM   13  O2  UNK     1      20.728  -3.289  33.830  1.00  0.00    -0.361 OA
HETATM   14  H8  UNK     1      20.742  -3.064  34.776  1.00  0.00     0.217 HD
ENDBRANCH  10  13
TORSDOF 1
ENDMDL
MODEL 3
REMARK VINA RESULT:      -6.3      6.191      6.741
REMARK  1 active torsions:
REMARK  status: ('A' for Active; 'I' for Inactive)
REMARK    1  A    between atoms: C8_11  and  O2_2 
ROOT
HETATM    1  O1  UNK     1      18.981   2.084  30.518  1.00  0.00    -0.314 OA
HETATM    2  O3  UNK     1      18.698  -0.312  33.802  1.00  0.00    -0.287 OA
HETATM    3  C1  UNK     1      19.352  -0.088  31.542  1.00  0.00     0.051 A 
HETATM    4  C2  UNK     1      19.420   0.785  30.457  1.00  0.00     0.090 A 
HETATM    5  C3  UNK     1      18.788   0.399  32.811  1.00  0.00     0.187 A 
HETATM    6  C4  UNK     1      18.450   2.545  31.712  1.00  0.00     0.053 A 
HETATM    7  C5  UNK     1      19.813  -1.401  31.422  1.00  0.00     0.054 A 
HETATM    8  C6  UNK     1      19.950   0.349  29.243  1.00  0.00     0.041 A 
HETATM    9  C7  UNK     1      18.333   1.802  32.823  1.00  0.00     0.088 A 
HETATM   10  C8  UNK     1      20.344  -1.834  30.206  1.00  0.00     0.066 A 
HETATM   11  C9  UNK     1      20.413  -0.963  29.119  1.00  0.00     0.039 A 
HETATM   12  C10 UNK     1      18.009   3.973  31.657  1.00  0.00     0.077 C 
ENDROOT
BRANCH  10  13
HETATM   13  O2  UNK     1      20.797  -3.112  30.080  1.00  0.00    -0.361 OA
HETATM   14  H8  UNK     1      21.277  -3.359  30.889  1.00  0.00     0.217 HD
ENDBRANCH  10  13
TORSDOF 1
ENDMDL
MODEL 4
REMARK VINA RESULT:      -6.3     13.626     15.745
REMARK  1 active torsions:
REMARK  status: ('A' for Active; 'I' for Inactive)
REMARK    1  A    between atoms: C8_11  and  O2_2 
ROOT
HETATM    1  O1  UNK     1      19.090  -0.265  16.997  1.00  0.00    -0.314 OA
HETATM    2  O3  UNK     1      19.443   3.790  16.819  1.00  0.00    -0.287 OA
HETATM    3  C1  UNK     1      19.169   1.864  18.163  1.00  0.00     0.051 A 
HETATM    4  C2  UNK     1      19.054   0.475  18.152  1.00  0.00     0.090 A 
HETATM    5  C3  UNK     1      19.336   2.573  16.884  1.00  0.00     0.187 A 
HETATM    6  C4  UNK     1      19.248   0.399  15.792  1.00  0.00     0.053 A 
HETATM    7  C5  UNK     1      19.125   2.567  19.369  1.00  0.00     0.054 A 
HETATM    8  C6  UNK     1      18.895  -0.221  19.350  1.00  0.00     0.041 A 
HETATM    9  C7  UNK     1      19.369   1.730  15.674  1.00  0.00     0.088 A 
HETATM   10  C8  UNK     1      18.966   1.868  20.566  1.00  0.00     0.066 A 
HETATM   11  C9  UNK     1      18.851   0.477  20.558  1.00  0.00     0.039 A 
HETATM   12  C10 UNK     1      19.273  -0.512  14.606  1.00  0.00     0.077 C 
ENDROOT
BRANCH  10  13
HETATM   13  O2  UNK     1      18.924   2.544  21.747  1.00  0.00    -0.361 OA
HETATM   14  H8  UNK     1      18.257   3.249  21.684  1.00  0.00     0.217 HD
ENDBRANCH  10  13
TORSDOF 1
ENDMDL
MODEL 5
REMARK VINA RESULT:      -6.3     15.753     16.532
REMARK  1 active torsions:
REMARK  status: ('A' for Active; 'I' for Inactive)
REMARK    1  A    between atoms: C8_11  and  O2_2 
ROOT
HETATM    1  O1  UNK     1      21.517  -9.295  35.430  1.00  0.00    -0.314 OA
HETATM    2  O3  UNK     1      19.118 -10.309  38.563  1.00  0.00    -0.287 OA
HETATM    3  C1  UNK     1      19.638  -8.747  36.868  1.00  0.00     0.051 A 
HETATM    4  C2  UNK     1      20.495  -8.461  35.806  1.00  0.00     0.090 A 
HETATM    5  C3  UNK     1      19.832  -9.995  37.621  1.00  0.00     0.187 A 
HETATM    6  C4  UNK     1      21.702 -10.472  36.137  1.00  0.00     0.053 A 
HETATM    7  C5  UNK     1      18.613  -7.859  37.207  1.00  0.00     0.054 A 
HETATM    8  C6  UNK     1      20.332  -7.283  35.076  1.00  0.00     0.041 A 
HETATM    9  C7  UNK     1      20.944 -10.857  37.175  1.00  0.00     0.088 A 
HETATM   10  C8  UNK     1      18.453  -6.682  36.475  1.00  0.00     0.066 A 
HETATM   11  C9  UNK     1      19.309  -6.394  35.412  1.00  0.00     0.039 A 
HETATM   12  C10 UNK     1      22.844 -11.297  35.634  1.00  0.00     0.077 C 
ENDROOT
BRANCH  10  13
HETATM   13  O2  UNK     1      17.457  -5.813  36.797  1.00  0.00    -0.361 OA
HETATM   14  H8  UNK     1      16.704  -5.957  36.198  1.00  0.00     0.217 HD
ENDBRANCH  10  13
TORSDOF 1
ENDMDL
MODEL 6
REMARK VINA RESULT:      -6.2     24.500     26.051
REMARK  1 active torsions:
REMARK  status: ('A' for Active; 'I' for Inactive)
REMARK    1  A    between atoms: C8_11  and  O2_2 
ROOT
HETATM    1  O1  UNK     1       7.453   5.955   8.401  1.00  0.00    -0.314 OA
HETATM    2  O3  UNK     1      10.867   4.670  10.217  1.00  0.00    -0.287 OA
HETATM    3  C1  UNK     1       9.851   5.583   8.288  1.00  0.00     0.051 A 
HETATM    4  C2  UNK     1       8.647   6.006   7.727  1.00  0.00     0.090 A 
HETATM    5  C3  UNK     1       9.848   5.058   9.663  1.00  0.00     0.187 A 
HETATM    6  C4  UNK     1       7.447   5.461   9.696  1.00  0.00     0.053 A 
HETATM    7  C5  UNK     1      11.037   5.659   7.555  1.00  0.00     0.054 A 
HETATM    8  C6  UNK     1       8.622   6.508   6.426  1.00  0.00     0.041 A 
HETATM    9  C7  UNK     1       8.539   5.026  10.343  1.00  0.00     0.088 A 
HETATM   10  C8  UNK     1      11.009   6.162   6.253  1.00  0.00     0.066 A 
HETATM   11  C9  UNK     1       9.806   6.585   5.689  1.00  0.00     0.039 A 
HETATM   12  C10 UNK     1       6.091   5.455  10.327  1.00  0.00     0.077 C 
ENDROOT
BRANCH  10  13
HETATM   13  O2  UNK     1      12.161   6.240   5.531  1.00  0.00    -0.361 OA
HETATM   14  H8  UNK     1      11.938   6.320   4.588  1.00  0.00     0.217 HD
ENDBRANCH  10  13
TORSDOF 1
ENDMDL
MODEL 7
REMARK VINA RESULT:      -6.2     15.496     16.066
REMARK  1 active torsions:
REMARK  status: ('A' for Active; 'I' for Inactive)
REMARK    1  A    between atoms: C8_11  and  O2_2 
ROOT
HETATM    1  O1  UNK     1      19.005  -8.212  36.899  1.00  0.00    -0.314 OA
HETATM    2  O3  UNK     1      21.118  -7.177  33.573  1.00  0.00    -0.287 OA
HETATM    3  C1  UNK     1      20.797  -8.715  35.338  1.00  0.00     0.051 A 
HETATM    4  C2  UNK     1      20.034  -9.010  36.468  1.00  0.00     0.090 A 
HETATM    5  C3  UNK     1      20.490  -7.497  34.572  1.00  0.00     0.187 A 
HETATM    6  C4  UNK     1      18.713  -7.065  36.179  1.00  0.00     0.053 A 
HETATM    7  C5  UNK     1      21.834  -9.565  34.945  1.00  0.00     0.054 A 
HETATM    8  C6  UNK     1      20.305 -10.159  37.212  1.00  0.00     0.041 A 
HETATM    9  C7  UNK     1      19.374  -6.676  35.078  1.00  0.00     0.088 A 
HETATM   10  C8  UNK     1      22.102 -10.713  35.692  1.00  0.00     0.066 A 
HETATM   11  C9  UNK     1      21.340 -11.010  36.822  1.00  0.00     0.039 A 
HETATM   12  C10 UNK     1      17.573  -6.279  36.745  1.00  0.00     0.077 C 
ENDROOT
BRANCH  10  13
HETATM   13  O2  UNK     1      23.110 -11.547  35.315  1.00  0.00    -0.361 OA
HETATM   14  H8  UNK     1      23.906 -11.019  35.130  1.00  0.00     0.217 HD
ENDBRANCH  10  13
TORSDOF 1
ENDMDL
MODEL 8
REMARK VINA RESULT:      -6.2      6.066      7.873
REMARK  1 active torsions:
REMARK  status: ('A' for Active; 'I' for Inactive)
REMARK    1  A    between atoms: C8_11  and  O2_2 
ROOT
HETATM    1  O1  UNK     1      19.735  -0.421  32.148  1.00  0.00    -0.314 OA
HETATM    2  O3  UNK     1      20.258  -0.912  28.137  1.00  0.00    -0.287 OA
HETATM    3  C1  UNK     1      19.485   0.461  29.899  1.00  0.00     0.051 A 
HETATM    4  C2  UNK     1      19.336   0.564  31.281  1.00  0.00     0.090 A 
HETATM    5  C3  UNK     1      20.096  -0.755  29.339  1.00  0.00     0.187 A 
HETATM    6  C4  UNK     1      20.312  -1.567  31.624  1.00  0.00     0.053 A 
HETATM    7  C5  UNK     1      19.059   1.497  29.063  1.00  0.00     0.054 A 
HETATM    8  C6  UNK     1      18.759   1.706  31.837  1.00  0.00     0.041 A 
HETATM    9  C7  UNK     1      20.509  -1.782  30.314  1.00  0.00     0.088 A 
HETATM   10  C8  UNK     1      18.483   2.638  29.623  1.00  0.00     0.066 A 
HETATM   11  C9  UNK     1      18.333   2.744  31.006  1.00  0.00     0.039 A 
HETATM   12  C10 UNK     1      20.706  -2.567  32.664  1.00  0.00     0.077 C 
ENDROOT
BRANCH  10  13
HETATM   13  O2  UNK     1      18.067   3.653  28.817  1.00  0.00    -0.361 OA
HETATM   14  H8  UNK     1      17.338   3.334  28.257  1.00  0.00     0.217 HD
ENDBRANCH  10  13
TORSDOF 1
ENDMDL
MODEL 9
REMARK VINA RESULT:      -6.2     24.266     25.895
REMARK  1 active torsions:
REMARK  status: ('A' for Active; 'I' for Inactive)
REMARK    1  A    between atoms: C8_11  and  O2_2 
ROOT
HETATM    1  O1  UNK     1       9.320   5.106  10.047  1.00  0.00    -0.314 OA
HETATM    2  O3  UNK     1       7.538   7.100   6.972  1.00  0.00    -0.287 OA
HETATM    3  C1  UNK     1       9.490   6.078   7.827  1.00  0.00     0.051 A 
HETATM    4  C2  UNK     1      10.038   5.399   8.915  1.00  0.00     0.090 A 
HETATM    5  C3  UNK     1       8.083   6.501   7.889  1.00  0.00     0.187 A 
HETATM    6  C4  UNK     1       7.994   5.503  10.108  1.00  0.00     0.053 A 
HETATM    7  C5  UNK     1      10.269   6.349   6.699  1.00  0.00     0.054 A 
HETATM    8  C6  UNK     1      11.370   4.986   8.881  1.00  0.00     0.041 A 
HETATM    9  C7  UNK     1       7.356   6.161   9.128  1.00  0.00     0.088 A 
HETATM   10  C8  UNK     1      11.601   5.934   6.668  1.00  0.00     0.066 A 
HETATM   11  C9  UNK     1      12.151   5.255   7.755  1.00  0.00     0.039 A 
HETATM   12  C10 UNK     1       7.317   5.129  11.388  1.00  0.00     0.077 C 
ENDROOT
BRANCH  10  13
HETATM   13  O2  UNK     1      12.367   6.193   5.573  1.00  0.00    -0.361 OA
HETATM   14  H8  UNK     1      11.870   5.948   4.774  1.00  0.00     0.217 HD
ENDBRANCH  10  13
TORSDOF 1
ENDMDL
MODEL 10
REMARK VINA RESULT:      -6.0     19.199     21.226
REMARK  1 active torsions:
REMARK  status: ('A' for Active; 'I' for Inactive)
REMARK    1  A    between atoms: C8_11  and  O2_2 
ROOT
HETATM    1  O1  UNK     1      20.909  -4.315  13.763  1.00  0.00    -0.314 OA
HETATM    2  O3  UNK     1      19.012  -1.423  15.918  1.00  0.00    -0.287 OA
HETATM    3  C1  UNK     1      19.587  -2.277  13.790  1.00  0.00     0.051 A 
HETATM    4  C2  UNK     1      20.256  -3.297  13.115  1.00  0.00     0.090 A 
HETATM    5  C3  UNK     1      19.578  -2.286  15.261  1.00  0.00     0.187 A 
HETATM    6  C4  UNK     1      20.901  -4.326  15.149  1.00  0.00     0.053 A 
HETATM    7  C5  UNK     1      18.939  -1.265  13.077  1.00  0.00     0.054 A 
HETATM    8  C6  UNK     1      20.280  -3.312  11.720  1.00  0.00     0.041 A 
HETATM    9  C7  UNK     1      20.294  -3.402  15.908  1.00  0.00     0.088 A 
HETATM   10  C8  UNK     1      18.964  -1.283  11.682  1.00  0.00     0.066 A 
HETATM   11  C9  UNK     1      19.632  -2.303  11.005  1.00  0.00     0.039 A 
HETATM   12  C10 UNK     1      21.644  -5.482  15.741  1.00  0.00     0.077 C 
ENDROOT
BRANCH  10  13
HETATM   13  O2  UNK     1      18.334  -0.302  10.979  1.00  0.00    -0.361 OA
HETATM   14  H8  UNK     1      17.603  -0.696  10.472  1.00  0.00     0.217 HD
ENDBRANCH  10  13
TORSDOF 1
ENDMDL
