MODEL 1
REMARK VINA RESULT:      -7.9      0.000      0.000
REMARK  2 active torsions:
REMARK  status: ('A' for Active; 'I' for Inactive)
REMARK    1  A    between atoms: C8_14  and  N1_4 
REMARK    2  A    between atoms: C1_7  and  C5_11 
ROOT
HETATM    1  O1  UNK     1      30.838  -5.418  38.245  1.00  0.00    -0.291 OA
HETATM    2  O2  UNK     1      31.653  -8.026  35.076  1.00  0.00    -0.274 OA
HETATM    3  O3  UNK     1      29.429  -8.491  34.883  1.00  0.00    -0.259 OA
HETATM    4  N3  UNK     1      26.070  -5.002  38.786  1.00  0.00    -0.191 NA
HETATM    5  C1  UNK     1      28.626  -6.858  37.115  1.00  0.00     0.109 C 
HETATM    6  C2  UNK     1      30.055  -6.996  36.623  1.00  0.00     0.066 A 
HETATM    7  C3  UNK     1      31.048  -6.303  37.202  1.00  0.00     0.104 A 
HETATM    8  C4  UNK     1      28.469  -5.715  38.113  1.00  0.00     0.086 C 
HETATM    9  C6  UNK     1      32.431  -6.449  36.758  1.00  0.00     0.033 A 
HETATM   10  C7  UNK     1      30.326  -7.892  35.469  1.00  0.00     0.298 A 
HETATM   11  C8  UNK     1      29.543  -5.072  38.625  1.00  0.00     0.159 C 
HETATM   12  C9  UNK     1      32.696  -7.318  35.703  1.00  0.00     0.092 A 
HETATM   13  C12 UNK     1      33.508  -5.768  37.339  1.00  0.00     0.017 A 
HETATM   14  C13 UNK     1      33.987  -7.524  35.218  1.00  0.00     0.038 A 
HETATM   15  C14 UNK     1      34.808  -5.963  36.863  1.00  0.00     0.001 A 
HETATM   16  C15 UNK     1      27.144  -5.322  38.485  1.00  0.00     0.100 C 
HETATM   17  C16 UNK     1      35.047  -6.840  35.805  1.00  0.00     0.003 A 
ENDROOT
BRANCH   5  18
HETATM   18  C5  UNK     1      28.153  -8.146  37.725  1.00  0.00    -0.041 A 
HETATM   19  C10 UNK     1      28.845  -8.695  38.792  1.00  0.00     0.027 A 
HETATM   20  C17 UNK     1      28.368  -9.884  39.321  1.00  0.00     0.116 A 
HETATM   21  N2  UNK     1      27.276 -10.533  38.859  1.00  0.00    -0.273 NA
HETATM   22  C18 UNK     1      26.633  -9.961  37.816  1.00  0.00     0.116 A 
HETATM   23  C11 UNK     1      27.029  -8.775  37.217  1.00  0.00     0.027 A 
ENDBRANCH   5  18
BRANCH  11  24
HETATM   24  N1  UNK     1      29.490  -4.051  39.534  1.00  0.00    -0.379 N 
HETATM   25  H8  UNK     1      28.753  -3.363  39.452  1.00  0.00     0.158 HD
HETATM   26  H9  UNK     1      30.173  -3.979  40.277  1.00  0.00     0.158 HD
ENDBRANCH  11  24
TORSDOF 2
ENDMDL
MODEL 2
REMARK VINA RESULT:      -7.9     33.924     35.141
REMARK  2 active torsions:
REMARK  status: ('A' for Active; 'I' for Inactive)
REMARK    1  A    between atoms: C8_14  and  N1_4 
REMARK    2  A    between atoms: C1_7  and  C5_11 
ROOT
HETATM    1  O1  UNK     1      16.883   8.415   9.992  1.00  0.00    -0.291 OA
HETATM    2  O2  UNK     1      13.697  10.560  11.654  1.00  0.00    -0.274 OA
HETATM    3  O3  UNK     1      12.437   8.660  11.699  1.00  0.00    -0.259 OA
HETATM    4  N3  UNK     1      15.756   3.734   9.854  1.00  0.00    -0.191 NA
HETATM    5  C1  UNK     1      14.427   6.998  10.446  1.00  0.00     0.109 C 
HETATM    6  C2  UNK     1      14.620   8.466  10.777  1.00  0.00     0.066 A 
HETATM    7  C3  UNK     1      15.791   9.074  10.529  1.00  0.00     0.104 A 
HETATM    8  C4  UNK     1      15.736   6.317  10.061  1.00  0.00     0.086 C 
HETATM    9  C6  UNK     1      15.981  10.494  10.815  1.00  0.00     0.033 A 
HETATM   10  C7  UNK     1      13.496   9.207  11.407  1.00  0.00     0.298 A 
HETATM   11  C8  UNK     1      16.866   7.029   9.849  1.00  0.00     0.159 C 
HETATM   12  C9  UNK     1      14.918  11.202  11.369  1.00  0.00     0.092 A 
HETATM   13  C12 UNK     1      17.172  11.184  10.559  1.00  0.00     0.017 A 
HETATM   14  C13 UNK     1      15.008  12.561  11.669  1.00  0.00     0.038 A 
HETATM   15  C14 UNK     1      17.278  12.546  10.855  1.00  0.00     0.001 A 
HETATM   16  C15 UNK     1      15.747   4.890   9.946  1.00  0.00     0.100 C 
HETATM   17  C16 UNK     1      16.198  13.234  11.408  1.00  0.00     0.003 A 
ENDROOT
BRANCH   5  18
HETATM   18  C5  UNK     1      13.417   6.835   9.346  1.00  0.00    -0.041 A 
HETATM   19  C10 UNK     1      13.589   7.512   8.150  1.00  0.00     0.027 A 
HETATM   20  C17 UNK     1      12.630   7.329   7.167  1.00  0.00     0.116 A 
HETATM   21  N2  UNK     1      11.547   6.533   7.306  1.00  0.00    -0.273 NA
HETATM   22  C18 UNK     1      11.419   5.892   8.490  1.00  0.00     0.116 A 
HETATM   23  C11 UNK     1      12.322   6.009   9.536  1.00  0.00     0.027 A 
ENDBRANCH   5  18
BRANCH  11  24
HETATM   24  N1  UNK     1      18.075   6.500   9.486  1.00  0.00    -0.379 N 
HETATM   25  H8  UNK     1      18.921   6.942   9.821  1.00  0.00     0.158 HD
HETATM   26  H9  UNK     1      18.129   5.682   8.893  1.00  0.00     0.158 HD
ENDBRANCH  11  24
TORSDOF 2
ENDMDL
MODEL 3
REMARK VINA RESULT:      -7.7     23.436     25.020
REMARK  2 active torsions:
REMARK  status: ('A' for Active; 'I' for Inactive)
REMARK    1  A    between atoms: C8_14  and  N1_4 
REMARK    2  A    between atoms: C1_7  and  C5_11 
ROOT
HETATM    1  O1  UNK     1      21.643  -5.890  14.968  1.00  0.00    -0.291 OA
HETATM    2  O2  UNK     1      21.135  -2.418  17.249  1.00  0.00    -0.274 OA
HETATM    3  O3  UNK     1      19.240  -1.924  16.081  1.00  0.00    -0.259 OA
HETATM    4  N3  UNK     1      17.837  -6.470  12.074  1.00  0.00    -0.191 NA
HETATM    5  C1  UNK     1      19.439  -4.176  14.296  1.00  0.00     0.109 C 
HETATM    6  C2  UNK     1      20.413  -3.886  15.423  1.00  0.00     0.066 A 
HETATM    7  C3  UNK     1      21.431  -4.723  15.680  1.00  0.00     0.104 A 
HETATM    8  C4  UNK     1      19.629  -5.574  13.717  1.00  0.00     0.086 C 
HETATM    9  C6  UNK     1      22.393  -4.440  16.742  1.00  0.00     0.033 A 
HETATM   10  C7  UNK     1      20.197  -2.673  16.255  1.00  0.00     0.298 A 
HETATM   11  C8  UNK     1      20.690  -6.341  14.058  1.00  0.00     0.159 C 
HETATM   12  C9  UNK     1      22.218  -3.284  17.498  1.00  0.00     0.092 A 
HETATM   13  C12 UNK     1      23.483  -5.265  17.040  1.00  0.00     0.017 A 
HETATM   14  C13 UNK     1      23.090  -2.932  18.528  1.00  0.00     0.038 A 
HETATM   15  C14 UNK     1      24.367  -4.926  18.070  1.00  0.00     0.001 A 
HETATM   16  C15 UNK     1      18.639  -6.069  12.809  1.00  0.00     0.100 C 
HETATM   17  C16 UNK     1      24.170  -3.762  18.812  1.00  0.00     0.003 A 
ENDROOT
BRANCH   5  18
HETATM   18  C5  UNK     1      19.568  -3.145  13.212  1.00  0.00    -0.041 A 
HETATM   19  C10 UNK     1      18.657  -2.105  13.142  1.00  0.00     0.027 A 
HETATM   20  C17 UNK     1      18.819  -1.179  12.123  1.00  0.00     0.116 A 
HETATM   21  N2  UNK     1      19.808  -1.233  11.203  1.00  0.00    -0.273 NA
HETATM   22  C18 UNK     1      20.674  -2.265  11.310  1.00  0.00     0.116 A 
HETATM   23  C11 UNK     1      20.597  -3.242  12.291  1.00  0.00     0.027 A 
ENDBRANCH   5  18
BRANCH  11  24
HETATM   24  N1  UNK     1      20.943  -7.596  13.573  1.00  0.00    -0.379 N 
HETATM   25  H8  UNK     1      21.149  -7.706  12.589  1.00  0.00     0.158 HD
HETATM   26  H9  UNK     1      20.925  -8.403  14.182  1.00  0.00     0.158 HD
ENDBRANCH  11  24
TORSDOF 2
ENDMDL
MODEL 4
REMARK VINA RESULT:      -7.7      3.049      5.808
REMARK  2 active torsions:
REMARK  status: ('A' for Active; 'I' for Inactive)
REMARK    1  A    between atoms: C8_14  and  N1_4 
REMARK    2  A    between atoms: C1_7  and  C5_11 
ROOT
HETATM    1  O1  UNK     1      30.523  -5.223  37.100  1.00  0.00    -0.291 OA
HETATM    2  O2  UNK     1      30.663  -9.403  37.218  1.00  0.00    -0.274 OA
HETATM    3  O3  UNK     1      32.474  -9.384  35.832  1.00  0.00    -0.259 OA
HETATM    4  N3  UNK     1      34.333  -3.565  34.662  1.00  0.00    -0.191 NA
HETATM    5  C1  UNK     1      32.509  -6.526  35.486  1.00  0.00     0.109 C 
HETATM    6  C2  UNK     1      31.524  -7.271  36.367  1.00  0.00     0.066 A 
HETATM    7  C3  UNK     1      30.611  -6.603  37.090  1.00  0.00     0.104 A 
HETATM    8  C4  UNK     1      32.472  -5.020  35.727  1.00  0.00     0.086 C 
HETATM    9  C6  UNK     1      29.637  -7.310  37.918  1.00  0.00     0.033 A 
HETATM   10  C7  UNK     1      31.611  -8.754  36.435  1.00  0.00     0.298 A 
HETATM   11  C8  UNK     1      31.510  -4.451  36.489  1.00  0.00     0.159 C 
HETATM   12  C9  UNK     1      29.689  -8.701  37.953  1.00  0.00     0.092 A 
HETATM   13  C12 UNK     1      28.651  -6.667  38.674  1.00  0.00     0.017 A 
HETATM   14  C13 UNK     1      28.796  -9.457  38.711  1.00  0.00     0.038 A 
HETATM   15  C14 UNK     1      27.748  -7.411  39.441  1.00  0.00     0.001 A 
HETATM   16  C15 UNK     1      33.500  -4.217  35.139  1.00  0.00     0.100 C 
HETATM   17  C16 UNK     1      27.821  -8.804  39.459  1.00  0.00     0.003 A 
ENDROOT
BRANCH   5  18
HETATM   18  C5  UNK     1      32.250  -6.824  34.038  1.00  0.00    -0.041 A 
HETATM   19  C10 UNK     1      30.998  -6.579  33.500  1.00  0.00     0.027 A 
HETATM   20  C17 UNK     1      30.809  -6.870  32.158  1.00  0.00     0.116 A 
HETATM   21  N2  UNK     1      31.769  -7.375  31.351  1.00  0.00    -0.273 NA
HETATM   22  C18 UNK     1      32.976  -7.598  31.919  1.00  0.00     0.116 A 
HETATM   23  C11 UNK     1      33.265  -7.341  33.250  1.00  0.00     0.027 A 
ENDBRANCH   5  18
BRANCH  11  24
HETATM   24  N1  UNK     1      31.394  -3.111  36.741  1.00  0.00    -0.379 N 
HETATM   25  H8  UNK     1      31.536  -2.458  35.982  1.00  0.00     0.158 HD
HETATM   26  H9  UNK     1      31.173  -2.772  37.668  1.00  0.00     0.158 HD
ENDBRANCH  11  24
TORSDOF 2
ENDMDL
MODEL 5
REMARK VINA RESULT:      -7.5      1.716      2.508
REMARK  2 active torsions:
REMARK  status: ('A' for Active; 'I' for Inactive)
REMARK    1  A    between atoms: C8_14  and  N1_4 
REMARK    2  A    between atoms: C1_7  and  C5_11 
ROOT
HETATM    1  O1  UNK     1      32.242  -6.576  37.081  1.00  0.00    -0.291 OA
HETATM    2  O2  UNK     1      29.944  -8.022  33.897  1.00  0.00    -0.274 OA
HETATM    3  O3  UNK     1      28.085  -7.053  34.794  1.00  0.00    -0.259 OA
HETATM    4  N3  UNK     1      29.520  -3.727  39.851  1.00  0.00    -0.191 NA
HETATM    5  C1  UNK     1      29.418  -6.061  37.146  1.00  0.00     0.109 C 
HETATM    6  C2  UNK     1      30.105  -6.821  36.027  1.00  0.00     0.066 A 
HETATM    7  C3  UNK     1      31.429  -7.039  36.062  1.00  0.00     0.104 A 
HETATM    8  C4  UNK     1      30.416  -5.417  38.103  1.00  0.00     0.086 C 
HETATM    9  C6  UNK     1      32.098  -7.796  35.006  1.00  0.00     0.033 A 
HETATM   10  C7  UNK     1      29.286  -7.292  34.880  1.00  0.00     0.298 A 
HETATM   11  C8  UNK     1      31.737  -5.699  38.039  1.00  0.00     0.159 C 
HETATM   12  C9  UNK     1      31.328  -8.273  33.949  1.00  0.00     0.092 A 
HETATM   13  C12 UNK     1      33.471  -8.071  35.001  1.00  0.00     0.017 A 
HETATM   14  C13 UNK     1      31.882  -9.009  32.902  1.00  0.00     0.038 A 
HETATM   15  C14 UNK     1      34.041  -8.806  33.957  1.00  0.00     0.001 A 
HETATM   16  C15 UNK     1      29.921  -4.484  39.068  1.00  0.00     0.100 C 
HETATM   17  C16 UNK     1      33.248  -9.275  32.910  1.00  0.00     0.003 A 
ENDROOT
BRANCH   5  18
HETATM   18  C5  UNK     1      28.487  -6.965  37.902  1.00  0.00    -0.041 A 
HETATM   19  C10 UNK     1      28.968  -8.141  38.451  1.00  0.00     0.027 A 
HETATM   20  C17 UNK     1      28.070  -8.941  39.140  1.00  0.00     0.116 A 
HETATM   21  N2  UNK     1      26.762  -8.641  39.305  1.00  0.00    -0.273 NA
HETATM   22  C18 UNK     1      26.337  -7.483  38.752  1.00  0.00     0.116 A 
HETATM   23  C11 UNK     1      27.154  -6.615  38.045  1.00  0.00     0.027 A 
ENDBRANCH   5  18
BRANCH  11  24
HETATM   24  N1  UNK     1      32.695  -5.179  38.867  1.00  0.00    -0.379 N 
HETATM   25  H8  UNK     1      33.548  -4.818  38.460  1.00  0.00     0.158 HD
HETATM   26  H9  UNK     1      32.560  -5.155  39.869  1.00  0.00     0.158 HD
ENDBRANCH  11  24
TORSDOF 2
ENDMDL
MODEL 6
REMARK VINA RESULT:      -7.3      3.279      4.892
REMARK  2 active torsions:
REMARK  status: ('A' for Active; 'I' for Inactive)
REMARK    1  A    between atoms: C8_14  and  N1_4 
REMARK    2  A    between atoms: C1_7  and  C5_11 
ROOT
HETATM    1  O1  UNK     1      31.405  -5.238  34.146  1.00  0.00    -0.291 OA
HETATM    2  O2  UNK     1      27.585  -6.917  33.837  1.00  0.00    -0.274 OA
HETATM    3  O3  UNK     1      27.571  -7.307  36.083  1.00  0.00    -0.259 OA
HETATM    4  N3  UNK     1      32.659  -4.965  38.788  1.00  0.00    -0.191 NA
HETATM    5  C1  UNK     1      30.238  -6.321  36.536  1.00  0.00     0.109 C 
HETATM    6  C2  UNK     1      29.544  -6.328  35.186  1.00  0.00     0.066 A 
HETATM    7  C3  UNK     1      30.149  -5.816  34.103  1.00  0.00     0.104 A 
HETATM    8  C4  UNK     1      31.513  -5.482  36.523  1.00  0.00     0.086 C 
HETATM    9  C6  UNK     1      29.504  -5.845  32.793  1.00  0.00     0.033 A 
HETATM   10  C7  UNK     1      28.170  -6.888  35.098  1.00  0.00     0.298 A 
HETATM   11  C8  UNK     1      32.029  -5.001  35.369  1.00  0.00     0.159 C 
HETATM   12  C9  UNK     1      28.233  -6.404  32.697  1.00  0.00     0.092 A 
HETATM   13  C12 UNK     1      30.095  -5.344  31.627  1.00  0.00     0.017 A 
HETATM   14  C13 UNK     1      27.545  -6.478  31.486  1.00  0.00     0.038 A 
HETATM   15  C14 UNK     1      29.418  -5.410  30.405  1.00  0.00     0.001 A 
HETATM   16  C15 UNK     1      32.146  -5.197  37.774  1.00  0.00     0.100 C 
HETATM   17  C16 UNK     1      28.145  -5.977  30.335  1.00  0.00     0.003 A 
ENDROOT
BRANCH   5  18
HETATM   18  C5  UNK     1      30.547  -7.723  36.976  1.00  0.00    -0.041 A 
HETATM   19  C10 UNK     1      30.025  -8.199  38.167  1.00  0.00     0.027 A 
HETATM   20  C17 UNK     1      30.339  -9.500  38.529  1.00  0.00     0.116 A 
HETATM   21  N2  UNK     1      31.118 -10.323  37.792  1.00  0.00    -0.273 NA
HETATM   22  C18 UNK     1      31.605  -9.816  36.638  1.00  0.00     0.116 A 
HETATM   23  C11 UNK     1      31.351  -8.529  36.188  1.00  0.00     0.027 A 
ENDBRANCH   5  18
BRANCH  11  24
HETATM   24  N1  UNK     1      33.173  -4.257  35.267  1.00  0.00    -0.379 N 
HETATM   25  H8  UNK     1      34.039  -4.724  35.034  1.00  0.00     0.158 HD
HETATM   26  H9  UNK     1      33.160  -3.257  35.423  1.00  0.00     0.158 HD
ENDBRANCH  11  24
TORSDOF 2
ENDMDL
MODEL 7
REMARK VINA RESULT:      -7.3      3.042      6.537
REMARK  2 active torsions:
REMARK  status: ('A' for Active; 'I' for Inactive)
REMARK    1  A    between atoms: C8_14  and  N1_4 
REMARK    2  A    between atoms: C1_7  and  C5_11 
ROOT
HETATM    1  O1  UNK     1      30.087  -8.903  35.437  1.00  0.00    -0.291 OA
HETATM    2  O2  UNK     1      29.363  -5.835  38.189  1.00  0.00    -0.274 OA
HETATM    3  O3  UNK     1      30.585  -4.395  36.910  1.00  0.00    -0.259 OA
HETATM    4  N3  UNK     1      32.418  -7.110  31.623  1.00  0.00    -0.191 NA
HETATM    5  C1  UNK     1      31.331  -6.362  34.944  1.00  0.00     0.109 C 
HETATM    6  C2  UNK     1      30.436  -6.639  36.137  1.00  0.00     0.066 A 
HETATM    7  C3  UNK     1      29.893  -7.854  36.318  1.00  0.00     0.104 A 
HETATM    8  C4  UNK     1      31.311  -7.504  33.932  1.00  0.00     0.086 C 
HETATM    9  C6  UNK     1      29.055  -8.142  37.478  1.00  0.00     0.033 A 
HETATM   10  C7  UNK     1      30.151  -5.530  37.084  1.00  0.00     0.298 A 
HETATM   11  C8  UNK     1      30.720  -8.687  34.215  1.00  0.00     0.159 C 
HETATM   12  C9  UNK     1      28.817  -7.117  38.390  1.00  0.00     0.092 A 
HETATM   13  C12 UNK     1      28.480  -9.394  37.728  1.00  0.00     0.017 A 
HETATM   14  C13 UNK     1      28.033  -7.304  39.529  1.00  0.00     0.038 A 
HETATM   15  C14 UNK     1      27.691  -9.597  38.864  1.00  0.00     0.001 A 
HETATM   16  C15 UNK     1      31.923  -7.286  32.657  1.00  0.00     0.100 C 
HETATM   17  C16 UNK     1      27.469  -8.554  39.763  1.00  0.00     0.003 A 
ENDROOT
BRANCH   5  18
HETATM   18  C5  UNK     1      32.738  -6.094  35.393  1.00  0.00    -0.041 A 
HETATM   19  C10 UNK     1      33.392  -7.017  36.192  1.00  0.00     0.027 A 
HETATM   20  C17 UNK     1      34.690  -6.723  36.579  1.00  0.00     0.116 A 
HETATM   21  N2  UNK     1      35.349  -5.598  36.224  1.00  0.00    -0.273 NA
HETATM   22  C18 UNK     1      34.672  -4.725  35.444  1.00  0.00     0.116 A 
HETATM   23  C11 UNK     1      33.373  -4.925  35.004  1.00  0.00     0.027 A 
ENDBRANCH   5  18
BRANCH  11  24
HETATM   24  N1  UNK     1      30.671  -9.765  33.372  1.00  0.00    -0.379 N 
HETATM   25  H8  UNK     1      30.201  -9.666  32.482  1.00  0.00     0.158 HD
HETATM   26  H9  UNK     1      31.095 -10.646  33.630  1.00  0.00     0.158 HD
ENDBRANCH  11  24
TORSDOF 2
ENDMDL
MODEL 8
REMARK VINA RESULT:      -7.2      3.869      6.291
REMARK  2 active torsions:
REMARK  status: ('A' for Active; 'I' for Inactive)
REMARK    1  A    between atoms: C8_14  and  N1_4 
REMARK    2  A    between atoms: C1_7  and  C5_11 
ROOT
HETATM    1  O1  UNK     1      32.359  -4.856  35.889  1.00  0.00    -0.291 OA
HETATM    2  O2  UNK     1      28.962  -7.266  36.289  1.00  0.00    -0.274 OA
HETATM    3  O3  UNK     1      29.652  -8.536  34.526  1.00  0.00    -0.259 OA
HETATM    4  N3  UNK     1      35.251  -6.720  32.518  1.00  0.00    -0.191 NA
HETATM    5  C1  UNK     1      31.992  -6.955  33.965  1.00  0.00     0.109 C 
HETATM    6  C2  UNK     1      31.027  -6.684  35.103  1.00  0.00     0.066 A 
HETATM    7  C3  UNK     1      31.249  -5.678  35.964  1.00  0.00     0.104 A 
HETATM    8  C4  UNK     1      33.276  -6.141  34.092  1.00  0.00     0.086 C 
HETATM    9  C6  UNK     1      30.312  -5.387  37.046  1.00  0.00     0.033 A 
HETATM   10  C7  UNK     1      29.847  -7.574  35.262  1.00  0.00     0.298 A 
HETATM   11  C8  UNK     1      33.398  -5.155  35.010  1.00  0.00     0.159 C 
HETATM   12  C9  UNK     1      29.184  -6.193  37.174  1.00  0.00     0.092 A 
HETATM   13  C12 UNK     1      30.483  -4.340  37.958  1.00  0.00     0.017 A 
HETATM   14  C13 UNK     1      28.234  -5.985  38.174  1.00  0.00     0.038 A 
HETATM   15  C14 UNK     1      29.539  -4.119  38.967  1.00  0.00     0.001 A 
HETATM   16  C15 UNK     1      34.367  -6.461  33.223  1.00  0.00     0.100 C 
HETATM   17  C16 UNK     1      28.417  -4.940  39.074  1.00  0.00     0.003 A 
ENDROOT
BRANCH   5  18
HETATM   18  C5  UNK     1      31.336  -6.682  32.642  1.00  0.00    -0.041 A 
HETATM   19  C10 UNK     1      30.610  -5.516  32.464  1.00  0.00     0.027 A 
HETATM   20  C17 UNK     1      30.025  -5.309  31.225  1.00  0.00     0.116 A 
HETATM   21  N2  UNK     1      30.121  -6.173  30.190  1.00  0.00    -0.273 NA
HETATM   22  C18 UNK     1      30.838  -7.298  30.409  1.00  0.00     0.116 A 
HETATM   23  C11 UNK     1      31.462  -7.597  31.610  1.00  0.00     0.027 A 
ENDBRANCH   5  18
BRANCH  11  24
HETATM   24  N1  UNK     1      34.505  -4.369  35.179  1.00  0.00    -0.379 N 
HETATM   25  H8  UNK     1      34.913  -3.921  34.368  1.00  0.00     0.158 HD
HETATM   26  H9  UNK     1      34.914  -4.234  36.094  1.00  0.00     0.158 HD
ENDBRANCH  11  24
TORSDOF 2
ENDMDL
MODEL 9
REMARK VINA RESULT:      -7.2     34.991     36.431
REMARK  2 active torsions:
REMARK  status: ('A' for Active; 'I' for Inactive)
REMARK    1  A    between atoms: C8_14  and  N1_4 
REMARK    2  A    between atoms: C1_7  and  C5_11 
ROOT
HETATM    1  O1  UNK     1      11.217   8.983  10.199  1.00  0.00    -0.291 OA
HETATM    2  O2  UNK     1      13.371   6.165   7.979  1.00  0.00    -0.274 OA
HETATM    3  O3  UNK     1      15.226   6.588   9.236  1.00  0.00    -0.259 OA
HETATM    4  N3  UNK     1      13.948  10.582  13.830  1.00  0.00    -0.191 NA
HETATM    5  C1  UNK     1      14.002   8.660  10.818  1.00  0.00     0.109 C 
HETATM    6  C2  UNK     1      13.286   7.868   9.740  1.00  0.00     0.066 A 
HETATM    7  C3  UNK     1      11.983   8.074   9.491  1.00  0.00     0.104 A 
HETATM    8  C4  UNK     1      13.036   9.473  11.673  1.00  0.00     0.086 C 
HETATM    9  C6  UNK     1      11.289   7.340   8.436  1.00  0.00     0.033 A 
HETATM   10  C7  UNK     1      14.051   6.839   8.988  1.00  0.00     0.298 A 
HETATM   11  C8  UNK     1      11.732   9.603  11.335  1.00  0.00     0.159 C 
HETATM   12  C9  UNK     1      12.011   6.403   7.702  1.00  0.00     0.092 A 
HETATM   13  C12 UNK     1       9.939   7.529   8.120  1.00  0.00     0.017 A 
HETATM   14  C13 UNK     1      11.431   5.661   6.673  1.00  0.00     0.038 A 
HETATM   15  C14 UNK     1       9.342   6.791   7.092  1.00  0.00     0.001 A 
HETATM   16  C15 UNK     1      13.540  10.085  12.864  1.00  0.00     0.100 C 
HETATM   17  C16 UNK     1      10.088   5.859   6.370  1.00  0.00     0.003 A 
ENDROOT
BRANCH   5  18
HETATM   18  C5  UNK     1      15.036   9.562  10.207  1.00  0.00    -0.041 A 
HETATM   19  C10 UNK     1      16.346   9.507  10.654  1.00  0.00     0.027 A 
HETATM   20  C17 UNK     1      17.262  10.359  10.058  1.00  0.00     0.116 A 
HETATM   21  N2  UNK     1      16.953  11.234   9.075  1.00  0.00    -0.273 NA
HETATM   22  C18 UNK     1      15.663  11.253   8.671  1.00  0.00     0.116 A 
HETATM   23  C11 UNK     1      14.672  10.443   9.202  1.00  0.00     0.027 A 
ENDBRANCH   5  18
BRANCH  11  24
HETATM   24  N1  UNK     1      10.805  10.325  12.036  1.00  0.00    -0.379 N 
HETATM   25  H8  UNK     1      10.078   9.830  12.536  1.00  0.00     0.158 HD
HETATM   26  H9  UNK     1      10.839  11.336  12.058  1.00  0.00     0.158 HD
ENDBRANCH  11  24
TORSDOF 2
ENDMDL
MODEL 10
REMARK VINA RESULT:      -7.2      3.017      6.367
REMARK  2 active torsions:
REMARK  status: ('A' for Active; 'I' for Inactive)
REMARK    1  A    between atoms: C8_14  and  N1_4 
REMARK    2  A    between atoms: C1_7  and  C5_11 
ROOT
HETATM    1  O1  UNK     1      28.543  -8.326  34.957  1.00  0.00    -0.291 OA
HETATM    2  O2  UNK     1      28.973  -6.398  38.646  1.00  0.00    -0.274 OA
HETATM    3  O3  UNK     1      30.078  -4.685  37.625  1.00  0.00    -0.259 OA
HETATM    4  N3  UNK     1      30.181  -5.454  31.454  1.00  0.00    -0.191 NA
HETATM    5  C1  UNK     1      30.026  -5.867  35.000  1.00  0.00     0.109 C 
HETATM    6  C2  UNK     1      29.400  -6.490  36.234  1.00  0.00     0.066 A 
HETATM    7  C3  UNK     1      28.728  -7.649  36.149  1.00  0.00     0.104 A 
HETATM    8  C4  UNK     1      29.591  -6.569  33.717  1.00  0.00     0.086 C 
HETATM    9  C6  UNK     1      28.147  -8.275  37.334  1.00  0.00     0.033 A 
HETATM   10  C7  UNK     1      29.522  -5.774  37.531  1.00  0.00     0.298 A 
HETATM   11  C8  UNK     1      28.901  -7.732  33.748  1.00  0.00     0.159 C 
HETATM   12  C9  UNK     1      28.292  -7.628  38.558  1.00  0.00     0.092 A 
HETATM   13  C12 UNK     1      27.455  -9.491  37.308  1.00  0.00     0.017 A 
HETATM   14  C13 UNK     1      27.775  -8.155  39.742  1.00  0.00     0.038 A 
HETATM   15  C14 UNK     1      26.929 -10.032  38.486  1.00  0.00     0.001 A 
HETATM   16  C15 UNK     1      29.917  -5.953  32.467  1.00  0.00     0.100 C 
HETATM   17  C16 UNK     1      27.090  -9.365  39.700  1.00  0.00     0.003 A 
ENDROOT
BRANCH   5  18
HETATM   18  C5  UNK     1      31.523  -5.873  35.110  1.00  0.00    -0.041 A 
HETATM   19  C10 UNK     1      32.227  -4.690  34.961  1.00  0.00     0.027 A 
HETATM   20  C17 UNK     1      33.608  -4.748  35.072  1.00  0.00     0.116 A 
HETATM   21  N2  UNK     1      34.300  -5.883  35.317  1.00  0.00    -0.273 NA
HETATM   22  C18 UNK     1      33.572  -7.013  35.456  1.00  0.00     0.116 A 
HETATM   23  C11 UNK     1      32.189  -7.061  35.362  1.00  0.00     0.027 A 
ENDBRANCH   5  18
BRANCH  11  24
HETATM   24  N1  UNK     1      28.489  -8.433  32.648  1.00  0.00    -0.379 N 
HETATM   25  H8  UNK     1      29.057  -9.203  32.319  1.00  0.00     0.158 HD
HETATM   26  H9  UNK     1      27.633  -8.191  32.166  1.00  0.00     0.158 HD
ENDBRANCH  11  24
TORSDOF 2
ENDMDL
