MODEL 1
REMARK VINA RESULT:      -9.2      0.000      0.000
REMARK  5 active torsions:
REMARK  status: ('A' for Active; 'I' for Inactive)
REMARK    1  A    between atoms: C14_19  and  O2_2 
REMARK    2  A    between atoms: C2_7  and  N1_5 
REMARK       I    between atoms: C6_11  and  N1_5 
REMARK    3  A    between atoms: C1_6  and  C2_7 
REMARK    4  A    between atoms: C1_6  and  C3_8 
REMARK    5  A    between atoms: C4_9  and  C6_11 
ROOT
HETATM    1  O3  UNK     1      18.023   3.062  28.701  1.00  0.00    -0.267 OA
HETATM    2  N1  UNK     1      19.191   4.121  30.418  1.00  0.00    -0.356 N 
HETATM    3  C6  UNK     1      18.672   3.030  29.744  1.00  0.00     0.257 C 
HETATM    4  H5  UNK     1      19.691   3.991  31.292  1.00  0.00     0.162 HD
ENDROOT
BRANCH   3   5
HETATM    5  C4  UNK     1      18.974   1.754  30.405  1.00  0.00     0.108 A 
HETATM    6  C13 UNK     1      18.594   1.490  31.812  1.00  0.00     0.304 A 
HETATM    7  O1  UNK     1      18.935   0.242  32.326  1.00  0.00    -0.274 OA
HETATM    8  O4  UNK     1      18.009   2.324  32.493  1.00  0.00    -0.259 OA
HETATM    9  C10 UNK     1      19.606  -0.725  31.551  1.00  0.00     0.089 A 
HETATM   10  C5  UNK     1      19.953  -0.455  30.231  1.00  0.00    -0.001 A 
HETATM   11  C16 UNK     1      19.903  -1.944  32.154  1.00  0.00     0.038 A 
HETATM   12  C15 UNK     1      20.618  -1.439  29.495  1.00  0.00     0.014 A 
HETATM   13  C9  UNK     1      19.612   0.840  29.664  1.00  0.00     0.037 A 
HETATM   14  C17 UNK     1      20.923  -2.668  30.085  1.00  0.00     0.001 A 
HETATM   15  C18 UNK     1      20.566  -2.920  31.413  1.00  0.00     0.003 A 
ENDBRANCH   3   5
BRANCH   2  16
HETATM   16  C2  UNK     1      19.026   5.481  29.959  1.00  0.00     0.127 C 
BRANCH  16  17
HETATM   17  C1  UNK     1      19.269   6.506  31.064  1.00  0.00     0.058 C 
BRANCH  17  18
HETATM   18  C3  UNK     1      18.019   6.842  31.840  1.00  0.00    -0.057 A 
HETATM   19  C7  UNK     1      16.986   7.515  31.207  1.00  0.00     0.010 A 
HETATM   20  C11 UNK     1      15.831   7.825  31.925  1.00  0.00     0.037 A 
HETATM   21  C14 UNK     1      15.723   7.458  33.266  1.00  0.00     0.068 A 
HETATM   22  C12 UNK     1      16.771   6.781  33.890  1.00  0.00     0.037 A 
HETATM   23  C8  UNK     1      17.926   6.470  33.173  1.00  0.00     0.010 A 
BRANCH  21  24
HETATM   24  O2  UNK     1      14.596   7.761  33.966  1.00  0.00    -0.356 OA
HETATM   25  C19 UNK     1      14.371   9.137  34.271  1.00  0.00     0.210 C 
ENDBRANCH  21  24
ENDBRANCH  17  18
ENDBRANCH  16  17
ENDBRANCH   2  16
TORSDOF 5
ENDMDL
MODEL 2
REMARK VINA RESULT:      -9.2      1.340      2.084
REMARK  5 active torsions:
REMARK  status: ('A' for Active; 'I' for Inactive)
REMARK    1  A    between atoms: C14_19  and  O2_2 
REMARK    2  A    between atoms: C2_7  and  N1_5 
REMARK       I    between atoms: C6_11  and  N1_5 
REMARK    3  A    between atoms: C1_6  and  C2_7 
REMARK    4  A    between atoms: C1_6  and  C3_8 
REMARK    5  A    between atoms: C4_9  and  C6_11 
ROOT
HETATM    1  O3  UNK     1      17.556   3.450  31.583  1.00  0.00    -0.267 OA
HETATM    2  N1  UNK     1      19.155   4.307  30.119  1.00  0.00    -0.356 N 
HETATM    3  C6  UNK     1      18.449   3.299  30.752  1.00  0.00     0.257 C 
HETATM    4  H5  UNK     1      19.897   4.078  29.466  1.00  0.00     0.162 HD
ENDROOT
BRANCH   3   5
HETATM    5  C4  UNK     1      18.869   1.957  30.332  1.00  0.00     0.108 A 
HETATM    6  C13 UNK     1      18.724   1.491  28.934  1.00  0.00     0.304 A 
HETATM    7  O1  UNK     1      19.159   0.198  28.660  1.00  0.00    -0.274 OA
HETATM    8  O4  UNK     1      18.247   2.204  28.059  1.00  0.00    -0.259 OA
HETATM    9  C10 UNK     1      19.711  -0.630  29.657  1.00  0.00     0.089 A 
HETATM   10  C5  UNK     1      19.837  -0.172  30.964  1.00  0.00    -0.001 A 
HETATM   11  C16 UNK     1      20.118  -1.909  29.285  1.00  0.00     0.038 A 
HETATM   12  C15 UNK     1      20.389  -1.022  31.926  1.00  0.00     0.014 A 
HETATM   13  C9  UNK     1      19.392   1.175  31.284  1.00  0.00     0.037 A 
HETATM   14  C17 UNK     1      20.802  -2.308  31.569  1.00  0.00     0.001 A 
HETATM   15  C18 UNK     1      20.667  -2.750  30.250  1.00  0.00     0.003 A 
ENDBRANCH   3   5
BRANCH   2  16
HETATM   16  C2  UNK     1      18.918   5.710  30.367  1.00  0.00     0.127 C 
BRANCH  16  17
HETATM   17  C1  UNK     1      19.698   6.233  31.570  1.00  0.00     0.058 C 
BRANCH  17  18
HETATM   18  C3  UNK     1      18.821   6.928  32.583  1.00  0.00    -0.057 A 
HETATM   19  C7  UNK     1      17.470   7.086  32.317  1.00  0.00     0.010 A 
HETATM   20  C11 UNK     1      16.661   7.729  33.254  1.00  0.00     0.037 A 
HETATM   21  C14 UNK     1      17.212   8.205  34.444  1.00  0.00     0.068 A 
HETATM   22  C12 UNK     1      18.573   8.038  34.697  1.00  0.00     0.037 A 
HETATM   23  C8  UNK     1      19.384   7.396  33.761  1.00  0.00     0.010 A 
BRANCH  21  24
HETATM   24  O2  UNK     1      16.421   8.832  35.357  1.00  0.00    -0.356 OA
HETATM   25  C19 UNK     1      15.506   9.810  34.863  1.00  0.00     0.210 C 
ENDBRANCH  21  24
ENDBRANCH  17  18
ENDBRANCH  16  17
ENDBRANCH   2  16
TORSDOF 5
ENDMDL
MODEL 3
REMARK VINA RESULT:      -9.2      1.039      1.266
REMARK  5 active torsions:
REMARK  status: ('A' for Active; 'I' for Inactive)
REMARK    1  A    between atoms: C14_19  and  O2_2 
REMARK    2  A    between atoms: C2_7  and  N1_5 
REMARK       I    between atoms: C6_11  and  N1_5 
REMARK    3  A    between atoms: C1_6  and  C2_7 
REMARK    4  A    between atoms: C1_6  and  C3_8 
REMARK    5  A    between atoms: C4_9  and  C6_11 
ROOT
HETATM    1  O3  UNK     1      18.062   2.490  28.427  1.00  0.00    -0.267 OA
HETATM    2  N1  UNK     1      19.120   3.753  30.075  1.00  0.00    -0.356 N 
HETATM    3  C6  UNK     1      18.672   2.583  29.490  1.00  0.00     0.257 C 
HETATM    4  H5  UNK     1      19.591   3.728  30.974  1.00  0.00     0.162 HD
ENDROOT
BRANCH   3   5
HETATM    5  C4  UNK     1      18.998   1.389  30.279  1.00  0.00     0.108 A 
HETATM    6  C13 UNK     1      18.629   1.266  31.708  1.00  0.00     0.304 A 
HETATM    7  O1  UNK     1      18.994   0.085  32.347  1.00  0.00    -0.274 OA
HETATM    8  O4  UNK     1      18.033   2.157  32.302  1.00  0.00    -0.259 OA
HETATM    9  C10 UNK     1      19.679  -0.945  31.673  1.00  0.00     0.089 A 
HETATM   10  C5  UNK     1      20.015  -0.809  30.331  1.00  0.00    -0.001 A 
HETATM   11  C16 UNK     1      20.000  -2.090  32.399  1.00  0.00     0.038 A 
HETATM   12  C15 UNK     1      20.694  -1.853  29.697  1.00  0.00     0.014 A 
HETATM   13  C9  UNK     1      19.649   0.413  29.633  1.00  0.00     0.037 A 
HETATM   14  C17 UNK     1      21.024  -3.008  30.411  1.00  0.00     0.001 A 
HETATM   15  C18 UNK     1      20.677  -3.127  31.759  1.00  0.00     0.003 A 
ENDBRANCH   3   5
BRANCH   2  16
HETATM   16  C2  UNK     1      18.920   5.057  29.484  1.00  0.00     0.127 C 
BRANCH  16  17
HETATM   17  C1  UNK     1      19.711   6.151  30.195  1.00  0.00     0.058 C 
BRANCH  17  18
HETATM   18  C3  UNK     1      19.090   6.570  31.506  1.00  0.00    -0.057 A 
HETATM   19  C7  UNK     1      17.747   6.913  31.543  1.00  0.00     0.010 A 
HETATM   20  C11 UNK     1      17.174   7.300  32.754  1.00  0.00     0.037 A 
HETATM   21  C14 UNK     1      17.950   7.338  33.913  1.00  0.00     0.068 A 
HETATM   22  C12 UNK     1      19.300   6.990  33.860  1.00  0.00     0.037 A 
HETATM   23  C8  UNK     1      19.874   6.603  32.649  1.00  0.00     0.010 A 
BRANCH  21  24
HETATM   24  O2  UNK     1      17.391   7.716  35.094  1.00  0.00    -0.356 OA
HETATM   25  C19 UNK     1      16.265   8.592  35.030  1.00  0.00     0.210 C 
ENDBRANCH  21  24
ENDBRANCH  17  18
ENDBRANCH  16  17
ENDBRANCH   2  16
TORSDOF 5
ENDMDL
MODEL 4
REMARK VINA RESULT:      -8.8      7.016     12.975
REMARK  5 active torsions:
REMARK  status: ('A' for Active; 'I' for Inactive)
REMARK    1  A    between atoms: C14_19  and  O2_2 
REMARK    2  A    between atoms: C2_7  and  N1_5 
REMARK       I    between atoms: C6_11  and  N1_5 
REMARK    3  A    between atoms: C1_6  and  C2_7 
REMARK    4  A    between atoms: C1_6  and  C3_8 
REMARK    5  A    between atoms: C4_9  and  C6_11 
ROOT
HETATM    1  O3  UNK     1      20.747  -4.764  36.638  1.00  0.00    -0.267 OA
HETATM    2  N1  UNK     1      18.431  -5.023  36.694  1.00  0.00    -0.356 N 
HETATM    3  C6  UNK     1      19.607  -4.312  36.542  1.00  0.00     0.257 C 
HETATM    4  H5  UNK     1      17.536  -4.551  36.624  1.00  0.00     0.162 HD
ENDROOT
BRANCH   3   5
HETATM    5  C4  UNK     1      19.382  -2.893  36.239  1.00  0.00     0.108 A 
HETATM    6  C13 UNK     1      19.901  -2.262  35.004  1.00  0.00     0.304 A 
HETATM    7  O1  UNK     1      19.622  -0.910  34.830  1.00  0.00    -0.274 OA
HETATM    8  O4  UNK     1      20.546  -2.894  34.175  1.00  0.00    -0.259 OA
HETATM    9  C10 UNK     1      18.882  -0.175  35.776  1.00  0.00     0.089 A 
HETATM   10  C5  UNK     1      18.403  -0.788  36.929  1.00  0.00    -0.001 A 
HETATM   11  C16 UNK     1      18.653   1.174  35.512  1.00  0.00     0.038 A 
HETATM   12  C15 UNK     1      17.672  -0.025  37.845  1.00  0.00     0.014 A 
HETATM   13  C9  UNK     1      18.678  -2.200  37.142  1.00  0.00     0.037 A 
HETATM   14  C17 UNK     1      17.434   1.329  37.594  1.00  0.00     0.001 A 
HETATM   15  C18 UNK     1      17.923   1.927  36.430  1.00  0.00     0.003 A 
ENDBRANCH   3   5
BRANCH   2  16
HETATM   16  C2  UNK     1      18.398  -6.437  36.993  1.00  0.00     0.127 C 
BRANCH  16  17
HETATM   17  C1  UNK     1      18.609  -7.303  35.754  1.00  0.00     0.058 C 
BRANCH  17  18
HETATM   18  C3  UNK     1      19.612  -8.410  35.974  1.00  0.00    -0.057 A 
HETATM   19  C7  UNK     1      20.823  -8.373  35.302  1.00  0.00     0.010 A 
HETATM   20  C11 UNK     1      21.749  -9.396  35.505  1.00  0.00     0.037 A 
HETATM   21  C14 UNK     1      21.452 -10.443  36.378  1.00  0.00     0.068 A 
HETATM   22  C12 UNK     1      20.228 -10.467  37.047  1.00  0.00     0.037 A 
HETATM   23  C8  UNK     1      19.302  -9.444  36.844  1.00  0.00     0.010 A 
BRANCH  21  24
HETATM   24  O2  UNK     1      22.355 -11.441  36.576  1.00  0.00    -0.356 OA
HETATM   25  C19 UNK     1      23.480 -11.484  35.698  1.00  0.00     0.210 C 
ENDBRANCH  21  24
ENDBRANCH  17  18
ENDBRANCH  16  17
ENDBRANCH   2  16
TORSDOF 5
ENDMDL
MODEL 5
REMARK VINA RESULT:      -8.6      5.400     10.344
REMARK  5 active torsions:
REMARK  status: ('A' for Active; 'I' for Inactive)
REMARK    1  A    between atoms: C14_19  and  O2_2 
REMARK    2  A    between atoms: C2_7  and  N1_5 
REMARK       I    between atoms: C6_11  and  N1_5 
REMARK    3  A    between atoms: C1_6  and  C2_7 
REMARK    4  A    between atoms: C1_6  and  C3_8 
REMARK    5  A    between atoms: C4_9  and  C6_11 
ROOT
HETATM    1  O3  UNK     1      17.343  -1.107  35.715  1.00  0.00    -0.267 OA
HETATM    2  N1  UNK     1      19.433  -2.136  35.629  1.00  0.00    -0.356 N 
HETATM    3  C6  UNK     1      18.407  -1.346  35.145  1.00  0.00     0.257 C 
HETATM    4  H5  UNK     1      20.263  -2.296  35.067  1.00  0.00     0.162 HD
ENDROOT
BRANCH   3   5
HETATM    5  C4  UNK     1      18.698  -0.777  33.823  1.00  0.00     0.108 A 
HETATM    6  C13 UNK     1      18.379   0.629  33.486  1.00  0.00     0.304 A 
HETATM    7  O1  UNK     1      18.703   1.051  32.200  1.00  0.00    -0.274 OA
HETATM    8  O4  UNK     1      17.855   1.387  34.295  1.00  0.00    -0.259 OA
HETATM    9  C10 UNK     1      19.306   0.189  31.264  1.00  0.00     0.089 A 
HETATM   10  C5  UNK     1      19.598  -1.128  31.602  1.00  0.00    -0.001 A 
HETATM   11  C16 UNK     1      19.594   0.704  30.002  1.00  0.00     0.038 A 
HETATM   12  C15 UNK     1      20.196  -1.953  30.646  1.00  0.00     0.014 A 
HETATM   13  C9  UNK     1      19.271  -1.601  32.938  1.00  0.00     0.037 A 
HETATM   14  C17 UNK     1      20.491  -1.452  29.375  1.00  0.00     0.001 A 
HETATM   15  C18 UNK     1      20.191  -0.125  29.054  1.00  0.00     0.003 A 
ENDBRANCH   3   5
BRANCH   2  16
HETATM   16  C2  UNK     1      19.378  -2.801  36.911  1.00  0.00     0.127 C 
BRANCH  16  17
HETATM   17  C1  UNK     1      20.522  -3.791  37.107  1.00  0.00     0.058 C 
BRANCH  17  18
HETATM   18  C3  UNK     1      20.045  -5.183  37.444  1.00  0.00    -0.057 A 
HETATM   19  C7  UNK     1      19.085  -5.784  36.645  1.00  0.00     0.010 A 
HETATM   20  C11 UNK     1      18.645  -7.070  36.957  1.00  0.00     0.037 A 
HETATM   21  C14 UNK     1      19.170  -7.740  38.062  1.00  0.00     0.068 A 
HETATM   22  C12 UNK     1      20.136  -7.122  38.857  1.00  0.00     0.037 A 
HETATM   23  C8  UNK     1      20.577  -5.835  38.545  1.00  0.00     0.010 A 
BRANCH  21  24
HETATM   24  O2  UNK     1      18.740  -8.994  38.366  1.00  0.00    -0.356 OA
HETATM   25  C19 UNK     1      19.238 -10.065  37.564  1.00  0.00     0.210 C 
ENDBRANCH  21  24
ENDBRANCH  17  18
ENDBRANCH  16  17
ENDBRANCH   2  16
TORSDOF 5
ENDMDL
MODEL 6
REMARK VINA RESULT:      -8.5      5.996      9.444
REMARK  5 active torsions:
REMARK  status: ('A' for Active; 'I' for Inactive)
REMARK    1  A    between atoms: C14_19  and  O2_2 
REMARK    2  A    between atoms: C2_7  and  N1_5 
REMARK       I    between atoms: C6_11  and  N1_5 
REMARK    3  A    between atoms: C1_6  and  C2_7 
REMARK    4  A    between atoms: C1_6  and  C3_8 
REMARK    5  A    between atoms: C4_9  and  C6_11 
ROOT
HETATM    1  O3  UNK     1      19.085  -2.548  36.709  1.00  0.00    -0.267 OA
HETATM    2  N1  UNK     1      20.196  -3.521  34.905  1.00  0.00    -0.356 N 
HETATM    3  C6  UNK     1      19.682  -3.489  36.189  1.00  0.00     0.257 C 
HETATM    4  H5  UNK     1      20.700  -4.338  34.577  1.00  0.00     0.162 HD
ENDROOT
BRANCH   3   5
HETATM    5  C4  UNK     1      19.914  -4.736  36.928  1.00  0.00     0.108 A 
HETATM    6  C13 UNK     1      18.896  -5.810  36.994  1.00  0.00     0.304 A 
HETATM    7  O1  UNK     1      19.234  -6.944  37.726  1.00  0.00    -0.274 OA
HETATM    8  O4  UNK     1      17.811  -5.710  36.434  1.00  0.00    -0.259 OA
HETATM    9  C10 UNK     1      20.479  -7.070  38.372  1.00  0.00     0.089 A 
HETATM   10  C5  UNK     1      21.420  -6.049  38.296  1.00  0.00    -0.001 A 
HETATM   11  C16 UNK     1      20.725  -8.244  39.080  1.00  0.00     0.038 A 
HETATM   12  C15 UNK     1      22.645  -6.210  38.951  1.00  0.00     0.014 A 
HETATM   13  C9  UNK     1      21.098  -4.849  37.540  1.00  0.00     0.037 A 
HETATM   14  C17 UNK     1      22.906  -7.383  39.665  1.00  0.00     0.001 A 
HETATM   15  C18 UNK     1      21.948  -8.398  39.729  1.00  0.00     0.003 A 
ENDBRANCH   3   5
BRANCH   2  16
HETATM   16  C2  UNK     1      20.089  -2.411  33.986  1.00  0.00     0.127 C 
BRANCH  16  17
HETATM   17  C1  UNK     1      20.709  -2.715  32.625  1.00  0.00     0.058 C 
BRANCH  17  18
HETATM   18  C3  UNK     1      20.325  -1.711  31.565  1.00  0.00    -0.057 A 
HETATM   19  C7  UNK     1      20.632  -1.972  30.239  1.00  0.00     0.010 A 
HETATM   20  C11 UNK     1      20.276  -1.044  29.261  1.00  0.00     0.037 A 
HETATM   21  C14 UNK     1      19.619   0.133  29.620  1.00  0.00     0.068 A 
HETATM   22  C12 UNK     1      19.317   0.382  30.959  1.00  0.00     0.037 A 
HETATM   23  C8  UNK     1      19.672  -0.546  31.938  1.00  0.00     0.010 A 
BRANCH  21  24
HETATM   24  O2  UNK     1      19.273   1.038  28.665  1.00  0.00    -0.356 OA
HETATM   25  C19 UNK     1      17.935   1.536  28.695  1.00  0.00     0.210 C 
ENDBRANCH  21  24
ENDBRANCH  17  18
ENDBRANCH  16  17
ENDBRANCH   2  16
TORSDOF 5
ENDMDL
MODEL 7
REMARK VINA RESULT:      -8.5      1.723      2.532
REMARK  5 active torsions:
REMARK  status: ('A' for Active; 'I' for Inactive)
REMARK    1  A    between atoms: C14_19  and  O2_2 
REMARK    2  A    between atoms: C2_7  and  N1_5 
REMARK       I    between atoms: C6_11  and  N1_5 
REMARK    3  A    between atoms: C1_6  and  C2_7 
REMARK    4  A    between atoms: C1_6  and  C3_8 
REMARK    5  A    between atoms: C4_9  and  C6_11 
ROOT
HETATM    1  O3  UNK     1      17.485   1.909  29.377  1.00  0.00    -0.267 OA
HETATM    2  N1  UNK     1      19.303   3.140  30.159  1.00  0.00    -0.356 N 
HETATM    3  C6  UNK     1      18.553   1.992  29.979  1.00  0.00     0.257 C 
HETATM    4  H5  UNK     1      20.161   3.110  30.700  1.00  0.00     0.162 HD
ENDROOT
BRANCH   3   5
HETATM    5  C4  UNK     1      19.165   0.808  30.595  1.00  0.00     0.108 A 
HETATM    6  C13 UNK     1      20.146  -0.034  29.873  1.00  0.00     0.304 A 
HETATM    7  O1  UNK     1      20.655  -1.130  30.564  1.00  0.00    -0.274 OA
HETATM    8  O4  UNK     1      20.495   0.217  28.725  1.00  0.00    -0.259 OA
HETATM    9  C10 UNK     1      20.262  -1.427  31.883  1.00  0.00     0.089 A 
HETATM   10  C5  UNK     1      19.339  -0.622  32.543  1.00  0.00    -0.001 A 
HETATM   11  C16 UNK     1      20.828  -2.544  32.491  1.00  0.00     0.038 A 
HETATM   12  C15 UNK     1      18.973  -0.948  33.851  1.00  0.00     0.014 A 
HETATM   13  C9  UNK     1      18.787   0.531  31.848  1.00  0.00     0.037 A 
HETATM   14  C17 UNK     1      19.532  -2.067  34.475  1.00  0.00     0.001 A 
HETATM   15  C18 UNK     1      20.458  -2.863  33.796  1.00  0.00     0.003 A 
ENDBRANCH   3   5
BRANCH   2  16
HETATM   16  C2  UNK     1      18.906   4.429  29.642  1.00  0.00     0.127 C 
BRANCH  16  17
HETATM   17  C1  UNK     1      19.802   5.561  30.136  1.00  0.00     0.058 C 
BRANCH  17  18
HETATM   18  C3  UNK     1      19.235   6.280  31.335  1.00  0.00    -0.057 A 
HETATM   19  C7  UNK     1      17.930   6.745  31.295  1.00  0.00     0.010 A 
HETATM   20  C11 UNK     1      17.407   7.410  32.403  1.00  0.00     0.037 A 
HETATM   21  C14 UNK     1      18.195   7.601  33.539  1.00  0.00     0.068 A 
HETATM   22  C12 UNK     1      19.506   7.128  33.565  1.00  0.00     0.037 A 
HETATM   23  C8  UNK     1      20.031   6.463  32.456  1.00  0.00     0.010 A 
BRANCH  21  24
HETATM   24  O2  UNK     1      17.684   8.250  34.620  1.00  0.00    -0.356 OA
HETATM   25  C19 UNK     1      16.761   9.310  34.367  1.00  0.00     0.210 C 
ENDBRANCH  21  24
ENDBRANCH  17  18
ENDBRANCH  16  17
ENDBRANCH   2  16
TORSDOF 5
ENDMDL
MODEL 8
REMARK VINA RESULT:      -8.4      2.338      2.699
REMARK  5 active torsions:
REMARK  status: ('A' for Active; 'I' for Inactive)
REMARK    1  A    between atoms: C14_19  and  O2_2 
REMARK    2  A    between atoms: C2_7  and  N1_5 
REMARK       I    between atoms: C6_11  and  N1_5 
REMARK    3  A    between atoms: C1_6  and  C2_7 
REMARK    4  A    between atoms: C1_6  and  C3_8 
REMARK    5  A    between atoms: C4_9  and  C6_11 
ROOT
HETATM    1  O3  UNK     1      18.758   4.717  30.331  1.00  0.00    -0.267 OA
HETATM    2  N1  UNK     1      17.546   4.513  32.312  1.00  0.00    -0.356 N 
HETATM    3  C6  UNK     1      18.336   4.051  31.275  1.00  0.00     0.257 C 
HETATM    4  H5  UNK     1      17.224   3.875  33.032  1.00  0.00     0.162 HD
ENDROOT
BRANCH   3   5
HETATM    5  C4  UNK     1      18.655   2.623  31.393  1.00  0.00     0.108 A 
HETATM    6  C13 UNK     1      18.409   1.864  32.640  1.00  0.00     0.304 A 
HETATM    7  O1  UNK     1      18.753   0.515  32.627  1.00  0.00    -0.274 OA
HETATM    8  O4  UNK     1      17.927   2.391  33.636  1.00  0.00    -0.259 OA
HETATM    9  C10 UNK     1      19.306  -0.102  31.488  1.00  0.00     0.089 A 
HETATM   10  C5  UNK     1      19.529   0.631  30.326  1.00  0.00    -0.001 A 
HETATM   11  C16 UNK     1      19.617  -1.457  31.572  1.00  0.00     0.038 A 
HETATM   12  C15 UNK     1      20.079  -0.016  29.217  1.00  0.00     0.014 A 
HETATM   13  C9  UNK     1      19.180   2.043  30.307  1.00  0.00     0.037 A 
HETATM   14  C17 UNK     1      20.397  -1.375  29.286  1.00  0.00     0.001 A 
HETATM   15  C18 UNK     1      20.165  -2.094  30.461  1.00  0.00     0.003 A 
ENDBRANCH   3   5
BRANCH   2  16
HETATM   16  C2  UNK     1      17.105   5.885  32.415  1.00  0.00     0.127 C 
BRANCH  16  17
HETATM   17  C1  UNK     1      17.139   6.406  33.849  1.00  0.00     0.058 C 
BRANCH  17  18
HETATM   18  C3  UNK     1      17.582   7.846  33.943  1.00  0.00    -0.057 A 
HETATM   19  C7  UNK     1      16.630   8.852  33.924  1.00  0.00     0.010 A 
HETATM   20  C11 UNK     1      17.040  10.182  34.010  1.00  0.00     0.037 A 
HETATM   21  C14 UNK     1      18.397  10.489  34.114  1.00  0.00     0.068 A 
HETATM   22  C12 UNK     1      19.344   9.466  34.131  1.00  0.00     0.037 A 
HETATM   23  C8  UNK     1      18.934   8.134  34.045  1.00  0.00     0.010 A 
BRANCH  21  24
HETATM   24  O2  UNK     1      18.796  11.787  34.197  1.00  0.00    -0.356 OA
HETATM   25  C19 UNK     1      17.851  12.785  33.812  1.00  0.00     0.210 C 
ENDBRANCH  21  24
ENDBRANCH  17  18
ENDBRANCH  16  17
ENDBRANCH   2  16
TORSDOF 5
ENDMDL
MODEL 9
REMARK VINA RESULT:      -8.4      3.170      4.960
REMARK  5 active torsions:
REMARK  status: ('A' for Active; 'I' for Inactive)
REMARK    1  A    between atoms: C14_19  and  O2_2 
REMARK    2  A    between atoms: C2_7  and  N1_5 
REMARK       I    between atoms: C6_11  and  N1_5 
REMARK    3  A    between atoms: C1_6  and  C2_7 
REMARK    4  A    between atoms: C1_6  and  C3_8 
REMARK    5  A    between atoms: C4_9  and  C6_11 
ROOT
HETATM    1  O3  UNK     1      19.942  -1.563  30.708  1.00  0.00    -0.267 OA
HETATM    2  N1  UNK     1      19.136   0.531  31.340  1.00  0.00    -0.356 N 
HETATM    3  C6  UNK     1      19.533  -0.776  31.559  1.00  0.00     0.257 C 
HETATM    4  H5  UNK     1      18.785   1.093  32.109  1.00  0.00     0.162 HD
ENDROOT
BRANCH   3   5
HETATM    5  C4  UNK     1      19.426  -1.177  32.967  1.00  0.00     0.108 A 
HETATM    6  C13 UNK     1      20.248  -2.270  33.536  1.00  0.00     0.304 A 
HETATM    7  O1  UNK     1      20.056  -2.558  34.884  1.00  0.00    -0.274 OA
HETATM    8  O4  UNK     1      21.056  -2.894  32.859  1.00  0.00    -0.259 OA
HETATM    9  C10 UNK     1      19.129  -1.847  35.673  1.00  0.00     0.089 A 
HETATM   10  C5  UNK     1      18.369  -0.823  35.118  1.00  0.00    -0.001 A 
HETATM   11  C16 UNK     1      19.009  -2.207  37.013  1.00  0.00     0.038 A 
HETATM   12  C15 UNK     1      17.460  -0.141  35.931  1.00  0.00     0.014 A 
HETATM   13  C9  UNK     1      18.545  -0.499  33.711  1.00  0.00     0.037 A 
HETATM   14  C17 UNK     1      17.328  -0.491  37.278  1.00  0.00     0.001 A 
HETATM   15  C18 UNK     1      18.101  -1.522  37.817  1.00  0.00     0.003 A 
ENDBRANCH   3   5
BRANCH   2  16
HETATM   16  C2  UNK     1      19.155   1.152  30.036  1.00  0.00     0.127 C 
BRANCH  16  17
HETATM   17  C1  UNK     1      18.097   2.241  29.890  1.00  0.00     0.058 C 
BRANCH  17  18
HETATM   18  C3  UNK     1      18.459   3.515  30.614  1.00  0.00    -0.057 A 
HETATM   19  C7  UNK     1      18.093   3.669  31.942  1.00  0.00     0.010 A 
HETATM   20  C11 UNK     1      18.428   4.846  32.611  1.00  0.00     0.037 A 
HETATM   21  C14 UNK     1      19.124   5.854  31.944  1.00  0.00     0.068 A 
HETATM   22  C12 UNK     1      19.485   5.685  30.607  1.00  0.00     0.037 A 
HETATM   23  C8  UNK     1      19.150   4.508  29.938  1.00  0.00     0.010 A 
BRANCH  21  24
HETATM   24  O2  UNK     1      19.451   7.002  32.597  1.00  0.00    -0.356 OA
HETATM   25  C19 UNK     1      18.373   7.802  33.084  1.00  0.00     0.210 C 
ENDBRANCH  21  24
ENDBRANCH  17  18
ENDBRANCH  16  17
ENDBRANCH   2  16
TORSDOF 5
ENDMDL
MODEL 10
REMARK VINA RESULT:      -8.4      6.519     10.313
REMARK  5 active torsions:
REMARK  status: ('A' for Active; 'I' for Inactive)
REMARK    1  A    between atoms: C14_19  and  O2_2 
REMARK    2  A    between atoms: C2_7  and  N1_5 
REMARK       I    between atoms: C6_11  and  N1_5 
REMARK    3  A    between atoms: C1_6  and  C2_7 
REMARK    4  A    between atoms: C1_6  and  C3_8 
REMARK    5  A    between atoms: C4_9  and  C6_11 
ROOT
HETATM    1  O3  UNK     1      20.656  -3.849  37.713  1.00  0.00    -0.267 OA
HETATM    2  N1  UNK     1      18.669  -3.925  36.496  1.00  0.00    -0.356 N 
HETATM    3  C6  UNK     1      19.792  -4.468  37.095  1.00  0.00     0.257 C 
HETATM    4  H5  UNK     1      18.027  -4.519  35.981  1.00  0.00     0.162 HD
ENDROOT
BRANCH   3   5
HETATM    5  C4  UNK     1      19.881  -5.923  36.928  1.00  0.00     0.108 A 
HETATM    6  C13 UNK     1      20.176  -6.547  35.618  1.00  0.00     0.304 A 
HETATM    7  O1  UNK     1      20.234  -7.937  35.589  1.00  0.00    -0.274 OA
HETATM    8  O4  UNK     1      20.359  -5.878  34.608  1.00  0.00    -0.259 OA
HETATM    9  C10 UNK     1      20.026  -8.716  36.744  1.00  0.00     0.089 A 
HETATM   10  C5  UNK     1      19.751  -8.109  37.965  1.00  0.00    -0.001 A 
HETATM   11  C16 UNK     1      20.106 -10.101  36.614  1.00  0.00     0.038 A 
HETATM   12  C15 UNK     1      19.550  -8.915  39.088  1.00  0.00     0.014 A 
HETATM   13  C9  UNK     1      19.682  -6.658  38.029  1.00  0.00     0.037 A 
HETATM   14  C17 UNK     1      19.627 -10.306  38.974  1.00  0.00     0.001 A 
HETATM   15  C18 UNK     1      19.905 -10.897  37.739  1.00  0.00     0.003 A 
ENDBRANCH   3   5
BRANCH   2  16
HETATM   16  C2  UNK     1      18.364  -2.513  36.528  1.00  0.00     0.127 C 
BRANCH  16  17
HETATM   17  C1  UNK     1      19.504  -1.655  35.988  1.00  0.00     0.058 C 
BRANCH  17  18
HETATM   18  C3  UNK     1      19.640  -1.733  34.486  1.00  0.00    -0.057 A 
HETATM   19  C7  UNK     1      18.729  -1.063  33.686  1.00  0.00     0.010 A 
HETATM   20  C11 UNK     1      18.855  -1.136  32.299  1.00  0.00     0.037 A 
HETATM   21  C14 UNK     1      19.890  -1.878  31.730  1.00  0.00     0.068 A 
HETATM   22  C12 UNK     1      20.799  -2.548  32.548  1.00  0.00     0.037 A 
HETATM   23  C8  UNK     1      20.673  -2.475  33.936  1.00  0.00     0.010 A 
BRANCH  21  24
HETATM   24  O2  UNK     1      20.012  -1.949  30.376  1.00  0.00    -0.356 OA
HETATM   25  C19 UNK     1      20.558  -0.811  29.712  1.00  0.00     0.210 C 
ENDBRANCH  21  24
ENDBRANCH  17  18
ENDBRANCH  16  17
ENDBRANCH   2  16
TORSDOF 5
ENDMDL
