MODEL 1
REMARK VINA RESULT:      -9.0      0.000      0.000
REMARK  3 active torsions:
REMARK  status: ('A' for Active; 'I' for Inactive)
REMARK    1  A    between atoms: C15_21  and  O2_2 
REMARK    2  A    between atoms: C9_15  and  N1_6 
REMARK    3  A    between atoms: C2_8  and  C5_11 
ROOT
HETATM    1  O1  UNK     1      18.959   0.659  28.661  1.00  0.00    -0.274 OA
HETATM    2  O3  UNK     1      18.084   2.703  28.155  1.00  0.00    -0.259 OA
HETATM    3  C1  UNK     1      19.772   0.209  30.905  1.00  0.00     0.001 A 
HETATM    4  C2  UNK     1      18.873   2.410  30.381  1.00  0.00     0.051 A 
HETATM    5  C3  UNK     1      19.532  -0.216  29.603  1.00  0.00     0.089 A 
HETATM    6  C4  UNK     1      19.425   1.572  31.273  1.00  0.00     0.032 A 
HETATM    7  C6  UNK     1      20.341  -0.686  31.813  1.00  0.00     0.050 A 
HETATM    8  C7  UNK     1      18.603   1.965  28.987  1.00  0.00     0.299 A 
HETATM    9  C8  UNK     1      19.844  -1.508  29.184  1.00  0.00     0.041 A 
HETATM   10  C9  UNK     1      20.659  -1.986  31.408  1.00  0.00     0.103 A 
HETATM   11  C12 UNK     1      20.410  -2.396  30.096  1.00  0.00     0.039 A 
ENDROOT
BRANCH   4  12
HETATM   12  C5  UNK     1      18.553   3.788  30.798  1.00  0.00    -0.020 A 
HETATM   13  C10 UNK     1      17.754   4.009  31.920  1.00  0.00     0.015 A 
HETATM   14  C13 UNK     1      17.451   5.312  32.314  1.00  0.00     0.037 A 
HETATM   15  C15 UNK     1      17.947   6.394  31.586  1.00  0.00     0.068 A 
HETATM   16  C14 UNK     1      18.746   6.172  30.465  1.00  0.00     0.037 A 
HETATM   17  C11 UNK     1      19.049   4.869  30.071  1.00  0.00     0.015 A 
BRANCH  15  18
HETATM   18  O2  UNK     1      17.652   7.665  31.972  1.00  0.00    -0.356 OA
HETATM   19  C16 UNK     1      16.287   8.071  31.886  1.00  0.00     0.210 C 
ENDBRANCH  15  18
ENDBRANCH   4  12
BRANCH  10  20
HETATM   20  N1  UNK     1      21.236  -2.895  32.335  1.00  0.00    -0.116 N 
HETATM   21  O4  UNK     1      21.597  -2.469  33.458  1.00  0.00    -0.532 OA
HETATM   22  O5  UNK     1      21.367  -4.099  32.005  1.00  0.00    -0.532 OA
ENDBRANCH  10  20
TORSDOF 3
ENDMDL
MODEL 2
REMARK VINA RESULT:      -8.7     13.312     16.481
REMARK  3 active torsions:
REMARK  status: ('A' for Active; 'I' for Inactive)
REMARK    1  A    between atoms: C15_21  and  O2_2 
REMARK    2  A    between atoms: C9_15  and  N1_6 
REMARK    3  A    between atoms: C2_8  and  C5_11 
ROOT
HETATM    1  O1  UNK     1      19.289   0.848  15.022  1.00  0.00    -0.274 OA
HETATM    2  O3  UNK     1      19.418  -0.700  13.352  1.00  0.00    -0.259 OA
HETATM    3  C1  UNK     1      19.035   0.128  17.326  1.00  0.00     0.001 A 
HETATM    4  C2  UNK     1      19.136  -1.544  15.560  1.00  0.00     0.051 A 
HETATM    5  C3  UNK     1      19.170   1.148  16.392  1.00  0.00     0.089 A 
HETATM    6  C4  UNK     1      19.017  -1.250  16.864  1.00  0.00     0.032 A 
HETATM    7  C6  UNK     1      18.920   0.462  18.678  1.00  0.00     0.050 A 
HETATM    8  C7  UNK     1      19.289  -0.461  14.549  1.00  0.00     0.299 A 
HETATM    9  C8  UNK     1      19.192   2.489  16.767  1.00  0.00     0.041 A 
HETATM   10  C9  UNK     1      18.941   1.804  19.070  1.00  0.00     0.103 A 
HETATM   11  C12 UNK     1      19.077   2.815  18.117  1.00  0.00     0.039 A 
ENDROOT
BRANCH   4  12
HETATM   12  C5  UNK     1      19.095  -2.956  15.138  1.00  0.00    -0.020 A 
HETATM   13  C10 UNK     1      17.871  -3.613  15.020  1.00  0.00     0.015 A 
HETATM   14  C13 UNK     1      17.833  -4.950  14.622  1.00  0.00     0.037 A 
HETATM   15  C15 UNK     1      19.019  -5.628  14.341  1.00  0.00     0.068 A 
HETATM   16  C14 UNK     1      20.243  -4.970  14.458  1.00  0.00     0.037 A 
HETATM   17  C11 UNK     1      20.281  -3.634  14.857  1.00  0.00     0.015 A 
BRANCH  15  18
HETATM   18  O2  UNK     1      18.981  -6.931  13.951  1.00  0.00    -0.356 OA
HETATM   19  C16 UNK     1      17.870  -7.339  13.154  1.00  0.00     0.210 C 
ENDBRANCH  15  18
ENDBRANCH   4  12
BRANCH  10  20
HETATM   20  N1  UNK     1      18.825   2.140  20.446  1.00  0.00    -0.116 N 
HETATM   21  O4  UNK     1      19.855   2.476  21.078  1.00  0.00    -0.532 OA
HETATM   22  O5  UNK     1      17.695   2.095  20.989  1.00  0.00    -0.532 OA
ENDBRANCH  10  20
TORSDOF 3
ENDMDL
MODEL 3
REMARK VINA RESULT:      -8.3      3.482      4.255
REMARK  3 active torsions:
REMARK  status: ('A' for Active; 'I' for Inactive)
REMARK    1  A    between atoms: C15_21  and  O2_2 
REMARK    2  A    between atoms: C9_15  and  N1_6 
REMARK    3  A    between atoms: C2_8  and  C5_11 
ROOT
HETATM    1  O1  UNK     1      18.335   1.910  32.251  1.00  0.00    -0.274 OA
HETATM    2  O3  UNK     1      18.271   3.845  31.047  1.00  0.00    -0.259 OA
HETATM    3  C1  UNK     1      18.275   1.989  34.677  1.00  0.00     0.001 A 
HETATM    4  C2  UNK     1      18.239   4.070  33.415  1.00  0.00     0.051 A 
HETATM    5  C3  UNK     1      18.326   1.256  33.497  1.00  0.00     0.089 A 
HETATM    6  C4  UNK     1      18.236   3.440  34.600  1.00  0.00     0.032 A 
HETATM    7  C6  UNK     1      18.266   1.306  35.896  1.00  0.00     0.050 A 
HETATM    8  C7  UNK     1      18.285   3.297  32.144  1.00  0.00     0.299 A 
HETATM    9  C8  UNK     1      18.368  -0.137  33.499  1.00  0.00     0.041 A 
HETATM   10  C9  UNK     1      18.307  -0.091  35.914  1.00  0.00     0.103 A 
HETATM   11  C12 UNK     1      18.358  -0.811  34.719  1.00  0.00     0.039 A 
ENDROOT
BRANCH   4  12
HETATM   12  C5  UNK     1      18.214   5.545  33.390  1.00  0.00    -0.020 A 
HETATM   13  C10 UNK     1      17.041   6.216  33.045  1.00  0.00     0.015 A 
HETATM   14  C13 UNK     1      17.018   7.611  33.020  1.00  0.00     0.037 A 
HETATM   15  C15 UNK     1      18.168   8.333  33.340  1.00  0.00     0.068 A 
HETATM   16  C14 UNK     1      19.340   7.661  33.685  1.00  0.00     0.037 A 
HETATM   17  C11 UNK     1      19.363   6.267  33.710  1.00  0.00     0.015 A 
BRANCH  15  18
HETATM   18  O2  UNK     1      18.144   9.694  33.318  1.00  0.00    -0.356 OA
HETATM   19  C16 UNK     1      17.097  10.337  34.041  1.00  0.00     0.210 C 
ENDBRANCH  15  18
ENDBRANCH   4  12
BRANCH  10  20
HETATM   20  N1  UNK     1      18.296  -0.782  37.156  1.00  0.00    -0.116 N 
HETATM   21  O4  UNK     1      18.164  -0.125  38.216  1.00  0.00    -0.532 OA
HETATM   22  O5  UNK     1      18.417  -2.031  37.157  1.00  0.00    -0.532 OA
ENDBRANCH  10  20
TORSDOF 3
ENDMDL
MODEL 4
REMARK VINA RESULT:      -8.1      4.710      9.968
REMARK  3 active torsions:
REMARK  status: ('A' for Active; 'I' for Inactive)
REMARK    1  A    between atoms: C15_21  and  O2_2 
REMARK    2  A    between atoms: C9_15  and  N1_6 
REMARK    3  A    between atoms: C2_8  and  C5_11 
ROOT
HETATM    1  O1  UNK     1      18.676   8.926  33.898  1.00  0.00    -0.274 OA
HETATM    2  O3  UNK     1      20.104   7.208  33.442  1.00  0.00    -0.259 OA
HETATM    3  C1  UNK     1      16.443   8.934  32.944  1.00  0.00     0.001 A 
HETATM    4  C2  UNK     1      17.960   7.105  32.414  1.00  0.00     0.051 A 
HETATM    5  C3  UNK     1      17.412   9.527  33.744  1.00  0.00     0.089 A 
HETATM    6  C4  UNK     1      16.759   7.686  32.268  1.00  0.00     0.032 A 
HETATM    7  C6  UNK     1      15.200   9.558  32.815  1.00  0.00     0.050 A 
HETATM    8  C7  UNK     1      19.004   7.725  33.275  1.00  0.00     0.299 A 
HETATM    9  C8  UNK     1      17.177  10.724  34.418  1.00  0.00     0.041 A 
HETATM   10  C9  UNK     1      14.948  10.759  33.485  1.00  0.00     0.103 A 
HETATM   11  C12 UNK     1      15.934  11.340  34.285  1.00  0.00     0.039 A 
ENDROOT
BRANCH   4  12
HETATM   12  C5  UNK     1      18.238   5.848  31.695  1.00  0.00    -0.020 A 
HETATM   13  C10 UNK     1      17.898   4.624  32.273  1.00  0.00     0.015 A 
HETATM   14  C13 UNK     1      18.162   3.435  31.593  1.00  0.00     0.037 A 
HETATM   15  C15 UNK     1      18.765   3.470  30.335  1.00  0.00     0.068 A 
HETATM   16  C14 UNK     1      19.103   4.694  29.758  1.00  0.00     0.037 A 
HETATM   17  C11 UNK     1      18.840   5.883  30.438  1.00  0.00     0.015 A 
BRANCH  15  18
HETATM   18  O2  UNK     1      19.020   2.310  29.671  1.00  0.00    -0.356 OA
HETATM   19  C16 UNK     1      18.018   1.844  28.770  1.00  0.00     0.210 C 
ENDBRANCH  15  18
ENDBRANCH   4  12
BRANCH  10  20
HETATM   20  N1  UNK     1      13.682  11.390  33.353  1.00  0.00    -0.116 N 
HETATM   21  O4  UNK     1      12.938  11.477  34.359  1.00  0.00    -0.532 OA
HETATM   22  O5  UNK     1      13.344  11.845  32.233  1.00  0.00    -0.532 OA
ENDBRANCH  10  20
TORSDOF 3
ENDMDL
MODEL 5
REMARK VINA RESULT:      -8.0      2.194      3.466
REMARK  3 active torsions:
REMARK  status: ('A' for Active; 'I' for Inactive)
REMARK    1  A    between atoms: C15_21  and  O2_2 
REMARK    2  A    between atoms: C9_15  and  N1_6 
REMARK    3  A    between atoms: C2_8  and  C5_11 
ROOT
HETATM    1  O1  UNK     1      18.981   4.111  29.767  1.00  0.00    -0.274 OA
HETATM    2  O3  UNK     1      18.659   6.367  29.701  1.00  0.00    -0.259 OA
HETATM    3  C1  UNK     1      18.540   2.882  31.814  1.00  0.00     0.001 A 
HETATM    4  C2  UNK     1      18.221   5.295  31.780  1.00  0.00     0.051 A 
HETATM    5  C3  UNK     1      18.933   2.899  30.481  1.00  0.00     0.089 A 
HETATM    6  C4  UNK     1      18.183   4.136  32.456  1.00  0.00     0.032 A 
HETATM    7  C6  UNK     1      18.504   1.661  32.491  1.00  0.00     0.050 A 
HETATM    8  C7  UNK     1      18.632   5.326  30.349  1.00  0.00     0.299 A 
HETATM    9  C8  UNK     1      19.291   1.733  29.806  1.00  0.00     0.041 A 
HETATM   10  C9  UNK     1      18.859   0.482  31.828  1.00  0.00     0.103 A 
HETATM   11  C12 UNK     1      19.252   0.519  30.488  1.00  0.00     0.039 A 
ENDROOT
BRANCH   4  12
HETATM   12  C5  UNK     1      17.865   6.543  32.480  1.00  0.00    -0.020 A 
HETATM   13  C10 UNK     1      16.531   6.947  32.549  1.00  0.00     0.015 A 
HETATM   14  C13 UNK     1      16.195   8.128  33.211  1.00  0.00     0.037 A 
HETATM   15  C15 UNK     1      17.191   8.905  33.802  1.00  0.00     0.068 A 
HETATM   16  C14 UNK     1      18.524   8.500  33.733  1.00  0.00     0.037 A 
HETATM   17  C11 UNK     1      18.861   7.319  33.071  1.00  0.00     0.015 A 
BRANCH  15  18
HETATM   18  O2  UNK     1      16.862  10.056  34.450  1.00  0.00    -0.356 OA
HETATM   19  C16 UNK     1      17.589  11.231  34.094  1.00  0.00     0.210 C 
ENDBRANCH  15  18
ENDBRANCH   4  12
BRANCH  10  20
HETATM   20  N1  UNK     1      18.820  -0.758  32.519  1.00  0.00    -0.116 N 
HETATM   21  O4  UNK     1      17.712  -1.211  32.892  1.00  0.00    -0.532 OA
HETATM   22  O5  UNK     1      19.896  -1.367  32.736  1.00  0.00    -0.532 OA
ENDBRANCH  10  20
TORSDOF 3
ENDMDL
MODEL 6
REMARK VINA RESULT:      -7.9      2.396      3.759
REMARK  3 active torsions:
REMARK  status: ('A' for Active; 'I' for Inactive)
REMARK    1  A    between atoms: C15_21  and  O2_2 
REMARK    2  A    between atoms: C9_15  and  N1_6 
REMARK    3  A    between atoms: C2_8  and  C5_11 
ROOT
HETATM    1  O1  UNK     1      18.438   1.757  33.506  1.00  0.00    -0.274 OA
HETATM    2  O3  UNK     1      17.932   3.527  34.853  1.00  0.00    -0.259 OA
HETATM    3  C1  UNK     1      18.894   2.119  31.149  1.00  0.00     0.001 A 
HETATM    4  C2  UNK     1      18.324   4.020  32.558  1.00  0.00     0.051 A 
HETATM    5  C3  UNK     1      18.781   1.259  32.235  1.00  0.00     0.089 A 
HETATM    6  C4  UNK     1      18.646   3.537  31.348  1.00  0.00     0.032 A 
HETATM    7  C6  UNK     1      19.237   1.590  29.902  1.00  0.00     0.050 A 
HETATM    8  C7  UNK     1      18.208   3.112  33.731  1.00  0.00     0.299 A 
HETATM    9  C8  UNK     1      19.002  -0.111  32.113  1.00  0.00     0.041 A 
HETATM   10  C9  UNK     1      19.463   0.217  29.764  1.00  0.00     0.103 A 
HETATM   11  C12 UNK     1      19.345  -0.632  30.867  1.00  0.00     0.039 A 
ENDROOT
BRANCH   4  12
HETATM   12  C5  UNK     1      18.067   5.465  32.706  1.00  0.00    -0.020 A 
HETATM   13  C10 UNK     1      16.826   5.992  32.347  1.00  0.00     0.015 A 
HETATM   14  C13 UNK     1      16.584   7.359  32.486  1.00  0.00     0.037 A 
HETATM   15  C15 UNK     1      17.581   8.197  32.986  1.00  0.00     0.068 A 
HETATM   16  C14 UNK     1      18.820   7.669  33.346  1.00  0.00     0.037 A 
HETATM   17  C11 UNK     1      19.063   6.302  33.206  1.00  0.00     0.015 A 
BRANCH  15  18
HETATM   18  O2  UNK     1      17.343   9.530  33.124  1.00  0.00    -0.356 OA
HETATM   19  C16 UNK     1      18.293  10.285  33.873  1.00  0.00     0.210 C 
ENDBRANCH  15  18
ENDBRANCH   4  12
BRANCH  10  20
HETATM   20  N1  UNK     1      19.813  -0.318  28.495  1.00  0.00    -0.116 N 
HETATM   21  O4  UNK     1      20.955  -0.813  28.339  1.00  0.00    -0.532 OA
HETATM   22  O5  UNK     1      18.970  -0.281  27.566  1.00  0.00    -0.532 OA
ENDBRANCH  10  20
TORSDOF 3
ENDMDL
MODEL 7
REMARK VINA RESULT:      -7.5     22.768     24.753
REMARK  3 active torsions:
REMARK  status: ('A' for Active; 'I' for Inactive)
REMARK    1  A    between atoms: C15_21  and  O2_2 
REMARK    2  A    between atoms: C9_15  and  N1_6 
REMARK    3  A    between atoms: C2_8  and  C5_11 
ROOT
HETATM    1  O1  UNK     1      11.571   6.510   6.857  1.00  0.00    -0.274 OA
HETATM    2  O3  UNK     1      13.808   6.714   6.468  1.00  0.00    -0.259 OA
HETATM    3  C1  UNK     1      10.549   7.696   8.713  1.00  0.00     0.001 A 
HETATM    4  C2  UNK     1      12.945   7.904   8.339  1.00  0.00     0.051 A 
HETATM    5  C3  UNK     1      10.435   6.849   7.616  1.00  0.00     0.089 A 
HETATM    6  C4  UNK     1      11.860   8.219   9.062  1.00  0.00     0.032 A 
HETATM    7  C6  UNK     1       9.401   8.013   9.443  1.00  0.00     0.050 A 
HETATM    8  C7  UNK     1      12.836   7.005   7.158  1.00  0.00     0.299 A 
HETATM    9  C8  UNK     1       9.210   6.310   7.229  1.00  0.00     0.041 A 
HETATM   10  C9  UNK     1       8.164   7.480   9.066  1.00  0.00     0.103 A 
HETATM   11  C12 UNK     1       8.069   6.631   7.961  1.00  0.00     0.039 A 
ENDROOT
BRANCH   4  12
HETATM   12  C5  UNK     1      14.256   8.448   8.743  1.00  0.00    -0.020 A 
HETATM   13  C10 UNK     1      14.625   9.736   8.356  1.00  0.00     0.015 A 
HETATM   14  C13 UNK     1      15.864  10.250   8.737  1.00  0.00     0.037 A 
HETATM   15  C15 UNK     1      16.734   9.476   9.505  1.00  0.00     0.068 A 
HETATM   16  C14 UNK     1      16.364   8.188   9.893  1.00  0.00     0.037 A 
HETATM   17  C11 UNK     1      15.124   7.674   9.511  1.00  0.00     0.015 A 
BRANCH  15  18
HETATM   18  O2  UNK     1      17.942   9.978   9.879  1.00  0.00    -0.356 OA
HETATM   19  C16 UNK     1      18.340  11.216   9.293  1.00  0.00     0.210 C 
ENDBRANCH  15  18
ENDBRANCH   4  12
BRANCH  10  20
HETATM   20  N1  UNK     1       6.998   7.805   9.810  1.00  0.00    -0.116 N 
HETATM   21  O4  UNK     1       5.894   7.336   9.444  1.00  0.00    -0.532 OA
HETATM   22  O5  UNK     1       7.106   8.551  10.814  1.00  0.00    -0.532 OA
ENDBRANCH  10  20
TORSDOF 3
ENDMDL
MODEL 8
REMARK VINA RESULT:      -7.5      4.126      8.198
REMARK  3 active torsions:
REMARK  status: ('A' for Active; 'I' for Inactive)
REMARK    1  A    between atoms: C15_21  and  O2_2 
REMARK    2  A    between atoms: C9_15  and  N1_6 
REMARK    3  A    between atoms: C2_8  and  C5_11 
ROOT
HETATM    1  O1  UNK     1      18.329   3.548  31.342  1.00  0.00    -0.274 OA
HETATM    2  O3  UNK     1      18.394   1.288  31.640  1.00  0.00    -0.259 OA
HETATM    3  C1  UNK     1      18.239   5.023  33.268  1.00  0.00     0.001 A 
HETATM    4  C2  UNK     1      18.273   2.613  33.612  1.00  0.00     0.051 A 
HETATM    5  C3  UNK     1      18.287   4.843  31.891  1.00  0.00     0.089 A 
HETATM    6  C4  UNK     1      18.228   3.851  34.129  1.00  0.00     0.032 A 
HETATM    7  C6  UNK     1      18.199   6.323  33.778  1.00  0.00     0.050 A 
HETATM    8  C7  UNK     1      18.334   2.407  32.139  1.00  0.00     0.299 A 
HETATM    9  C8  UNK     1      18.297   5.922  31.010  1.00  0.00     0.041 A 
HETATM   10  C9  UNK     1      18.209   7.416  32.907  1.00  0.00     0.103 A 
HETATM   11  C12 UNK     1      18.258   7.216  31.525  1.00  0.00     0.039 A 
ENDROOT
BRANCH   4  12
HETATM   12  C5  UNK     1      18.244   1.456  34.526  1.00  0.00    -0.020 A 
HETATM   13  C10 UNK     1      18.323   0.161  34.013  1.00  0.00     0.015 A 
HETATM   14  C13 UNK     1      18.294  -0.934  34.877  1.00  0.00     0.037 A 
HETATM   15  C15 UNK     1      18.188  -0.733  36.253  1.00  0.00     0.068 A 
HETATM   16  C14 UNK     1      18.111   0.562  36.766  1.00  0.00     0.037 A 
HETATM   17  C11 UNK     1      18.139   1.657  35.902  1.00  0.00     0.015 A 
BRANCH  15  18
HETATM   18  O2  UNK     1      18.163  -1.801  37.096  1.00  0.00    -0.356 OA
HETATM   19  C16 UNK     1      19.332  -2.617  37.147  1.00  0.00     0.210 C 
ENDBRANCH  15  18
ENDBRANCH   4  12
BRANCH  10  20
HETATM   20  N1  UNK     1      18.169   8.737  33.429  1.00  0.00    -0.116 N 
HETATM   21  O4  UNK     1      17.263   9.514  33.046  1.00  0.00    -0.532 OA
HETATM   22  O5  UNK     1      19.041   9.088  34.260  1.00  0.00    -0.532 OA
ENDBRANCH  10  20
TORSDOF 3
ENDMDL
MODEL 9
REMARK VINA RESULT:      -7.4      4.741      8.009
REMARK  3 active torsions:
REMARK  status: ('A' for Active; 'I' for Inactive)
REMARK    1  A    between atoms: C15_21  and  O2_2 
REMARK    2  A    between atoms: C9_15  and  N1_6 
REMARK    3  A    between atoms: C2_8  and  C5_11 
ROOT
HETATM    1  O1  UNK     1      18.894   8.814  33.560  1.00  0.00    -0.274 OA
HETATM    2  O3  UNK     1      18.002  10.800  34.237  1.00  0.00    -0.259 OA
HETATM    3  C1  UNK     1      17.436   7.020  32.820  1.00  0.00     0.001 A 
HETATM    4  C2  UNK     1      16.457   9.118  33.570  1.00  0.00     0.051 A 
HETATM    5  C3  UNK     1      18.714   7.511  33.059  1.00  0.00     0.089 A 
HETATM    6  C4  UNK     1      16.292   7.873  33.099  1.00  0.00     0.032 A 
HETATM    7  C6  UNK     1      17.294   5.722  32.322  1.00  0.00     0.050 A 
HETATM    8  C7  UNK     1      17.820   9.660  33.823  1.00  0.00     0.299 A 
HETATM    9  C8  UNK     1      19.852   6.745  32.817  1.00  0.00     0.041 A 
HETATM   10  C9  UNK     1      18.427   4.941  32.073  1.00  0.00     0.103 A 
HETATM   11  C12 UNK     1      19.704   5.452  32.320  1.00  0.00     0.039 A 
ENDROOT
BRANCH   4  12
HETATM   12  C5  UNK     1      15.265   9.940  33.852  1.00  0.00    -0.020 A 
HETATM   13  C10 UNK     1      14.457  10.378  32.804  1.00  0.00     0.015 A 
HETATM   14  C13 UNK     1      13.330  11.156  33.070  1.00  0.00     0.037 A 
HETATM   15  C15 UNK     1      13.011  11.494  34.386  1.00  0.00     0.068 A 
HETATM   16  C14 UNK     1      13.819  11.054  35.434  1.00  0.00     0.037 A 
HETATM   17  C11 UNK     1      14.947  10.277  35.167  1.00  0.00     0.015 A 
BRANCH  15  18
HETATM   18  O2  UNK     1      11.911  12.250  34.646  1.00  0.00    -0.356 OA
HETATM   19  C16 UNK     1      11.296  12.906  33.538  1.00  0.00     0.210 C 
ENDBRANCH  15  18
ENDBRANCH   4  12
BRANCH  10  20
HETATM   20  N1  UNK     1      18.280   3.622  31.566  1.00  0.00    -0.116 N 
HETATM   21  O4  UNK     1      18.630   3.383  30.386  1.00  0.00    -0.532 OA
HETATM   22  O5  UNK     1      17.805   2.733  32.313  1.00  0.00    -0.532 OA
ENDBRANCH  10  20
TORSDOF 3
ENDMDL
MODEL 10
REMARK VINA RESULT:      -7.4      6.168     10.313
REMARK  3 active torsions:
REMARK  status: ('A' for Active; 'I' for Inactive)
REMARK    1  A    between atoms: C15_21  and  O2_2 
REMARK    2  A    between atoms: C9_15  and  N1_6 
REMARK    3  A    between atoms: C2_8  and  C5_11 
ROOT
HETATM    1  O1  UNK     1      19.572  -1.574  34.044  1.00  0.00    -0.274 OA
HETATM    2  O3  UNK     1      21.023  -3.327  33.890  1.00  0.00    -0.259 OA
HETATM    3  C1  UNK     1      18.193  -1.313  36.025  1.00  0.00     0.001 A 
HETATM    4  C2  UNK     1      19.710  -3.210  35.871  1.00  0.00     0.051 A 
HETATM    5  C3  UNK     1      18.602  -0.863  34.775  1.00  0.00     0.089 A 
HETATM    6  C4  UNK     1      18.781  -2.530  36.560  1.00  0.00     0.032 A 
HETATM    7  C6  UNK     1      17.230  -0.581  36.724  1.00  0.00     0.050 A 
HETATM    8  C7  UNK     1      20.163  -2.735  34.535  1.00  0.00     0.299 A 
HETATM    9  C8  UNK     1      18.078   0.294  34.203  1.00  0.00     0.041 A 
HETATM   10  C9  UNK     1      16.694   0.583  36.163  1.00  0.00     0.103 A 
HETATM   11  C12 UNK     1      17.118   1.020  34.906  1.00  0.00     0.039 A 
ENDROOT
BRANCH   4  12
HETATM   12  C5  UNK     1      20.265  -4.449  36.448  1.00  0.00    -0.020 A 
HETATM   13  C10 UNK     1      19.924  -5.686  35.902  1.00  0.00     0.015 A 
HETATM   14  C13 UNK     1      20.448  -6.857  36.449  1.00  0.00     0.037 A 
HETATM   15  C15 UNK     1      21.313  -6.791  37.541  1.00  0.00     0.068 A 
HETATM   16  C14 UNK     1      21.654  -5.553  38.087  1.00  0.00     0.037 A 
HETATM   17  C11 UNK     1      21.129  -4.382  37.540  1.00  0.00     0.015 A 
BRANCH  15  18
HETATM   18  O2  UNK     1      21.826  -7.933  38.073  1.00  0.00    -0.356 OA
HETATM   19  C16 UNK     1      21.898  -8.013  39.496  1.00  0.00     0.210 C 
ENDBRANCH  15  18
ENDBRANCH   4  12
BRANCH  10  20
HETATM   20  N1  UNK     1      15.716   1.326  36.876  1.00  0.00    -0.116 N 
HETATM   21  O4  UNK     1      14.502   1.078  36.679  1.00  0.00    -0.532 OA
HETATM   22  O5  UNK     1      16.092   2.208  37.686  1.00  0.00    -0.532 OA
ENDBRANCH  10  20
TORSDOF 3
ENDMDL
