MODEL 1
REMARK VINA RESULT:      -8.8      0.000      0.000
REMARK  2 active torsions:
REMARK  status: ('A' for Active; 'I' for Inactive)
REMARK       I    between atoms: C6_10  and  N1_4 
REMARK    1  A    between atoms: C9_13  and  N1_4 
REMARK    2  A    between atoms: C3_7  and  C6_10 
ROOT
HETATM    1  O1  UNK     1      19.068   1.594  28.760  1.00  0.00    -0.274 OA
HETATM    2  O3  UNK     1      18.317   3.738  29.005  1.00  0.00    -0.259 OA
HETATM    3  C1  UNK     1      19.519   0.248  30.734  1.00  0.00    -0.001 A 
HETATM    4  C2  UNK     1      19.485   0.385  29.350  1.00  0.00     0.089 A 
HETATM    5  C3  UNK     1      18.723   2.521  30.997  1.00  0.00     0.108 A 
HETATM    6  C4  UNK     1      19.118   1.375  31.563  1.00  0.00     0.037 A 
HETATM    7  C5  UNK     1      19.938  -0.967  31.281  1.00  0.00     0.014 A 
HETATM    8  C7  UNK     1      18.678   2.690  29.527  1.00  0.00     0.304 A 
HETATM    9  C8  UNK     1      19.857  -0.655  28.501  1.00  0.00     0.038 A 
HETATM   10  C10 UNK     1      20.314  -2.019  30.442  1.00  0.00     0.001 A 
HETATM   11  C11 UNK     1      20.274  -1.863  29.055  1.00  0.00     0.003 A 
ENDROOT
BRANCH   5  12
HETATM   12  C6  UNK     1      18.338   3.600  31.916  1.00  0.00     0.262 C 
HETATM   13  O2  UNK     1      17.616   3.351  32.880  1.00  0.00    -0.267 OA
HETATM   14  N1  UNK     1      18.874   4.823  31.541  1.00  0.00    -0.323 N 
HETATM   15  H4  UNK     1      19.440   4.866  30.696  1.00  0.00     0.169 HD
BRANCH  14  16
HETATM   16  C9  UNK     1      18.714   6.072  32.189  1.00  0.00     0.035 A 
HETATM   17  C12 UNK     1      19.706   6.523  33.044  1.00  0.00     0.029 A 
HETATM   18  C14 UNK     1      19.548   7.752  33.683  1.00  0.00     0.002 A 
HETATM   19  C16 UNK     1      18.401   8.513  33.459  1.00  0.00     0.000 A 
HETATM   20  C15 UNK     1      17.411   8.044  32.595  1.00  0.00     0.002 A 
HETATM   21  C13 UNK     1      17.568   6.815  31.956  1.00  0.00     0.029 A 
ENDBRANCH  14  16
ENDBRANCH   5  12
TORSDOF 2
ENDMDL
MODEL 2
REMARK VINA RESULT:      -8.6      7.405     11.037
REMARK  2 active torsions:
REMARK  status: ('A' for Active; 'I' for Inactive)
REMARK       I    between atoms: C6_10  and  N1_4 
REMARK    1  A    between atoms: C9_13  and  N1_4 
REMARK    2  A    between atoms: C3_7  and  C6_10 
ROOT
HETATM    1  O1  UNK     1      19.507  -0.974  34.747  1.00  0.00    -0.274 OA
HETATM    2  O3  UNK     1      20.605  -2.890  34.162  1.00  0.00    -0.259 OA
HETATM    3  C1  UNK     1      18.463  -0.809  36.936  1.00  0.00    -0.001 A 
HETATM    4  C2  UNK     1      18.766  -0.248  35.700  1.00  0.00     0.089 A 
HETATM    5  C3  UNK     1      19.627  -2.842  36.319  1.00  0.00     0.108 A 
HETATM    6  C4  UNK     1      18.924  -2.158  37.229  1.00  0.00     0.037 A 
HETATM    7  C5  UNK     1      17.727  -0.058  37.855  1.00  0.00     0.014 A 
HETATM    8  C7  UNK     1      19.961  -2.266  34.998  1.00  0.00     0.304 A 
HETATM    9  C8  UNK     1      18.355   1.038  35.357  1.00  0.00     0.038 A 
HETATM   10  C10 UNK     1      17.307   1.235  37.525  1.00  0.00     0.001 A 
HETATM   11  C11 UNK     1      17.621   1.781  36.279  1.00  0.00     0.003 A 
ENDROOT
BRANCH   5  12
HETATM   12  C6  UNK     1      20.046  -4.195  36.707  1.00  0.00     0.262 C 
HETATM   13  O2  UNK     1      21.232  -4.423  36.940  1.00  0.00    -0.267 OA
HETATM   14  N1  UNK     1      18.978  -5.080  36.756  1.00  0.00    -0.323 N 
HETATM   15  H4  UNK     1      18.052  -4.735  36.512  1.00  0.00     0.169 HD
BRANCH  14  16
HETATM   16  C9  UNK     1      19.011  -6.456  37.091  1.00  0.00     0.035 A 
HETATM   17  C12 UNK     1      18.673  -7.393  36.129  1.00  0.00     0.029 A 
HETATM   18  C14 UNK     1      18.704  -8.748  36.458  1.00  0.00     0.002 A 
HETATM   19  C16 UNK     1      19.073  -9.146  37.743  1.00  0.00     0.000 A 
HETATM   20  C15 UNK     1      19.409  -8.189  38.700  1.00  0.00     0.002 A 
HETATM   21  C13 UNK     1      19.378  -6.834  38.371  1.00  0.00     0.029 A 
ENDBRANCH  14  16
ENDBRANCH   5  12
TORSDOF 2
ENDMDL
MODEL 3
REMARK VINA RESULT:      -8.6      1.649      7.240
REMARK  2 active torsions:
REMARK  status: ('A' for Active; 'I' for Inactive)
REMARK       I    between atoms: C6_10  and  N1_4 
REMARK    1  A    between atoms: C9_13  and  N1_4 
REMARK    2  A    between atoms: C3_7  and  C6_10 
ROOT
HETATM    1  O1  UNK     1      19.309   6.576  31.374  1.00  0.00    -0.274 OA
HETATM    2  O3  UNK     1      19.832   5.091  29.717  1.00  0.00    -0.259 OA
HETATM    3  C1  UNK     1      17.846   5.883  33.188  1.00  0.00    -0.001 A 
HETATM    4  C2  UNK     1      18.626   6.857  32.573  1.00  0.00     0.089 A 
HETATM    5  C3  UNK     1      18.398   4.307  31.433  1.00  0.00     0.108 A 
HETATM    6  C4  UNK     1      17.747   4.568  32.572  1.00  0.00     0.037 A 
HETATM    7  C5  UNK     1      17.183   6.201  34.376  1.00  0.00     0.014 A 
HETATM    8  C7  UNK     1      19.234   5.327  30.761  1.00  0.00     0.304 A 
HETATM    9  C8  UNK     1      18.761   8.136  33.110  1.00  0.00     0.038 A 
HETATM   10  C10 UNK     1      17.310   7.479  34.927  1.00  0.00     0.001 A 
HETATM   11  C11 UNK     1      18.097   8.444  34.295  1.00  0.00     0.003 A 
ENDROOT
BRANCH   5  12
HETATM   12  C6  UNK     1      18.236   2.952  30.889  1.00  0.00     0.262 C 
HETATM   13  O2  UNK     1      17.118   2.554  30.568  1.00  0.00    -0.267 OA
HETATM   14  N1  UNK     1      19.443   2.271  30.814  1.00  0.00    -0.323 N 
HETATM   15  H4  UNK     1      20.285   2.739  31.143  1.00  0.00     0.169 HD
BRANCH  14  16
HETATM   16  C9  UNK     1      19.663   0.953  30.343  1.00  0.00     0.035 A 
HETATM   17  C12 UNK     1      19.541   0.690  28.989  1.00  0.00     0.029 A 
HETATM   18  C14 UNK     1      19.757  -0.608  28.525  1.00  0.00     0.002 A 
HETATM   19  C16 UNK     1      20.091  -1.622  29.421  1.00  0.00     0.000 A 
HETATM   20  C15 UNK     1      20.209  -1.340  30.782  1.00  0.00     0.002 A 
HETATM   21  C13 UNK     1      19.993  -0.043  31.247  1.00  0.00     0.029 A 
ENDBRANCH  14  16
ENDBRANCH   5  12
TORSDOF 2
ENDMDL
MODEL 4
REMARK VINA RESULT:      -8.5      7.740     11.087
REMARK  2 active torsions:
REMARK  status: ('A' for Active; 'I' for Inactive)
REMARK       I    between atoms: C6_10  and  N1_4 
REMARK    1  A    between atoms: C9_13  and  N1_4 
REMARK    2  A    between atoms: C3_7  and  C6_10 
ROOT
HETATM    1  O1  UNK     1      19.684  -1.033  34.805  1.00  0.00    -0.274 OA
HETATM    2  O3  UNK     1      20.781  -2.906  34.094  1.00  0.00    -0.259 OA
HETATM    3  C1  UNK     1      18.512  -1.065  36.935  1.00  0.00    -0.001 A 
HETATM    4  C2  UNK     1      18.899  -0.389  35.782  1.00  0.00     0.089 A 
HETATM    5  C3  UNK     1      19.675  -3.053  36.184  1.00  0.00     0.108 A 
HETATM    6  C4  UNK     1      18.930  -2.447  37.116  1.00  0.00     0.037 A 
HETATM    7  C5  UNK     1      17.734  -0.392  37.881  1.00  0.00     0.014 A 
HETATM    8  C7  UNK     1      20.099  -2.355  34.950  1.00  0.00     0.304 A 
HETATM    9  C8  UNK     1      18.532   0.934  35.548  1.00  0.00     0.038 A 
HETATM   10  C10 UNK     1      17.358   0.936  37.660  1.00  0.00     0.001 A 
HETATM   11  C11 UNK     1      17.756   1.597  36.496  1.00  0.00     0.003 A 
ENDROOT
BRANCH   5  12
HETATM   12  C6  UNK     1      20.046  -4.447  36.456  1.00  0.00     0.262 C 
HETATM   13  O2  UNK     1      20.051  -5.267  35.540  1.00  0.00    -0.267 OA
HETATM   14  N1  UNK     1      20.356  -4.654  37.793  1.00  0.00    -0.323 N 
HETATM   15  H4  UNK     1      20.283  -3.868  38.435  1.00  0.00     0.169 HD
BRANCH  14  16
HETATM   16  C9  UNK     1      20.753  -5.866  38.410  1.00  0.00     0.035 A 
HETATM   17  C12 UNK     1      19.783  -6.759  38.832  1.00  0.00     0.029 A 
HETATM   18  C14 UNK     1      20.173  -7.952  39.440  1.00  0.00     0.002 A 
HETATM   19  C16 UNK     1      21.527  -8.235  39.617  1.00  0.00     0.000 A 
HETATM   20  C15 UNK     1      22.492  -7.323  39.186  1.00  0.00     0.002 A 
HETATM   21  C13 UNK     1      22.102  -6.131  38.578  1.00  0.00     0.029 A 
ENDBRANCH  14  16
ENDBRANCH   5  12
TORSDOF 2
ENDMDL
MODEL 5
REMARK VINA RESULT:      -8.5      1.589      2.517
REMARK  2 active torsions:
REMARK  status: ('A' for Active; 'I' for Inactive)
REMARK       I    between atoms: C6_10  and  N1_4 
REMARK    1  A    between atoms: C9_13  and  N1_4 
REMARK    2  A    between atoms: C3_7  and  C6_10 
ROOT
HETATM    1  O1  UNK     1      18.794   0.264  32.840  1.00  0.00    -0.274 OA
HETATM    2  O3  UNK     1      17.939   1.877  34.214  1.00  0.00    -0.259 OA
HETATM    3  C1  UNK     1      19.371   0.824  30.545  1.00  0.00    -0.001 A 
HETATM    4  C2  UNK     1      19.290  -0.108  31.575  1.00  0.00     0.089 A 
HETATM    5  C3  UNK     1      18.464   2.537  32.000  1.00  0.00     0.108 A 
HETATM    6  C4  UNK     1      18.934   2.190  30.796  1.00  0.00     0.037 A 
HETATM    7  C5  UNK     1      19.868   0.417  29.305  1.00  0.00     0.014 A 
HETATM    8  C7  UNK     1      18.369   1.563  33.110  1.00  0.00     0.304 A 
HETATM    9  C8  UNK     1      19.690  -1.431  31.400  1.00  0.00     0.038 A 
HETATM   10  C10 UNK     1      20.274  -0.907  29.115  1.00  0.00     0.001 A 
HETATM   11  C11 UNK     1      20.185  -1.829  30.160  1.00  0.00     0.003 A 
ENDROOT
BRANCH   5  12
HETATM   12  C6  UNK     1      18.049   3.936  32.155  1.00  0.00     0.262 C 
HETATM   13  O2  UNK     1      17.202   4.409  31.398  1.00  0.00    -0.267 OA
HETATM   14  N1  UNK     1      18.713   4.567  33.197  1.00  0.00    -0.323 N 
HETATM   15  H4  UNK     1      19.408   4.038  33.720  1.00  0.00     0.169 HD
BRANCH  14  16
HETATM   16  C9  UNK     1      18.566   5.908  33.630  1.00  0.00     0.035 A 
HETATM   17  C12 UNK     1      17.332   6.337  34.092  1.00  0.00     0.029 A 
HETATM   18  C14 UNK     1      17.186   7.657  34.518  1.00  0.00     0.002 A 
HETATM   19  C16 UNK     1      18.274   8.528  34.477  1.00  0.00     0.000 A 
HETATM   20  C15 UNK     1      19.509   8.080  34.008  1.00  0.00     0.002 A 
HETATM   21  C13 UNK     1      19.656   6.760  33.581  1.00  0.00     0.029 A 
ENDBRANCH  14  16
ENDBRANCH   5  12
TORSDOF 2
ENDMDL
MODEL 6
REMARK VINA RESULT:      -8.4     13.579     16.184
REMARK  2 active torsions:
REMARK  status: ('A' for Active; 'I' for Inactive)
REMARK       I    between atoms: C6_10  and  N1_4 
REMARK    1  A    between atoms: C9_13  and  N1_4 
REMARK    2  A    between atoms: C3_7  and  C6_10 
ROOT
HETATM    1  O1  UNK     1      19.421  -2.213  13.114  1.00  0.00    -0.274 OA
HETATM    2  O3  UNK     1      19.451  -0.241  14.269  1.00  0.00    -0.259 OA
HETATM    3  C1  UNK     1      18.444  -4.189  14.140  1.00  0.00    -0.001 A 
HETATM    4  C2  UNK     1      19.076  -3.578  13.062  1.00  0.00     0.089 A 
HETATM    5  C3  UNK     1      18.475  -2.100  15.367  1.00  0.00     0.108 A 
HETATM    6  C4  UNK     1      18.145  -3.397  15.323  1.00  0.00     0.037 A 
HETATM    7  C5  UNK     1      18.119  -5.545  14.050  1.00  0.00     0.014 A 
HETATM    8  C7  UNK     1      19.147  -1.428  14.232  1.00  0.00     0.304 A 
HETATM    9  C8  UNK     1      19.391  -4.280  11.901  1.00  0.00     0.038 A 
HETATM   10  C10 UNK     1      18.428  -6.263  12.891  1.00  0.00     0.001 A 
HETATM   11  C11 UNK     1      19.063  -5.632  11.819  1.00  0.00     0.003 A 
ENDROOT
BRANCH   5  12
HETATM   12  C6  UNK     1      18.132  -1.385  16.602  1.00  0.00     0.262 C 
HETATM   13  O2  UNK     1      17.035  -1.565  17.127  1.00  0.00    -0.267 OA
HETATM   14  N1  UNK     1      19.159  -0.555  17.028  1.00  0.00    -0.323 N 
HETATM   15  H4  UNK     1      20.005  -0.502  16.465  1.00  0.00     0.169 HD
BRANCH  14  16
HETATM   16  C9  UNK     1      19.178   0.279  18.173  1.00  0.00     0.035 A 
HETATM   17  C12 UNK     1      19.351  -0.292  19.423  1.00  0.00     0.029 A 
HETATM   18  C14 UNK     1      19.369   0.529  20.550  1.00  0.00     0.002 A 
HETATM   19  C16 UNK     1      19.213   1.908  20.412  1.00  0.00     0.000 A 
HETATM   20  C15 UNK     1      19.038   2.466  19.146  1.00  0.00     0.002 A 
HETATM   21  C13 UNK     1      19.021   1.646  18.018  1.00  0.00     0.029 A 
ENDBRANCH  14  16
ENDBRANCH   5  12
TORSDOF 2
ENDMDL
MODEL 7
REMARK VINA RESULT:      -8.3      1.420      7.459
REMARK  2 active torsions:
REMARK  status: ('A' for Active; 'I' for Inactive)
REMARK       I    between atoms: C6_10  and  N1_4 
REMARK    1  A    between atoms: C9_13  and  N1_4 
REMARK    2  A    between atoms: C3_7  and  C6_10 
ROOT
HETATM    1  O1  UNK     1      18.125   4.446  34.157  1.00  0.00    -0.274 OA
HETATM    2  O3  UNK     1      18.444   2.194  33.938  1.00  0.00    -0.259 OA
HETATM    3  C1  UNK     1      17.818   5.814  32.171  1.00  0.00    -0.001 A 
HETATM    4  C2  UNK     1      17.909   5.701  33.554  1.00  0.00     0.089 A 
HETATM    5  C3  UNK     1      18.156   3.426  31.934  1.00  0.00     0.108 A 
HETATM    6  C4  UNK     1      17.951   4.616  31.356  1.00  0.00     0.037 A 
HETATM    7  C5  UNK     1      17.604   7.075  31.610  1.00  0.00     0.014 A 
HETATM    8  C7  UNK     1      18.255   3.282  33.404  1.00  0.00     0.304 A 
HETATM    9  C8  UNK     1      17.792   6.809  34.391  1.00  0.00     0.038 A 
HETATM   10  C10 UNK     1      17.484   8.197  32.437  1.00  0.00     0.001 A 
HETATM   11  C11 UNK     1      17.578   8.063  33.824  1.00  0.00     0.003 A 
ENDROOT
BRANCH   5  12
HETATM   12  C6  UNK     1      18.277   2.277  31.029  1.00  0.00     0.262 C 
HETATM   13  O2  UNK     1      17.494   2.157  30.088  1.00  0.00    -0.267 OA
HETATM   14  N1  UNK     1      19.321   1.436  31.388  1.00  0.00    -0.323 N 
HETATM   15  H4  UNK     1      19.868   1.668  32.214  1.00  0.00     0.169 HD
BRANCH  14  16
HETATM   16  C9  UNK     1      19.727   0.241  30.746  1.00  0.00     0.035 A 
HETATM   17  C12 UNK     1      20.123   0.286  29.419  1.00  0.00     0.029 A 
HETATM   18  C14 UNK     1      20.522  -0.891  28.787  1.00  0.00     0.002 A 
HETATM   19  C16 UNK     1      20.520  -2.096  29.489  1.00  0.00     0.000 A 
HETATM   20  C15 UNK     1      20.117  -2.124  30.824  1.00  0.00     0.002 A 
HETATM   21  C13 UNK     1      19.718  -0.947  31.457  1.00  0.00     0.029 A 
ENDBRANCH  14  16
ENDBRANCH   5  12
TORSDOF 2
ENDMDL
MODEL 8
REMARK VINA RESULT:      -8.3      8.579     10.439
REMARK  2 active torsions:
REMARK  status: ('A' for Active; 'I' for Inactive)
REMARK       I    between atoms: C6_10  and  N1_4 
REMARK    1  A    between atoms: C9_13  and  N1_4 
REMARK    2  A    between atoms: C3_7  and  C6_10 
ROOT
HETATM    1  O1  UNK     1      20.013  -7.821  35.688  1.00  0.00    -0.274 OA
HETATM    2  O3  UNK     1      20.189  -5.886  34.485  1.00  0.00    -0.259 OA
HETATM    3  C1  UNK     1      19.905  -7.720  38.114  1.00  0.00    -0.001 A 
HETATM    4  C2  UNK     1      19.915  -8.463  36.938  1.00  0.00     0.089 A 
HETATM    5  C3  UNK     1      20.091  -5.667  36.842  1.00  0.00     0.108 A 
HETATM    6  C4  UNK     1      19.998  -6.270  38.033  1.00  0.00     0.037 A 
HETATM    7  C5  UNK     1      19.807  -8.393  39.335  1.00  0.00     0.014 A 
HETATM    8  C7  UNK     1      20.103  -6.435  35.578  1.00  0.00     0.304 A 
HETATM    9  C8  UNK     1      19.831  -9.853  36.946  1.00  0.00     0.038 A 
HETATM   10  C10 UNK     1      19.721  -9.788  39.360  1.00  0.00     0.001 A 
HETATM   11  C11 UNK     1      19.732 -10.516  38.168  1.00  0.00     0.003 A 
ENDROOT
BRANCH   5  12
HETATM   12  C6  UNK     1      20.180  -4.201  36.863  1.00  0.00     0.262 C 
HETATM   13  O2  UNK     1      21.268  -3.659  37.051  1.00  0.00    -0.267 OA
HETATM   14  N1  UNK     1      18.947  -3.599  36.657  1.00  0.00    -0.323 N 
HETATM   15  H4  UNK     1      18.131  -4.195  36.537  1.00  0.00     0.169 HD
BRANCH  14  16
HETATM   16  C9  UNK     1      18.659  -2.213  36.614  1.00  0.00     0.035 A 
HETATM   17  C12 UNK     1      18.059  -1.613  37.709  1.00  0.00     0.029 A 
HETATM   18  C14 UNK     1      17.775  -0.248  37.667  1.00  0.00     0.002 A 
HETATM   19  C16 UNK     1      18.094   0.497  36.532  1.00  0.00     0.000 A 
HETATM   20  C15 UNK     1      18.697  -0.124  35.438  1.00  0.00     0.002 A 
HETATM   21  C13 UNK     1      18.982  -1.488  35.479  1.00  0.00     0.029 A 
ENDBRANCH  14  16
ENDBRANCH   5  12
TORSDOF 2
ENDMDL
MODEL 9
REMARK VINA RESULT:      -8.2      1.798      7.685
REMARK  2 active torsions:
REMARK  status: ('A' for Active; 'I' for Inactive)
REMARK       I    between atoms: C6_10  and  N1_4 
REMARK    1  A    between atoms: C9_13  and  N1_4 
REMARK    2  A    between atoms: C3_7  and  C6_10 
ROOT
HETATM    1  O1  UNK     1      17.387   6.130  34.311  1.00  0.00    -0.274 OA
HETATM    2  O3  UNK     1      18.691   4.278  34.002  1.00  0.00    -0.259 OA
HETATM    3  C1  UNK     1      16.638   7.405  32.382  1.00  0.00    -0.001 A 
HETATM    4  C2  UNK     1      16.676   7.213  33.759  1.00  0.00     0.089 A 
HETATM    5  C3  UNK     1      18.019   5.443  32.050  1.00  0.00     0.108 A 
HETATM    6  C4  UNK     1      17.345   6.470  31.520  1.00  0.00     0.037 A 
HETATM    7  C5  UNK     1      15.922   8.491  31.873  1.00  0.00     0.014 A 
HETATM    8  C7  UNK     1      18.074   5.218  33.512  1.00  0.00     0.304 A 
HETATM    9  C8  UNK     1      16.021   8.072  34.639  1.00  0.00     0.038 A 
HETATM   10  C10 UNK     1      15.259   9.362  32.743  1.00  0.00     0.001 A 
HETATM   11  C11 UNK     1      15.309   9.152  34.123  1.00  0.00     0.003 A 
ENDROOT
BRANCH   5  12
HETATM   12  C6  UNK     1      18.701   4.555  31.100  1.00  0.00     0.262 C 
HETATM   13  O2  UNK     1      19.633   4.986  30.424  1.00  0.00    -0.267 OA
HETATM   14  N1  UNK     1      18.161   3.277  31.100  1.00  0.00    -0.323 N 
HETATM   15  H4  UNK     1      17.369   3.084  31.710  1.00  0.00     0.169 HD
BRANCH  14  16
HETATM   16  C9  UNK     1      18.565   2.169  30.315  1.00  0.00     0.035 A 
HETATM   17  C12 UNK     1      19.497   1.281  30.827  1.00  0.00     0.029 A 
HETATM   18  C14 UNK     1      19.895   0.191  30.054  1.00  0.00     0.002 A 
HETATM   19  C16 UNK     1      19.357   0.003  28.782  1.00  0.00     0.000 A 
HETATM   20  C15 UNK     1      18.419   0.907  28.281  1.00  0.00     0.002 A 
HETATM   21  C13 UNK     1      18.020   1.998  29.053  1.00  0.00     0.029 A 
ENDBRANCH  14  16
ENDBRANCH   5  12
TORSDOF 2
ENDMDL
MODEL 10
REMARK VINA RESULT:      -8.0     13.533     17.478
REMARK  2 active torsions:
REMARK  status: ('A' for Active; 'I' for Inactive)
REMARK       I    between atoms: C6_10  and  N1_4 
REMARK    1  A    between atoms: C9_13  and  N1_4 
REMARK    2  A    between atoms: C3_7  and  C6_10 
ROOT
HETATM    1  O1  UNK     1      19.316   1.176  15.500  1.00  0.00    -0.274 OA
HETATM    2  O3  UNK     1      19.385  -0.366  13.815  1.00  0.00    -0.259 OA
HETATM    3  C1  UNK     1      18.907   0.443  17.782  1.00  0.00    -0.001 A 
HETATM    4  C2  UNK     1      19.152   1.464  16.869  1.00  0.00     0.089 A 
HETATM    5  C3  UNK     1      18.980  -1.195  15.997  1.00  0.00     0.108 A 
HETATM    6  C4  UNK     1      18.823  -0.927  17.299  1.00  0.00     0.037 A 
HETATM    7  C5  UNK     1      18.750   0.768  19.131  1.00  0.00     0.014 A 
HETATM    8  C7  UNK     1      19.241  -0.125  15.008  1.00  0.00     0.304 A 
HETATM    9  C8  UNK     1      19.244   2.797  17.265  1.00  0.00     0.038 A 
HETATM   10  C10 UNK     1      18.840   2.101  19.544  1.00  0.00     0.001 A 
HETATM   11  C11 UNK     1      19.086   3.112  18.613  1.00  0.00     0.003 A 
ENDROOT
BRANCH   5  12
HETATM   12  C6  UNK     1      18.877  -2.606  15.608  1.00  0.00     0.262 C 
HETATM   13  O2  UNK     1      17.819  -3.211  15.779  1.00  0.00    -0.267 OA
HETATM   14  N1  UNK     1      20.062  -3.089  15.071  1.00  0.00    -0.323 N 
HETATM   15  H4  UNK     1      20.861  -2.460  15.017  1.00  0.00     0.169 HD
BRANCH  14  16
HETATM   16  C9  UNK     1      20.325  -4.396  14.593  1.00  0.00     0.035 A 
HETATM   17  C12 UNK     1      20.962  -5.304  15.422  1.00  0.00     0.029 A 
HETATM   18  C14 UNK     1      21.221  -6.591  14.951  1.00  0.00     0.002 A 
HETATM   19  C16 UNK     1      20.841  -6.951  13.659  1.00  0.00     0.000 A 
HETATM   20  C15 UNK     1      20.201  -6.023  12.836  1.00  0.00     0.002 A 
HETATM   21  C13 UNK     1      19.941  -4.737  13.307  1.00  0.00     0.029 A 
ENDBRANCH  14  16
ENDBRANCH   5  12
TORSDOF 2
ENDMDL
