MODEL 1
REMARK VINA RESULT:      -9.3      0.000      0.000
REMARK  7 active torsions:
REMARK  status: ('A' for Active; 'I' for Inactive)
REMARK    1  A    between atoms: C15_22  and  O3_3 
REMARK    2  A    between atoms: C20_27  and  O3_3 
REMARK    3  A    between atoms: C5_12  and  N1_5 
REMARK    4  A    between atoms: C6_13  and  N2_6 
REMARK    5  A    between atoms: C17_24  and  N3_7 
REMARK       I    between atoms: C9_16  and  N3_7 
REMARK    6  A    between atoms: C5_12  and  C7_14 
REMARK    7  A    between atoms: C6_13  and  C9_16 
ROOT
HETATM    1  N1  UNK     1      18.409   5.813  32.978  1.00  0.00     0.096 N 
HETATM    2  N2  UNK     1      18.917   4.144  30.672  1.00  0.00     0.100 N 
HETATM    3  C1  UNK     1      18.175   4.364  33.019  1.00  0.00     0.303 C 
HETATM    4  C2  UNK     1      19.480   6.133  32.027  1.00  0.00     0.303 C 
HETATM    5  C3  UNK     1      17.844   3.826  31.623  1.00  0.00     0.303 C 
HETATM    6  C4  UNK     1      19.151   5.593  30.632  1.00  0.00     0.303 C 
ENDROOT
BRANCH   1   7
HETATM    7  C5  UNK     1      18.727   6.325  34.310  1.00  0.00     0.312 C 
BRANCH   7   8
HETATM    8  C7  UNK     1      18.899   7.803  34.317  1.00  0.00    -0.011 A 
HETATM    9  C10 UNK     1      20.113   8.358  34.442  1.00  0.00     0.092 A 
HETATM   10  C13 UNK     1      20.334   9.814  34.455  1.00  0.00     0.288 A 
HETATM   11  O4  UNK     1      21.459  10.287  34.571  1.00  0.00    -0.260 OA
HETATM   12  O1  UNK     1      19.209  10.615  34.330  1.00  0.00    -0.275 OA
HETATM   13  C11 UNK     1      17.920  10.061  34.198  1.00  0.00     0.090 A 
HETATM   14  C8  UNK     1      17.727   8.679  34.188  1.00  0.00     0.009 A 
HETATM   15  C14 UNK     1      16.861  10.963  34.081  1.00  0.00     0.041 A 
HETATM   16  C12 UNK     1      16.413   8.208  34.055  1.00  0.00     0.051 A 
HETATM   17  C15 UNK     1      15.342   9.099  33.936  1.00  0.00     0.069 A 
HETATM   18  C16 UNK     1      15.565  10.476  33.949  1.00  0.00     0.039 A 
BRANCH  17  19
HETATM   19  O3  UNK     1      14.074   8.621  33.807  1.00  0.00    -0.351 OA
BRANCH  19  20
HETATM   20  C20 UNK     1      13.932   7.253  33.430  1.00  0.00     0.171 C 
HETATM   21  C24 UNK     1      13.763   7.170  31.927  1.00  0.00     0.034 C 
ENDBRANCH  19  20
ENDBRANCH  17  19
ENDBRANCH   7   8
ENDBRANCH   1   7
BRANCH   2  22
HETATM   22  C6  UNK     1      18.600   3.631  29.341  1.00  0.00     0.375 C 
BRANCH  22  23
HETATM   23  C9  UNK     1      18.478   2.119  29.398  1.00  0.00     0.250 C 
HETATM   24  N3  UNK     1      19.619   1.565  29.975  1.00  0.00    -0.326 N 
HETATM   25  H15 UNK     1      20.358   2.200  30.267  1.00  0.00     0.169 HD
HETATM   26  O2  UNK     1      17.495   1.518  28.976  1.00  0.00    -0.271 OA
BRANCH  24  27
HETATM   27  C17 UNK     1      19.892   0.195  30.206  1.00  0.00     0.034 A 
HETATM   28  C18 UNK     1      20.444  -0.587  29.191  1.00  0.00     0.029 A 
HETATM   29  C21 UNK     1      20.713  -1.936  29.418  1.00  0.00     0.002 A 
HETATM   30  C23 UNK     1      20.432  -2.504  30.661  1.00  0.00     0.000 A 
HETATM   31  C22 UNK     1      19.882  -1.722  31.675  1.00  0.00     0.002 A 
HETATM   32  C19 UNK     1      19.611  -0.372  31.449  1.00  0.00     0.029 A 
ENDBRANCH  24  27
ENDBRANCH  22  23
ENDBRANCH   2  22
TORSDOF 7
ENDMDL
MODEL 2
REMARK VINA RESULT:      -9.3      7.454     13.332
REMARK  7 active torsions:
REMARK  status: ('A' for Active; 'I' for Inactive)
REMARK    1  A    between atoms: C15_22  and  O3_3 
REMARK    2  A    between atoms: C20_27  and  O3_3 
REMARK    3  A    between atoms: C5_12  and  N1_5 
REMARK    4  A    between atoms: C6_13  and  N2_6 
REMARK    5  A    between atoms: C17_24  and  N3_7 
REMARK       I    between atoms: C9_16  and  N3_7 
REMARK    6  A    between atoms: C5_12  and  C7_14 
REMARK    7  A    between atoms: C6_13  and  C9_16 
ROOT
HETATM    1  N1  UNK     1      19.169  -3.756  36.461  1.00  0.00     0.096 N 
HETATM    2  N2  UNK     1      18.971  -0.981  35.676  1.00  0.00     0.100 N 
HETATM    3  C1  UNK     1      20.264  -3.085  35.750  1.00  0.00     0.303 C 
HETATM    4  C2  UNK     1      18.410  -2.789  37.264  1.00  0.00     0.303 C 
HETATM    5  C3  UNK     1      19.729  -1.948  34.873  1.00  0.00     0.303 C 
HETATM    6  C4  UNK     1      17.876  -1.652  36.387  1.00  0.00     0.303 C 
ENDROOT
BRANCH   1   7
HETATM    7  C5  UNK     1      19.681  -4.839  37.300  1.00  0.00     0.312 C 
BRANCH   7   8
HETATM    8  C7  UNK     1      19.138  -6.165  36.898  1.00  0.00    -0.011 A 
HETATM    9  C10 UNK     1      18.162  -6.267  35.985  1.00  0.00     0.092 A 
HETATM   10  C13 UNK     1      17.593  -7.556  35.557  1.00  0.00     0.288 A 
HETATM   11  O4  UNK     1      16.700  -7.611  34.719  1.00  0.00    -0.260 OA
HETATM   12  O1  UNK     1      18.118  -8.695  36.147  1.00  0.00    -0.275 OA
HETATM   13  C11 UNK     1      19.144  -8.621  37.111  1.00  0.00     0.090 A 
HETATM   14  C8  UNK     1      19.673  -7.391  37.507  1.00  0.00     0.009 A 
HETATM   15  C14 UNK     1      19.595  -9.831  37.639  1.00  0.00     0.041 A 
HETATM   16  C12 UNK     1      20.690  -7.402  38.471  1.00  0.00     0.051 A 
HETATM   17  C15 UNK     1      21.152  -8.608  39.010  1.00  0.00     0.069 A 
HETATM   18  C16 UNK     1      20.605  -9.822  38.595  1.00  0.00     0.039 A 
BRANCH  17  19
HETATM   19  O3  UNK     1      22.141  -8.596  39.946  1.00  0.00    -0.351 OA
BRANCH  19  20
HETATM   20  C20 UNK     1      23.093  -7.537  39.871  1.00  0.00     0.171 C 
HETATM   21  C24 UNK     1      24.222  -7.951  38.952  1.00  0.00     0.034 C 
ENDBRANCH  19  20
ENDBRANCH  17  19
ENDBRANCH   7   8
ENDBRANCH   1   7
BRANCH   2  22
HETATM   22  C6  UNK     1      18.461   0.103  34.839  1.00  0.00     0.375 C 
BRANCH  22  23
HETATM   23  C9  UNK     1      18.298  -0.395  33.413  1.00  0.00     0.250 C 
HETATM   24  N3  UNK     1      19.324   0.098  32.611  1.00  0.00    -0.326 N 
HETATM   25  H15 UNK     1      20.018   0.702  33.046  1.00  0.00     0.169 HD
HETATM   26  O2  UNK     1      17.371  -1.121  33.068  1.00  0.00    -0.271 OA
BRANCH  24  27
HETATM   27  C17 UNK     1      19.528  -0.134  31.229  1.00  0.00     0.034 A 
HETATM   28  C18 UNK     1      19.103   0.811  30.294  1.00  0.00     0.029 A 
HETATM   29  C21 UNK     1      19.304   0.583  28.932  1.00  0.00     0.002 A 
HETATM   30  C23 UNK     1      19.930  -0.589  28.506  1.00  0.00     0.000 A 
HETATM   31  C22 UNK     1      20.354  -1.532  29.441  1.00  0.00     0.002 A 
HETATM   32  C19 UNK     1      20.154  -1.305  30.803  1.00  0.00     0.029 A 
ENDBRANCH  24  27
ENDBRANCH  22  23
ENDBRANCH   2  22
TORSDOF 7
ENDMDL
MODEL 3
REMARK VINA RESULT:      -9.1      7.198     13.244
REMARK  7 active torsions:
REMARK  status: ('A' for Active; 'I' for Inactive)
REMARK    1  A    between atoms: C15_22  and  O3_3 
REMARK    2  A    between atoms: C20_27  and  O3_3 
REMARK    3  A    between atoms: C5_12  and  N1_5 
REMARK    4  A    between atoms: C6_13  and  N2_6 
REMARK    5  A    between atoms: C17_24  and  N3_7 
REMARK       I    between atoms: C9_16  and  N3_7 
REMARK    6  A    between atoms: C5_12  and  C7_14 
REMARK    7  A    between atoms: C6_13  and  C9_16 
ROOT
HETATM    1  N1  UNK     1      19.234  -3.081  36.351  1.00  0.00     0.096 N 
HETATM    2  N2  UNK     1      18.320  -0.453  35.566  1.00  0.00     0.100 N 
HETATM    3  C1  UNK     1      19.947  -2.298  35.335  1.00  0.00     0.303 C 
HETATM    4  C2  UNK     1      18.561  -2.191  37.306  1.00  0.00     0.303 C 
HETATM    5  C3  UNK     1      18.991  -1.344  34.611  1.00  0.00     0.303 C 
HETATM    6  C4  UNK     1      17.606  -1.236  36.582  1.00  0.00     0.303 C 
ENDROOT
BRANCH   1   7
HETATM    7  C5  UNK     1      20.148  -3.988  37.043  1.00  0.00     0.312 C 
BRANCH   7   8
HETATM    8  C7  UNK     1      19.797  -5.418  36.818  1.00  0.00    -0.011 A 
HETATM    9  C10 UNK     1      18.652  -5.763  36.212  1.00  0.00     0.092 A 
HETATM   10  C13 UNK     1      18.263  -7.162  35.968  1.00  0.00     0.288 A 
HETATM   11  O4  UNK     1      17.207  -7.441  35.411  1.00  0.00    -0.260 OA
HETATM   12  O1  UNK     1      19.146  -8.139  36.400  1.00  0.00    -0.275 OA
HETATM   13  C11 UNK     1      20.357  -7.807  37.041  1.00  0.00     0.090 A 
HETATM   14  C8  UNK     1      20.713  -6.476  37.266  1.00  0.00     0.009 A 
HETATM   15  C14 UNK     1      21.168  -8.873  37.435  1.00  0.00     0.041 A 
HETATM   16  C12 UNK     1      21.932  -6.230  37.911  1.00  0.00     0.051 A 
HETATM   17  C15 UNK     1      22.756  -7.287  38.311  1.00  0.00     0.069 A 
HETATM   18  C16 UNK     1      22.375  -8.608  38.074  1.00  0.00     0.039 A 
BRANCH  17  19
HETATM   19  O3  UNK     1      23.937  -7.026  38.936  1.00  0.00    -0.351 OA
BRANCH  19  20
HETATM   20  C20 UNK     1      24.911  -8.069  38.945  1.00  0.00     0.171 C 
HETATM   21  C24 UNK     1      26.255  -7.492  38.553  1.00  0.00     0.034 C 
ENDBRANCH  19  20
ENDBRANCH  17  19
ENDBRANCH   7   8
ENDBRANCH   1   7
BRANCH   2  22
HETATM   22  C6  UNK     1      17.407   0.456  34.875  1.00  0.00     0.375 C 
BRANCH  22  23
HETATM   23  C9  UNK     1      18.174   1.679  34.403  1.00  0.00     0.250 C 
HETATM   24  N3  UNK     1      17.698   2.097  33.162  1.00  0.00    -0.326 N 
HETATM   25  H15 UNK     1      16.942   1.563  32.740  1.00  0.00     0.169 HD
HETATM   26  O2  UNK     1      19.081   2.184  35.058  1.00  0.00    -0.271 OA
BRANCH  24  27
HETATM   27  C17 UNK     1      18.149   3.195  32.390  1.00  0.00     0.034 A 
HETATM   28  C18 UNK     1      18.494   3.010  31.051  1.00  0.00     0.029 A 
HETATM   29  C21 UNK     1      18.938   4.091  30.289  1.00  0.00     0.002 A 
HETATM   30  C23 UNK     1      19.034   5.358  30.866  1.00  0.00     0.000 A 
HETATM   31  C22 UNK     1      18.689   5.542  32.204  1.00  0.00     0.002 A 
HETATM   32  C19 UNK     1      18.246   4.461  32.967  1.00  0.00     0.029 A 
ENDBRANCH  24  27
ENDBRANCH  22  23
ENDBRANCH   2  22
TORSDOF 7
ENDMDL
MODEL 4
REMARK VINA RESULT:      -9.0      7.995     12.096
REMARK  7 active torsions:
REMARK  status: ('A' for Active; 'I' for Inactive)
REMARK    1  A    between atoms: C15_22  and  O3_3 
REMARK    2  A    between atoms: C20_27  and  O3_3 
REMARK    3  A    between atoms: C5_12  and  N1_5 
REMARK    4  A    between atoms: C6_13  and  N2_6 
REMARK    5  A    between atoms: C17_24  and  N3_7 
REMARK       I    between atoms: C9_16  and  N3_7 
REMARK    6  A    between atoms: C5_12  and  C7_14 
REMARK    7  A    between atoms: C6_13  and  C9_16 
ROOT
HETATM    1  N1  UNK     1      19.901  -4.735  36.609  1.00  0.00     0.096 N 
HETATM    2  N2  UNK     1      19.994  -7.625  36.605  1.00  0.00     0.100 N 
HETATM    3  C1  UNK     1      20.480  -5.481  37.733  1.00  0.00     0.303 C 
HETATM    4  C2  UNK     1      20.053  -5.491  35.360  1.00  0.00     0.303 C 
HETATM    5  C3  UNK     1      19.841  -6.868  37.855  1.00  0.00     0.303 C 
HETATM    6  C4  UNK     1      19.415  -6.879  35.481  1.00  0.00     0.303 C 
ENDROOT
BRANCH   1   7
HETATM    7  C5  UNK     1      20.514  -3.413  36.492  1.00  0.00     0.312 C 
BRANCH   7   8
HETATM    8  C7  UNK     1      19.514  -2.356  36.178  1.00  0.00    -0.011 A 
HETATM    9  C10 UNK     1      18.714  -1.854  37.130  1.00  0.00     0.092 A 
HETATM   10  C13 UNK     1      17.710  -0.809  36.868  1.00  0.00     0.288 A 
HETATM   11  O4  UNK     1      16.995  -0.374  37.763  1.00  0.00    -0.260 OA
HETATM   12  O1  UNK     1      17.617  -0.349  35.564  1.00  0.00    -0.275 OA
HETATM   13  C11 UNK     1      18.444  -0.857  34.541  1.00  0.00     0.090 A 
HETATM   14  C8  UNK     1      19.391  -1.848  34.805  1.00  0.00     0.009 A 
HETATM   15  C14 UNK     1      18.261  -0.320  33.266  1.00  0.00     0.041 A 
HETATM   16  C12 UNK     1      20.172  -2.301  33.734  1.00  0.00     0.051 A 
HETATM   17  C15 UNK     1      20.001  -1.773  32.450  1.00  0.00     0.069 A 
HETATM   18  C16 UNK     1      19.047  -0.783  32.215  1.00  0.00     0.039 A 
BRANCH  17  19
HETATM   19  O3  UNK     1      20.771  -2.227  31.423  1.00  0.00    -0.351 OA
BRANCH  19  20
HETATM   20  C20 UNK     1      20.200  -2.186  30.116  1.00  0.00     0.171 C 
HETATM   21  C24 UNK     1      20.874  -1.091  29.317  1.00  0.00     0.034 C 
ENDBRANCH  19  20
ENDBRANCH  17  19
ENDBRANCH   7   8
ENDBRANCH   1   7
BRANCH   2  22
HETATM   22  C6  UNK     1      19.383  -8.948  36.722  1.00  0.00     0.375 C 
BRANCH  22  23
HETATM   23  C9  UNK     1      20.471  -9.992  36.903  1.00  0.00     0.250 C 
HETATM   24  N3  UNK     1      21.650  -9.571  36.292  1.00  0.00    -0.326 N 
HETATM   25  H15 UNK     1      21.643  -8.670  35.819  1.00  0.00     0.169 HD
HETATM   26  O2  UNK     1      20.284 -11.044  37.506  1.00  0.00    -0.271 OA
BRANCH  24  27
HETATM   27  C17 UNK     1      22.887 -10.257  36.236  1.00  0.00     0.034 A 
HETATM   28  C18 UNK     1      22.941 -11.556  35.729  1.00  0.00     0.029 A 
HETATM   29  C21 UNK     1      24.160 -12.232  35.674  1.00  0.00     0.002 A 
HETATM   30  C23 UNK     1      25.324 -11.610  36.125  1.00  0.00     0.000 A 
HETATM   31  C22 UNK     1      25.269 -10.312  36.631  1.00  0.00     0.002 A 
HETATM   32  C19 UNK     1      24.051  -9.635  36.687  1.00  0.00     0.029 A 
ENDBRANCH  24  27
ENDBRANCH  22  23
ENDBRANCH   2  22
TORSDOF 7
ENDMDL
MODEL 5
REMARK VINA RESULT:      -9.0      2.418      9.492
REMARK  7 active torsions:
REMARK  status: ('A' for Active; 'I' for Inactive)
REMARK    1  A    between atoms: C15_22  and  O3_3 
REMARK    2  A    between atoms: C20_27  and  O3_3 
REMARK    3  A    between atoms: C5_12  and  N1_5 
REMARK    4  A    between atoms: C6_13  and  N2_6 
REMARK    5  A    between atoms: C17_24  and  N3_7 
REMARK       I    between atoms: C9_16  and  N3_7 
REMARK    6  A    between atoms: C5_12  and  C7_14 
REMARK    7  A    between atoms: C6_13  and  C9_16 
ROOT
HETATM    1  N1  UNK     1      18.865   3.610  31.385  1.00  0.00     0.096 N 
HETATM    2  N2  UNK     1      19.200   6.287  32.424  1.00  0.00     0.100 N 
HETATM    3  C1  UNK     1      18.041   4.105  32.494  1.00  0.00     0.303 C 
HETATM    4  C2  UNK     1      19.275   4.719  30.515  1.00  0.00     0.303 C 
HETATM    5  C3  UNK     1      18.791   5.177  33.294  1.00  0.00     0.303 C 
HETATM    6  C4  UNK     1      20.023   5.791  31.315  1.00  0.00     0.303 C 
ENDROOT
BRANCH   1   7
HETATM    7  C5  UNK     1      18.147   2.590  30.622  1.00  0.00     0.312 C 
BRANCH   7   8
HETATM    8  C7  UNK     1      18.897   1.305  30.558  1.00  0.00    -0.011 A 
HETATM    9  C10 UNK     1      19.542   0.935  29.443  1.00  0.00     0.092 A 
HETATM   10  C13 UNK     1      20.296  -0.326  29.332  1.00  0.00     0.288 A 
HETATM   11  O4  UNK     1      20.874  -0.632  28.295  1.00  0.00    -0.260 OA
HETATM   12  O1  UNK     1      20.315  -1.140  30.453  1.00  0.00    -0.275 OA
HETATM   13  C11 UNK     1      19.646  -0.778  31.640  1.00  0.00     0.090 A 
HETATM   14  C8  UNK     1      18.936   0.420  31.730  1.00  0.00     0.009 A 
HETATM   15  C14 UNK     1      19.733  -1.676  32.705  1.00  0.00     0.041 A 
HETATM   16  C12 UNK     1      18.296   0.705  32.943  1.00  0.00     0.051 A 
HETATM   17  C15 UNK     1      18.374  -0.184  34.020  1.00  0.00     0.069 A 
HETATM   18  C16 UNK     1      19.091  -1.374  33.901  1.00  0.00     0.039 A 
BRANCH  17  19
HETATM   19  O3  UNK     1      17.745   0.113  35.191  1.00  0.00    -0.351 OA
BRANCH  19  20
HETATM   20  C20 UNK     1      18.499   0.827  36.169  1.00  0.00     0.171 C 
HETATM   21  C24 UNK     1      17.558   1.344  37.237  1.00  0.00     0.034 C 
ENDBRANCH  19  20
ENDBRANCH  17  19
ENDBRANCH   7   8
ENDBRANCH   1   7
BRANCH   2  22
HETATM   22  C6  UNK     1      19.916   7.308  33.187  1.00  0.00     0.375 C 
BRANCH  22  23
HETATM   23  C9  UNK     1      18.948   8.008  34.125  1.00  0.00     0.250 C 
HETATM   24  N3  UNK     1      17.950   8.650  33.396  1.00  0.00    -0.326 N 
HETATM   25  H15 UNK     1      17.987   8.584  32.382  1.00  0.00     0.169 HD
HETATM   26  O2  UNK     1      19.078   7.985  35.345  1.00  0.00    -0.271 OA
BRANCH  24  27
HETATM   27  C17 UNK     1      16.867   9.409  33.900  1.00  0.00     0.034 A 
HETATM   28  C18 UNK     1      17.055  10.747  34.250  1.00  0.00     0.029 A 
HETATM   29  C21 UNK     1      15.988  11.496  34.745  1.00  0.00     0.002 A 
HETATM   30  C23 UNK     1      14.731  10.907  34.889  1.00  0.00     0.000 A 
HETATM   31  C22 UNK     1      14.543   9.571  34.539  1.00  0.00     0.002 A 
HETATM   32  C19 UNK     1      15.610   8.821  34.044  1.00  0.00     0.029 A 
ENDBRANCH  24  27
ENDBRANCH  22  23
ENDBRANCH   2  22
TORSDOF 7
ENDMDL
MODEL 6
REMARK VINA RESULT:      -8.6      6.180      9.675
REMARK  7 active torsions:
REMARK  status: ('A' for Active; 'I' for Inactive)
REMARK    1  A    between atoms: C15_22  and  O3_3 
REMARK    2  A    between atoms: C20_27  and  O3_3 
REMARK    3  A    between atoms: C5_12  and  N1_5 
REMARK    4  A    between atoms: C6_13  and  N2_6 
REMARK    5  A    between atoms: C17_24  and  N3_7 
REMARK       I    between atoms: C9_16  and  N3_7 
REMARK    6  A    between atoms: C5_12  and  C7_14 
REMARK    7  A    between atoms: C6_13  and  C9_16 
ROOT
HETATM    1  N1  UNK     1      18.799  -1.092  35.093  1.00  0.00     0.096 N 
HETATM    2  N2  UNK     1      19.824  -3.119  36.881  1.00  0.00     0.100 N 
HETATM    3  C1  UNK     1      19.721  -2.132  34.618  1.00  0.00     0.303 C 
HETATM    4  C2  UNK     1      18.000  -1.590  36.218  1.00  0.00     0.303 C 
HETATM    5  C3  UNK     1      20.625  -2.620  35.756  1.00  0.00     0.303 C 
HETATM    6  C4  UNK     1      18.903  -2.080  37.355  1.00  0.00     0.303 C 
ENDROOT
BRANCH   1   7
HETATM    7  C5  UNK     1      17.936  -0.629  34.007  1.00  0.00     0.312 C 
BRANCH   7   8
HETATM    8  C7  UNK     1      18.666  -0.525  32.714  1.00  0.00    -0.011 A 
HETATM    9  C10 UNK     1      19.304  -1.582  32.192  1.00  0.00     0.092 A 
HETATM   10  C13 UNK     1      20.040  -1.527  30.917  1.00  0.00     0.288 A 
HETATM   11  O4  UNK     1      20.612  -2.514  30.470  1.00  0.00    -0.260 OA
HETATM   12  O1  UNK     1      20.050  -0.309  30.256  1.00  0.00    -0.275 OA
HETATM   13  C11 UNK     1      19.389   0.821  30.780  1.00  0.00     0.090 A 
HETATM   14  C8  UNK     1      18.696   0.753  31.990  1.00  0.00     0.009 A 
HETATM   15  C14 UNK     1      19.467   1.995  30.030  1.00  0.00     0.041 A 
HETATM   16  C12 UNK     1      18.067   1.921  32.444  1.00  0.00     0.051 A 
HETATM   17  C15 UNK     1      18.137   3.105  31.703  1.00  0.00     0.069 A 
HETATM   18  C16 UNK     1      18.836   3.143  30.498  1.00  0.00     0.039 A 
BRANCH  17  19
HETATM   19  O3  UNK     1      17.518   4.228  32.162  1.00  0.00    -0.351 OA
BRANCH  19  20
HETATM   20  C20 UNK     1      18.292   5.425  32.200  1.00  0.00     0.171 C 
HETATM   21  C24 UNK     1      18.972   5.531  33.549  1.00  0.00     0.034 C 
ENDBRANCH  19  20
ENDBRANCH  17  19
ENDBRANCH   7   8
ENDBRANCH   1   7
BRANCH   2  22
HETATM   22  C6  UNK     1      20.687  -3.584  37.966  1.00  0.00     0.375 C 
BRANCH  22  23
HETATM   23  C9  UNK     1      20.920  -5.077  37.821  1.00  0.00     0.250 C 
HETATM   24  N3  UNK     1      19.789  -5.783  38.224  1.00  0.00    -0.326 N 
HETATM   25  H15 UNK     1      18.989  -5.247  38.553  1.00  0.00     0.169 HD
HETATM   26  O2  UNK     1      21.977  -5.545  37.409  1.00  0.00    -0.271 OA
BRANCH  24  27
HETATM   27  C17 UNK     1      19.607  -7.187  38.241  1.00  0.00     0.034 A 
HETATM   28  C18 UNK     1      20.041  -7.933  39.337  1.00  0.00     0.029 A 
HETATM   29  C21 UNK     1      19.862  -9.316  39.355  1.00  0.00     0.002 A 
HETATM   30  C23 UNK     1      19.248  -9.953  38.277  1.00  0.00     0.000 A 
HETATM   31  C22 UNK     1      18.813  -9.208  37.182  1.00  0.00     0.002 A 
HETATM   32  C19 UNK     1      18.993  -7.824  37.163  1.00  0.00     0.029 A 
ENDBRANCH  24  27
ENDBRANCH  22  23
ENDBRANCH   2  22
TORSDOF 7
ENDMDL
MODEL 7
REMARK VINA RESULT:      -8.5     11.538     16.672
REMARK  7 active torsions:
REMARK  status: ('A' for Active; 'I' for Inactive)
REMARK    1  A    between atoms: C15_22  and  O3_3 
REMARK    2  A    between atoms: C20_27  and  O3_3 
REMARK    3  A    between atoms: C5_12  and  N1_5 
REMARK    4  A    between atoms: C6_13  and  N2_6 
REMARK    5  A    between atoms: C17_24  and  N3_7 
REMARK       I    between atoms: C9_16  and  N3_7 
REMARK    6  A    between atoms: C5_12  and  C7_14 
REMARK    7  A    between atoms: C6_13  and  C9_16 
ROOT
HETATM    1  N1  UNK     1      23.814  -9.336  37.197  1.00  0.00     0.096 N 
HETATM    2  N2  UNK     1      26.253  -8.340  38.388  1.00  0.00     0.100 N 
HETATM    3  C1  UNK     1      23.841  -8.065  37.930  1.00  0.00     0.303 C 
HETATM    4  C2  UNK     1      25.123  -9.606  36.591  1.00  0.00     0.303 C 
HETATM    5  C3  UNK     1      24.943  -8.071  38.995  1.00  0.00     0.303 C 
HETATM    6  C4  UNK     1      26.226  -9.611  37.655  1.00  0.00     0.303 C 
ENDROOT
BRANCH   1   7
HETATM    7  C5  UNK     1      22.763  -9.327  36.181  1.00  0.00     0.312 C 
BRANCH   7   8
HETATM    8  C7  UNK     1      21.403  -9.432  36.778  1.00  0.00    -0.011 A 
HETATM    9  C10 UNK     1      20.999 -10.555  37.388  1.00  0.00     0.092 A 
HETATM   10  C13 UNK     1      19.664 -10.705  37.992  1.00  0.00     0.288 A 
HETATM   11  O4  UNK     1      19.328 -11.748  38.541  1.00  0.00    -0.260 OA
HETATM   12  O1  UNK     1      18.815  -9.613  37.906  1.00  0.00    -0.275 OA
HETATM   13  C11 UNK     1      19.211  -8.419  37.270  1.00  0.00     0.090 A 
HETATM   14  C8  UNK     1      20.480  -8.291  36.702  1.00  0.00     0.009 A 
HETATM   15  C14 UNK     1      18.274  -7.386  37.242  1.00  0.00     0.041 A 
HETATM   16  C12 UNK     1      20.796  -7.072  36.087  1.00  0.00     0.051 A 
HETATM   17  C15 UNK     1      19.867  -6.027  36.051  1.00  0.00     0.069 A 
HETATM   18  C16 UNK     1      18.606  -6.183  36.627  1.00  0.00     0.039 A 
BRANCH  17  19
HETATM   19  O3  UNK     1      20.194  -4.851  35.449  1.00  0.00    -0.351 OA
BRANCH  19  20
HETATM   20  C20 UNK     1      20.012  -3.659  36.211  1.00  0.00     0.171 C 
HETATM   21  C24 UNK     1      20.139  -2.461  35.293  1.00  0.00     0.034 C 
ENDBRANCH  19  20
ENDBRANCH  17  19
ENDBRANCH   7   8
ENDBRANCH   1   7
BRANCH   2  22
HETATM   22  C6  UNK     1      27.305  -8.347  39.403  1.00  0.00     0.375 C 
BRANCH  22  23
HETATM   23  C9  UNK     1      28.224  -7.158  39.187  1.00  0.00     0.250 C 
HETATM   24  N3  UNK     1      29.282  -7.513  38.353  1.00  0.00    -0.326 N 
HETATM   25  H15 UNK     1      29.316  -8.471  38.013  1.00  0.00     0.169 HD
HETATM   26  O2  UNK     1      28.021  -6.063  39.702  1.00  0.00    -0.271 OA
BRANCH  24  27
HETATM   27  C17 UNK     1      30.348  -6.692  37.914  1.00  0.00     0.034 A 
HETATM   28  C18 UNK     1      30.117  -5.698  36.963  1.00  0.00     0.029 A 
HETATM   29  C21 UNK     1      31.167  -4.888  36.530  1.00  0.00     0.002 A 
HETATM   30  C23 UNK     1      32.448  -5.071  37.050  1.00  0.00     0.000 A 
HETATM   31  C22 UNK     1      32.680  -6.063  38.001  1.00  0.00     0.002 A 
HETATM   32  C19 UNK     1      31.630  -6.875  38.434  1.00  0.00     0.029 A 
ENDBRANCH  24  27
ENDBRANCH  22  23
ENDBRANCH   2  22
TORSDOF 7
ENDMDL
MODEL 8
REMARK VINA RESULT:      -8.5     21.848     24.349
REMARK  7 active torsions:
REMARK  status: ('A' for Active; 'I' for Inactive)
REMARK    1  A    between atoms: C15_22  and  O3_3 
REMARK    2  A    between atoms: C20_27  and  O3_3 
REMARK    3  A    between atoms: C5_12  and  N1_5 
REMARK    4  A    between atoms: C6_13  and  N2_6 
REMARK    5  A    between atoms: C17_24  and  N3_7 
REMARK       I    between atoms: C9_16  and  N3_7 
REMARK    6  A    between atoms: C5_12  and  C7_14 
REMARK    7  A    between atoms: C6_13  and  C9_16 
ROOT
HETATM    1  N1  UNK     1      16.812   9.570   9.623  1.00  0.00     0.096 N 
HETATM    2  N2  UNK     1      15.232   7.173   9.966  1.00  0.00     0.100 N 
HETATM    3  C1  UNK     1      15.344   9.617   9.617  1.00  0.00     0.303 C 
HETATM    4  C2  UNK     1      17.286   8.457  10.454  1.00  0.00     0.303 C 
HETATM    5  C3  UNK     1      14.758   8.286   9.133  1.00  0.00     0.303 C 
HETATM    6  C4  UNK     1      16.699   7.127   9.971  1.00  0.00     0.303 C 
ENDROOT
BRANCH   1   7
HETATM    7  C5  UNK     1      17.369  10.840  10.088  1.00  0.00     0.312 C 
BRANCH   7   8
HETATM    8  C7  UNK     1      18.378  11.390   9.141  1.00  0.00    -0.011 A 
HETATM    9  C10 UNK     1      18.089  11.560   7.843  1.00  0.00     0.092 A 
HETATM   10  C13 UNK     1      19.054  12.100   6.870  1.00  0.00     0.288 A 
HETATM   11  O4  UNK     1      18.755  12.241   5.689  1.00  0.00    -0.260 OA
HETATM   12  O1  UNK     1      20.307  12.437   7.356  1.00  0.00    -0.275 OA
HETATM   13  C11 UNK     1      20.640  12.269   8.716  1.00  0.00     0.090 A 
HETATM   14  C8  UNK     1      19.715  11.756   9.627  1.00  0.00     0.009 A 
HETATM   15  C14 UNK     1      21.932  12.641   9.093  1.00  0.00     0.041 A 
HETATM   16  C12 UNK     1      20.125  11.619  10.960  1.00  0.00     0.051 A 
HETATM   17  C15 UNK     1      21.416  11.987  11.353  1.00  0.00     0.069 A 
HETATM   18  C16 UNK     1      22.319  12.497  10.421  1.00  0.00     0.039 A 
BRANCH  17  19
HETATM   19  O3  UNK     1      21.794  11.846  12.654  1.00  0.00    -0.351 OA
BRANCH  19  20
HETATM   20  C20 UNK     1      21.036  12.558  13.630  1.00  0.00     0.171 C 
HETATM   21  C24 UNK     1      21.380  12.027  15.006  1.00  0.00     0.034 C 
ENDBRANCH  19  20
ENDBRANCH  17  19
ENDBRANCH   7   8
ENDBRANCH   1   7
BRANCH   2  22
HETATM   22  C6  UNK     1      14.673   5.904   9.503  1.00  0.00     0.375 C 
BRANCH  22  23
HETATM   23  C9  UNK     1      13.163   6.025   9.401  1.00  0.00     0.250 C 
HETATM   24  N3  UNK     1      12.763   5.955   8.069  1.00  0.00    -0.326 N 
HETATM   25  H15 UNK     1      13.486   5.844   7.362  1.00  0.00     0.169 HD
HETATM   26  O2  UNK     1      12.443   6.169  10.384  1.00  0.00    -0.271 OA
BRANCH  24  27
HETATM   27  C17 UNK     1      11.444   6.028   7.558  1.00  0.00     0.034 A 
HETATM   28  C18 UNK     1      11.234   6.152   6.184  1.00  0.00     0.029 A 
HETATM   29  C21 UNK     1       9.936   6.223   5.681  1.00  0.00     0.002 A 
HETATM   30  C23 UNK     1       8.846   6.169   6.551  1.00  0.00     0.000 A 
HETATM   31  C22 UNK     1       9.056   6.044   7.923  1.00  0.00     0.002 A 
HETATM   32  C19 UNK     1      10.355   5.974   8.428  1.00  0.00     0.029 A 
ENDBRANCH  24  27
ENDBRANCH  22  23
ENDBRANCH   2  22
TORSDOF 7
ENDMDL
MODEL 9
REMARK VINA RESULT:      -8.4     14.777     18.580
REMARK  7 active torsions:
REMARK  status: ('A' for Active; 'I' for Inactive)
REMARK    1  A    between atoms: C15_22  and  O3_3 
REMARK    2  A    between atoms: C20_27  and  O3_3 
REMARK    3  A    between atoms: C5_12  and  N1_5 
REMARK    4  A    between atoms: C6_13  and  N2_6 
REMARK    5  A    between atoms: C17_24  and  N3_7 
REMARK       I    between atoms: C9_16  and  N3_7 
REMARK    6  A    between atoms: C5_12  and  C7_14 
REMARK    7  A    between atoms: C6_13  and  C9_16 
ROOT
HETATM    1  N1  UNK     1      26.909  -9.429  37.511  1.00  0.00     0.096 N 
HETATM    2  N2  UNK     1      29.743  -9.148  38.011  1.00  0.00     0.100 N 
HETATM    3  C1  UNK     1      27.438  -9.348  38.878  1.00  0.00     0.303 C 
HETATM    4  C2  UNK     1      27.778  -8.697  36.581  1.00  0.00     0.303 C 
HETATM    5  C3  UNK     1      28.873  -9.881  38.940  1.00  0.00     0.303 C 
HETATM    6  C4  UNK     1      29.214  -9.228  36.644  1.00  0.00     0.303 C 
ENDROOT
BRANCH   1   7
HETATM    7  C5  UNK     1      25.540  -8.918  37.453  1.00  0.00     0.312 C 
BRANCH   7   8
HETATM    8  C7  UNK     1      24.624  -9.846  36.736  1.00  0.00    -0.011 A 
HETATM    9  C10 UNK     1      25.059 -11.026  36.270  1.00  0.00     0.092 A 
HETATM   10  C13 UNK     1      24.190 -11.976  35.555  1.00  0.00     0.288 A 
HETATM   11  O4  UNK     1      24.623 -13.047  35.142  1.00  0.00    -0.260 OA
HETATM   12  O1  UNK     1      22.870 -11.598  35.374  1.00  0.00    -0.275 OA
HETATM   13  C11 UNK     1      22.383 -10.364  35.851  1.00  0.00     0.090 A 
HETATM   14  C8  UNK     1      23.218  -9.473  36.528  1.00  0.00     0.009 A 
HETATM   15  C14 UNK     1      21.036 -10.088  35.611  1.00  0.00     0.041 A 
HETATM   16  C12 UNK     1      22.659  -8.266  36.968  1.00  0.00     0.051 A 
HETATM   17  C15 UNK     1      21.311  -7.976  36.735  1.00  0.00     0.069 A 
HETATM   18  C16 UNK     1      20.500  -8.885  36.057  1.00  0.00     0.039 A 
BRANCH  17  19
HETATM   19  O3  UNK     1      20.787  -6.797  37.173  1.00  0.00    -0.351 OA
BRANCH  19  20
HETATM   20  C20 UNK     1      21.128  -6.387  38.495  1.00  0.00     0.171 C 
HETATM   21  C24 UNK     1      20.156  -7.014  39.473  1.00  0.00     0.034 C 
ENDBRANCH  19  20
ENDBRANCH  17  19
ENDBRANCH   7   8
ENDBRANCH   1   7
BRANCH   2  22
HETATM   22  C6  UNK     1      31.112  -9.657  38.070  1.00  0.00     0.375 C 
BRANCH  22  23
HETATM   23  C9  UNK     1      31.971  -8.912  37.063  1.00  0.00     0.250 C 
HETATM   24  N3  UNK     1      32.210  -7.612  37.503  1.00  0.00    -0.326 N 
HETATM   25  H15 UNK     1      31.801  -7.329  38.391  1.00  0.00     0.169 HD
HETATM   26  O2  UNK     1      32.366  -9.426  36.022  1.00  0.00    -0.271 OA
BRANCH  24  27
HETATM   27  C17 UNK     1      32.964  -6.605  36.853  1.00  0.00     0.034 A 
HETATM   28  C18 UNK     1      32.315  -5.622  36.106  1.00  0.00     0.029 A 
HETATM   29  C21 UNK     1      33.056  -4.629  35.465  1.00  0.00     0.002 A 
HETATM   30  C23 UNK     1      34.447  -4.619  35.573  1.00  0.00     0.000 A 
HETATM   31  C22 UNK     1      35.095  -5.601  36.320  1.00  0.00     0.002 A 
HETATM   32  C19 UNK     1      34.355  -6.595  36.961  1.00  0.00     0.029 A 
ENDBRANCH  24  27
ENDBRANCH  22  23
ENDBRANCH   2  22
TORSDOF 7
ENDMDL
MODEL 10
REMARK VINA RESULT:      -8.4      5.144      7.491
REMARK  7 active torsions:
REMARK  status: ('A' for Active; 'I' for Inactive)
REMARK    1  A    between atoms: C15_22  and  O3_3 
REMARK    2  A    between atoms: C20_27  and  O3_3 
REMARK    3  A    between atoms: C5_12  and  N1_5 
REMARK    4  A    between atoms: C6_13  and  N2_6 
REMARK    5  A    between atoms: C17_24  and  N3_7 
REMARK       I    between atoms: C9_16  and  N3_7 
REMARK    6  A    between atoms: C5_12  and  C7_14 
REMARK    7  A    between atoms: C6_13  and  C9_16 
ROOT
HETATM    1  N1  UNK     1      18.643   0.949  34.158  1.00  0.00     0.096 N 
HETATM    2  N2  UNK     1      19.311  -1.516  35.513  1.00  0.00     0.100 N 
HETATM    3  C1  UNK     1      18.293  -0.355  33.584  1.00  0.00     0.303 C 
HETATM    4  C2  UNK     1      18.682   0.871  35.623  1.00  0.00     0.303 C 
HETATM    5  C3  UNK     1      19.275  -1.437  34.047  1.00  0.00     0.303 C 
HETATM    6  C4  UNK     1      19.662  -0.211  36.087  1.00  0.00     0.303 C 
ENDROOT
BRANCH   1   7
HETATM    7  C5  UNK     1      17.704   1.979  33.717  1.00  0.00     0.312 C 
BRANCH   7   8
HETATM    8  C7  UNK     1      18.154   2.651  32.467  1.00  0.00    -0.011 A 
HETATM    9  C10 UNK     1      18.343   1.956  31.336  1.00  0.00     0.092 A 
HETATM   10  C13 UNK     1      18.787   2.576  30.076  1.00  0.00     0.288 A 
HETATM   11  O4  UNK     1      18.950   1.909  29.062  1.00  0.00    -0.260 OA
HETATM   12  O1  UNK     1      19.009   3.944  30.100  1.00  0.00    -0.275 OA
HETATM   13  C11 UNK     1      18.819   4.702  31.273  1.00  0.00     0.090 A 
HETATM   14  C8  UNK     1      18.398   4.100  32.460  1.00  0.00     0.009 A 
HETATM   15  C14 UNK     1      19.074   6.071  31.181  1.00  0.00     0.041 A 
HETATM   16  C12 UNK     1      18.235   4.923  33.583  1.00  0.00     0.051 A 
HETATM   17  C15 UNK     1      18.486   6.297  33.506  1.00  0.00     0.069 A 
HETATM   18  C16 UNK     1      18.906   6.871  32.306  1.00  0.00     0.039 A 
BRANCH  17  19
HETATM   19  O3  UNK     1      18.320   7.078  34.609  1.00  0.00    -0.351 OA
BRANCH  19  20
HETATM   20  C20 UNK     1      17.372   8.139  34.516  1.00  0.00     0.171 C 
HETATM   21  C24 UNK     1      15.976   7.553  34.493  1.00  0.00     0.034 C 
ENDBRANCH  19  20
ENDBRANCH  17  19
ENDBRANCH   7   8
ENDBRANCH   1   7
BRANCH   2  22
HETATM   22  C6  UNK     1      20.249  -2.547  35.954  1.00  0.00     0.375 C 
BRANCH  22  23
HETATM   23  C9  UNK     1      19.480  -3.683  36.606  1.00  0.00     0.250 C 
HETATM   24  N3  UNK     1      20.339  -4.739  36.901  1.00  0.00    -0.326 N 
HETATM   25  H15 UNK     1      21.320  -4.634  36.655  1.00  0.00     0.169 HD
HETATM   26  O2  UNK     1      18.272  -3.629  36.815  1.00  0.00    -0.271 OA
BRANCH  24  27
HETATM   27  C17 UNK     1      20.011  -5.974  37.509  1.00  0.00     0.034 A 
HETATM   28  C18 UNK     1      20.385  -6.222  38.830  1.00  0.00     0.029 A 
HETATM   29  C21 UNK     1      20.062  -7.439  39.430  1.00  0.00     0.002 A 
HETATM   30  C23 UNK     1      19.363  -8.408  38.710  1.00  0.00     0.000 A 
HETATM   31  C22 UNK     1      18.989  -8.160  37.390  1.00  0.00     0.002 A 
HETATM   32  C19 UNK     1      19.312  -6.943  36.789  1.00  0.00     0.029 A 
ENDBRANCH  24  27
ENDBRANCH  22  23
ENDBRANCH   2  22
TORSDOF 7
ENDMDL
