MODEL 1
REMARK VINA RESULT:      -8.9      0.000      0.000
REMARK  1 active torsions:
REMARK  status: ('A' for Active; 'I' for Inactive)
REMARK    1  A    between atoms: C12_16  and  O3_3 
ROOT
HETATM    1  O1  UNK     1      17.224   6.084  33.441  1.00  0.00    -0.309 OA
HETATM    2  O2  UNK     1      18.271   1.101  33.086  1.00  0.00    -0.275 OA
HETATM    3  O4  UNK     1      18.013   1.049  35.356  1.00  0.00    -0.260 OA
HETATM    4  C1  UNK     1      18.338   3.937  33.262  1.00  0.00     0.017 A 
HETATM    5  C2  UNK     1      18.465   3.258  31.962  1.00  0.00     0.011 A 
HETATM    6  C3  UNK     1      18.358   5.333  33.466  1.00  0.00     0.088 A 
HETATM    7  C4  UNK     1      18.974   7.454  33.845  1.00  0.00     0.000 A 
HETATM    8  C5  UNK     1      18.428   1.865  31.914  1.00  0.00     0.093 A 
HETATM    9  C6  UNK     1      19.457   6.127  33.711  1.00  0.00     0.052 A 
HETATM   10  C7  UNK     1      17.596   7.375  33.670  1.00  0.00     0.086 A 
HETATM   11  C8  UNK     1      18.191   3.176  34.361  1.00  0.00     0.097 A 
HETATM   12  C9  UNK     1      18.623   3.951  30.753  1.00  0.00     0.018 A 
HETATM   13  C10 UNK     1      18.541   1.160  30.715  1.00  0.00     0.075 A 
HETATM   14  C11 UNK     1      19.548   8.714  34.093  1.00  0.00     0.014 A 
HETATM   15  C12 UNK     1      18.698   1.863  29.525  1.00  0.00     0.070 A 
HETATM   16  C13 UNK     1      18.739   3.257  29.544  1.00  0.00     0.038 A 
HETATM   17  C14 UNK     1      16.736   8.471  33.727  1.00  0.00     0.038 A 
HETATM   18  C15 UNK     1      18.150   1.703  34.328  1.00  0.00     0.289 A 
HETATM   19  C16 UNK     1      18.708   9.834  34.156  1.00  0.00     0.001 A 
HETATM   20  C17 UNK     1      17.328   9.713  33.976  1.00  0.00     0.003 A 
ENDROOT
BRANCH  15  21
HETATM   21  O3  UNK     1      18.811   1.194  28.346  1.00  0.00    -0.356 OA
HETATM   22  C18 UNK     1      19.270  -0.155  28.406  1.00  0.00     0.210 C 
ENDBRANCH  15  21
TORSDOF 1
ENDMDL
MODEL 2
REMARK VINA RESULT:      -8.7     22.992     25.147
REMARK  1 active torsions:
REMARK  status: ('A' for Active; 'I' for Inactive)
REMARK    1  A    between atoms: C12_16  and  O3_3 
ROOT
HETATM    1  O1  UNK     1      12.240   6.425   7.111  1.00  0.00    -0.309 OA
HETATM    2  O2  UNK     1      16.448   5.950   9.960  1.00  0.00    -0.275 OA
HETATM    3  O4  UNK     1      16.043   3.702   9.897  1.00  0.00    -0.260 OA
HETATM    4  C1  UNK     1      13.822   6.347   8.948  1.00  0.00     0.017 A 
HETATM    5  C2  UNK     1      14.702   7.492   9.236  1.00  0.00     0.011 A 
HETATM    6  C3  UNK     1      12.506   6.426   8.445  1.00  0.00     0.088 A 
HETATM    7  C4  UNK     1      10.281   6.571   8.225  1.00  0.00     0.000 A 
HETATM    8  C5  UNK     1      15.984   7.259   9.732  1.00  0.00     0.093 A 
HETATM    9  C6  UNK     1      11.338   6.514   9.170  1.00  0.00     0.052 A 
HETATM   10  C7  UNK     1      10.887   6.513   6.975  1.00  0.00     0.086 A 
HETATM   11  C8  UNK     1      14.299   5.111   9.178  1.00  0.00     0.097 A 
HETATM   12  C9  UNK     1      14.310   8.823   9.034  1.00  0.00     0.018 A 
HETATM   13  C10 UNK     1      16.867   8.300  10.025  1.00  0.00     0.075 A 
HETATM   14  C11 UNK     1       8.879   6.665   8.289  1.00  0.00     0.014 A 
HETATM   15  C12 UNK     1      16.462   9.614   9.819  1.00  0.00     0.070 A 
HETATM   16  C13 UNK     1      15.184   9.876   9.325  1.00  0.00     0.038 A 
HETATM   17  C14 UNK     1      10.192   6.542   5.767  1.00  0.00     0.038 A 
HETATM   18  C15 UNK     1      15.651   4.847   9.702  1.00  0.00     0.289 A 
HETATM   19  C16 UNK     1       8.153   6.697   7.091  1.00  0.00     0.001 A 
HETATM   20  C17 UNK     1       8.799   6.636   5.853  1.00  0.00     0.003 A 
ENDROOT
BRANCH  15  21
HETATM   21  O3  UNK     1      17.308  10.642  10.099  1.00  0.00    -0.356 OA
HETATM   22  C18 UNK     1      18.080  11.160   9.018  1.00  0.00     0.210 C 
ENDBRANCH  15  21
TORSDOF 1
ENDMDL
MODEL 3
REMARK VINA RESULT:      -8.6      1.407      3.978
REMARK  1 active torsions:
REMARK  status: ('A' for Active; 'I' for Inactive)
REMARK    1  A    between atoms: C12_16  and  O3_3 
ROOT
HETATM    1  O1  UNK     1      19.397   5.741  33.173  1.00  0.00    -0.309 OA
HETATM    2  O2  UNK     1      18.598   0.997  31.467  1.00  0.00    -0.275 OA
HETATM    3  O4  UNK     1      18.853   1.879  29.374  1.00  0.00    -0.260 OA
HETATM    4  C1  UNK     1      18.390   3.656  32.450  1.00  0.00     0.017 A 
HETATM    5  C2  UNK     1      18.300   2.504  33.363  1.00  0.00     0.011 A 
HETATM    6  C3  UNK     1      18.301   5.013  32.826  1.00  0.00     0.088 A 
HETATM    7  C4  UNK     1      17.580   7.075  33.326  1.00  0.00     0.000 A 
HETATM    8  C5  UNK     1      18.406   1.214  32.845  1.00  0.00     0.093 A 
HETATM    9  C6  UNK     1      17.163   5.786  32.903  1.00  0.00     0.052 A 
HETATM   10  C7  UNK     1      18.960   6.996  33.477  1.00  0.00     0.086 A 
HETATM   11  C8  UNK     1      18.572   3.412  31.140  1.00  0.00     0.097 A 
HETATM   12  C9  UNK     1      18.111   2.641  34.745  1.00  0.00     0.018 A 
HETATM   13  C10 UNK     1      18.331   0.080  33.655  1.00  0.00     0.075 A 
HETATM   14  C11 UNK     1      16.944   8.300  33.596  1.00  0.00     0.014 A 
HETATM   15  C12 UNK     1      18.142   0.234  35.025  1.00  0.00     0.070 A 
HETATM   16  C13 UNK     1      18.032   1.513  35.570  1.00  0.00     0.038 A 
HETATM   17  C14 UNK     1      19.765   8.060  33.883  1.00  0.00     0.038 A 
HETATM   18  C15 UNK     1      18.686   2.055  30.576  1.00  0.00     0.289 A 
HETATM   19  C16 UNK     1      17.727   9.388  34.006  1.00  0.00     0.001 A 
HETATM   20  C17 UNK     1      19.111   9.268  34.147  1.00  0.00     0.003 A 
ENDROOT
BRANCH  15  21
HETATM   21  O3  UNK     1      18.065  -0.858  35.831  1.00  0.00    -0.356 OA
HETATM   22  C18 UNK     1      17.920  -0.623  37.231  1.00  0.00     0.210 C 
ENDBRANCH  15  21
TORSDOF 1
ENDMDL
MODEL 4
REMARK VINA RESULT:      -8.5      6.679     11.132
REMARK  1 active torsions:
REMARK  status: ('A' for Active; 'I' for Inactive)
REMARK    1  A    between atoms: C12_16  and  O3_3 
ROOT
HETATM    1  O1  UNK     1      19.054  -5.444  36.772  1.00  0.00    -0.309 OA
HETATM    2  O2  UNK     1      19.627  -1.079  34.190  1.00  0.00    -0.275 OA
HETATM    3  O4  UNK     1      20.794  -2.320  32.667  1.00  0.00    -0.260 OA
HETATM    4  C1  UNK     1      19.813  -3.283  35.974  1.00  0.00     0.017 A 
HETATM    5  C2  UNK     1      19.121  -2.046  36.372  1.00  0.00     0.011 A 
HETATM    6  C3  UNK     1      19.965  -4.435  36.776  1.00  0.00     0.088 A 
HETATM    7  C4  UNK     1      20.704  -5.983  38.217  1.00  0.00     0.000 A 
HETATM    8  C5  UNK     1      19.049  -0.985  35.470  1.00  0.00     0.093 A 
HETATM    9  C6  UNK     1      20.996  -4.718  37.645  1.00  0.00     0.052 A 
HETATM   10  C7  UNK     1      19.501  -6.387  37.648  1.00  0.00     0.086 A 
HETATM   11  C8  UNK     1      20.353  -3.338  34.744  1.00  0.00     0.097 A 
HETATM   12  C9  UNK     1      18.522  -1.878  37.629  1.00  0.00     0.018 A 
HETATM   13  C10 UNK     1      18.408   0.214  35.784  1.00  0.00     0.075 A 
HETATM   14  C11 UNK     1      21.324  -6.832  39.152  1.00  0.00     0.014 A 
HETATM   15  C12 UNK     1      17.819   0.364  37.036  1.00  0.00     0.070 A 
HETATM   16  C13 UNK     1      17.877  -0.681  37.957  1.00  0.00     0.038 A 
HETATM   17  C14 UNK     1      18.861  -7.590  37.944  1.00  0.00     0.038 A 
HETATM   18  C15 UNK     1      20.287  -2.226  33.779  1.00  0.00     0.289 A 
HETATM   19  C16 UNK     1      20.703  -8.047  39.471  1.00  0.00     0.001 A 
HETATM   20  C17 UNK     1      19.495  -8.418  38.877  1.00  0.00     0.003 A 
ENDROOT
BRANCH  15  21
HETATM   21  O3  UNK     1      17.190   1.525  37.360  1.00  0.00    -0.356 OA
HETATM   22  C18 UNK     1      15.778   1.575  37.163  1.00  0.00     0.210 C 
ENDBRANCH  15  21
TORSDOF 1
ENDMDL
MODEL 5
REMARK VINA RESULT:      -8.3     12.639     15.738
REMARK  1 active torsions:
REMARK  status: ('A' for Active; 'I' for Inactive)
REMARK    1  A    between atoms: C12_16  and  O3_3 
ROOT
HETATM    1  O1  UNK     1      21.786  -8.204  35.764  1.00  0.00    -0.309 OA
HETATM    2  O2  UNK     1      25.669 -11.488  36.202  1.00  0.00    -0.275 OA
HETATM    3  O4  UNK     1      24.361 -12.943  35.019  1.00  0.00    -0.260 OA
HETATM    4  C1  UNK     1      23.361  -9.868  36.560  1.00  0.00     0.017 A 
HETATM    5  C2  UNK     1      24.661  -9.468  37.127  1.00  0.00     0.011 A 
HETATM    6  C3  UNK     1      22.156  -9.144  36.676  1.00  0.00     0.088 A 
HETATM    7  C4  UNK     1      20.182  -8.324  37.351  1.00  0.00     0.000 A 
HETATM    8  C5  UNK     1      25.771 -10.288  36.930  1.00  0.00     0.093 A 
HETATM    9  C6  UNK     1      21.206  -9.255  37.667  1.00  0.00     0.052 A 
HETATM   10  C7  UNK     1      20.586  -7.704  36.173  1.00  0.00     0.086 A 
HETATM   11  C8  UNK     1      23.300 -11.020  35.871  1.00  0.00     0.097 A 
HETATM   12  C9  UNK     1      24.840  -8.288  37.862  1.00  0.00     0.018 A 
HETATM   13  C10 UNK     1      27.030  -9.967  37.439  1.00  0.00     0.075 A 
HETATM   14  C11 UNK     1      18.960  -7.937  37.929  1.00  0.00     0.014 A 
HETATM   15  C12 UNK     1      27.191  -8.792  38.167  1.00  0.00     0.070 A 
HETATM   16  C13 UNK     1      26.097  -7.954  38.379  1.00  0.00     0.038 A 
HETATM   17  C14 UNK     1      19.853  -6.715  35.519  1.00  0.00     0.038 A 
HETATM   18  C15 UNK     1      24.464 -11.899  35.655  1.00  0.00     0.289 A 
HETATM   19  C16 UNK     1      18.201  -6.945  37.294  1.00  0.00     0.001 A 
HETATM   20  C17 UNK     1      18.641  -6.346  36.111  1.00  0.00     0.003 A 
ENDROOT
BRANCH  15  21
HETATM   21  O3  UNK     1      28.410  -8.462  38.671  1.00  0.00    -0.356 OA
HETATM   22  C18 UNK     1      28.669  -7.076  38.889  1.00  0.00     0.210 C 
ENDBRANCH  15  21
TORSDOF 1
ENDMDL
MODEL 6
REMARK VINA RESULT:      -8.2     13.839     15.911
REMARK  1 active torsions:
REMARK  status: ('A' for Active; 'I' for Inactive)
REMARK    1  A    between atoms: C12_16  and  O3_3 
ROOT
HETATM    1  O1  UNK     1      23.773  -8.145  37.470  1.00  0.00    -0.309 OA
HETATM    2  O2  UNK     1      28.521  -8.561  39.298  1.00  0.00    -0.275 OA
HETATM    3  O4  UNK     1      28.046 -10.779  39.579  1.00  0.00    -0.260 OA
HETATM    4  C1  UNK     1      25.742  -8.125  38.886  1.00  0.00     0.017 A 
HETATM    5  C2  UNK     1      26.698  -7.006  38.834  1.00  0.00     0.011 A 
HETATM    6  C3  UNK     1      24.348  -8.025  38.697  1.00  0.00     0.088 A 
HETATM    7  C4  UNK     1      22.139  -7.781  38.987  1.00  0.00     0.000 A 
HETATM    8  C5  UNK     1      28.054  -7.258  39.041  1.00  0.00     0.093 A 
HETATM    9  C6  UNK     1      23.388  -7.801  39.660  1.00  0.00     0.052 A 
HETATM   10  C7  UNK     1      22.430  -7.997  37.644  1.00  0.00     0.086 A 
HETATM   11  C8  UNK     1      26.223  -9.356  39.134  1.00  0.00     0.097 A 
HETATM   12  C9  UNK     1      26.309  -5.683  38.583  1.00  0.00     0.018 A 
HETATM   13  C10 UNK     1      29.012  -6.243  39.004  1.00  0.00     0.075 A 
HETATM   14  C11 UNK     1      20.796  -7.604  39.364  1.00  0.00     0.014 A 
HETATM   15  C12 UNK     1      28.608  -4.936  38.754  1.00  0.00     0.070 A 
HETATM   16  C13 UNK     1      27.258  -4.655  38.544  1.00  0.00     0.038 A 
HETATM   17  C14 UNK     1      21.468  -8.052  36.635  1.00  0.00     0.038 A 
HETATM   18  C15 UNK     1      27.652  -9.639  39.356  1.00  0.00     0.289 A 
HETATM   19  C16 UNK     1      19.807  -7.654  38.371  1.00  0.00     0.001 A 
HETATM   20  C17 UNK     1      20.140  -7.874  37.032  1.00  0.00     0.003 A 
ENDROOT
BRANCH  15  21
HETATM   21  O3  UNK     1      29.526  -3.933  38.714  1.00  0.00    -0.356 OA
HETATM   22  C18 UNK     1      30.420  -3.914  37.602  1.00  0.00     0.210 C 
ENDBRANCH  15  21
TORSDOF 1
ENDMDL
MODEL 7
REMARK VINA RESULT:      -8.1      2.471      7.490
REMARK  1 active torsions:
REMARK  status: ('A' for Active; 'I' for Inactive)
REMARK    1  A    between atoms: C12_16  and  O3_3 
ROOT
HETATM    1  O1  UNK     1      18.642   5.905  31.221  1.00  0.00    -0.309 OA
HETATM    2  O2  UNK     1      18.483   9.963  34.313  1.00  0.00    -0.275 OA
HETATM    3  O4  UNK     1      20.716   9.600  34.639  1.00  0.00    -0.260 OA
HETATM    4  C1  UNK     1      18.345   7.388  33.117  1.00  0.00     0.017 A 
HETATM    5  C2  UNK     1      17.143   8.232  33.235  1.00  0.00     0.011 A 
HETATM    6  C3  UNK     1      18.392   6.100  32.544  1.00  0.00     0.088 A 
HETATM    7  C4  UNK     1      18.348   3.887  32.193  1.00  0.00     0.000 A 
HETATM    8  C5  UNK     1      17.249   9.490  33.827  1.00  0.00     0.093 A 
HETATM    9  C6  UNK     1      18.206   4.894  33.183  1.00  0.00     0.052 A 
HETATM   10  C7  UNK     1      18.615   4.560  31.005  1.00  0.00     0.086 A 
HETATM   11  C8  UNK     1      19.506   7.873  33.591  1.00  0.00     0.097 A 
HETATM   12  C9  UNK     1      15.882   7.829  32.775  1.00  0.00     0.018 A 
HETATM   13  C10 UNK     1      16.150  10.338  33.969  1.00  0.00     0.075 A 
HETATM   14  C11 UNK     1      18.280   2.483  32.169  1.00  0.00     0.014 A 
HETATM   15  C12 UNK     1      14.906   9.922  33.508  1.00  0.00     0.070 A 
HETATM   16  C13 UNK     1      14.771   8.669  32.912  1.00  0.00     0.038 A 
HETATM   17  C14 UNK     1      18.824   3.929  29.779  1.00  0.00     0.038 A 
HETATM   18  C15 UNK     1      19.635   9.199  34.221  1.00  0.00     0.289 A 
HETATM   19  C16 UNK     1      18.485   1.820  30.951  1.00  0.00     0.001 A 
HETATM   20  C17 UNK     1      18.752   2.532  29.779  1.00  0.00     0.003 A 
ENDROOT
BRANCH  15  21
HETATM   21  O3  UNK     1      13.823  10.735  33.637  1.00  0.00    -0.356 OA
HETATM   22  C18 UNK     1      13.607  11.698  32.607  1.00  0.00     0.210 C 
ENDBRANCH  15  21
TORSDOF 1
ENDMDL
MODEL 8
REMARK VINA RESULT:      -8.1     23.405     25.521
REMARK  1 active torsions:
REMARK  status: ('A' for Active; 'I' for Inactive)
REMARK    1  A    between atoms: C12_16  and  O3_3 
ROOT
HETATM    1  O1  UNK     1       8.011   6.766  10.093  1.00  0.00    -0.309 OA
HETATM    2  O2  UNK     1      11.030   6.278   6.006  1.00  0.00    -0.275 OA
HETATM    3  O4  UNK     1       9.154   6.699   4.770  1.00  0.00    -0.260 OA
HETATM    4  C1  UNK     1       9.336   5.897   8.257  1.00  0.00     0.017 A 
HETATM    5  C2  UNK     1      10.797   5.759   8.379  1.00  0.00     0.011 A 
HETATM    6  C3  UNK     1       8.404   5.731   9.303  1.00  0.00     0.088 A 
HETATM    7  C4  UNK     1       6.933   4.903  10.777  1.00  0.00     0.000 A 
HETATM    8  C5  UNK     1      11.596   5.953   7.253  1.00  0.00     0.093 A 
HETATM    9  C6  UNK     1       7.771   4.567   9.681  1.00  0.00     0.052 A 
HETATM   10  C7  UNK     1       7.116   6.265  10.990  1.00  0.00     0.086 A 
HETATM   11  C8  UNK     1       8.829   6.208   7.051  1.00  0.00     0.097 A 
HETATM   12  C9  UNK     1      11.433   5.438   9.586  1.00  0.00     0.018 A 
HETATM   13  C10 UNK     1      12.987   5.838   7.301  1.00  0.00     0.075 A 
HETATM   14  C11 UNK     1       6.040   4.206  11.610  1.00  0.00     0.014 A 
HETATM   15  C12 UNK     1      13.601   5.519   8.507  1.00  0.00     0.070 A 
HETATM   16  C13 UNK     1      12.826   5.318   9.649  1.00  0.00     0.038 A 
HETATM   17  C14 UNK     1       6.467   6.994  11.986  1.00  0.00     0.038 A 
HETATM   18  C15 UNK     1       9.660   6.416   5.851  1.00  0.00     0.289 A 
HETATM   19  C16 UNK     1       5.373   4.913  12.620  1.00  0.00     0.001 A 
HETATM   20  C17 UNK     1       5.584   6.282  12.803  1.00  0.00     0.003 A 
ENDROOT
BRANCH  15  21
HETATM   21  O3  UNK     1      14.955   5.401   8.574  1.00  0.00    -0.356 OA
HETATM   22  C18 UNK     1      15.516   5.073   9.844  1.00  0.00     0.210 C 
ENDBRANCH  15  21
TORSDOF 1
ENDMDL
MODEL 9
REMARK VINA RESULT:      -8.1     16.192     18.305
REMARK  1 active torsions:
REMARK  status: ('A' for Active; 'I' for Inactive)
REMARK    1  A    between atoms: C12_16  and  O3_3 
ROOT
HETATM    1  O1  UNK     1      32.079  -5.688  35.756  1.00  0.00    -0.309 OA
HETATM    2  O2  UNK     1      28.662  -5.462  39.541  1.00  0.00    -0.275 OA
HETATM    3  O4  UNK     1      29.447  -3.347  39.907  1.00  0.00    -0.260 OA
HETATM    4  C1  UNK     1      30.925  -5.902  37.879  1.00  0.00     0.017 A 
HETATM    5  C2  UNK     1      29.927  -6.964  38.091  1.00  0.00     0.011 A 
HETATM    6  C3  UNK     1      32.082  -6.010  37.078  1.00  0.00     0.088 A 
HETATM    7  C4  UNK     1      34.159  -6.370  36.316  1.00  0.00     0.000 A 
HETATM    8  C5  UNK     1      28.829  -6.711  38.914  1.00  0.00     0.093 A 
HETATM    9  C6  UNK     1      33.333  -6.433  37.469  1.00  0.00     0.052 A 
HETATM   10  C7  UNK     1      33.341  -5.906  35.291  1.00  0.00     0.086 A 
HETATM   11  C8  UNK     1      30.734  -4.722  38.494  1.00  0.00     0.097 A 
HETATM   12  C9  UNK     1      30.025  -8.231  37.501  1.00  0.00     0.018 A 
HETATM   13  C10 UNK     1      27.847  -7.673  39.156  1.00  0.00     0.075 A 
HETATM   14  C11 UNK     1      35.505  -6.653  36.026  1.00  0.00     0.014 A 
HETATM   15  C12 UNK     1      27.960  -8.925  38.562  1.00  0.00     0.070 A 
HETATM   16  C13 UNK     1      29.048  -9.205  37.736  1.00  0.00     0.038 A 
HETATM   17  C14 UNK     1      33.772  -5.700  33.981  1.00  0.00     0.038 A 
HETATM   18  C15 UNK     1      29.581  -4.439  39.366  1.00  0.00     0.289 A 
HETATM   19  C16 UNK     1      35.967  -6.456  34.718  1.00  0.00     0.001 A 
HETATM   20  C17 UNK     1      35.114  -5.988  33.715  1.00  0.00     0.003 A 
ENDROOT
BRANCH  15  21
HETATM   21  O3  UNK     1      27.013  -9.876  38.787  1.00  0.00    -0.356 OA
HETATM   22  C18 UNK     1      26.893 -10.371  40.119  1.00  0.00     0.210 C 
ENDBRANCH  15  21
TORSDOF 1
ENDMDL
MODEL 10
REMARK VINA RESULT:      -8.1     15.840     19.213
REMARK  1 active torsions:
REMARK  status: ('A' for Active; 'I' for Inactive)
REMARK    1  A    between atoms: C12_16  and  O3_3 
ROOT
HETATM    1  O1  UNK     1      30.709  -6.370  30.316  1.00  0.00    -0.309 OA
HETATM    2  O2  UNK     1      35.732  -7.275  30.367  1.00  0.00    -0.275 OA
HETATM    3  O4  UNK     1      35.535  -7.590  28.111  1.00  0.00    -0.260 OA
HETATM    4  C1  UNK     1      32.896  -7.396  30.526  1.00  0.00     0.017 A 
HETATM    5  C2  UNK     1      33.713  -7.191  31.735  1.00  0.00     0.011 A 
HETATM    6  C3  UNK     1      31.488  -7.471  30.489  1.00  0.00     0.088 A 
HETATM    7  C4  UNK     1      29.359  -8.171  30.511  1.00  0.00     0.000 A 
HETATM    8  C5  UNK     1      35.101  -7.137  31.618  1.00  0.00     0.093 A 
HETATM    9  C6  UNK     1      30.708  -8.600  30.613  1.00  0.00     0.052 A 
HETATM   10  C7  UNK     1      29.413  -6.793  30.329  1.00  0.00     0.086 A 
HETATM   11  C8  UNK     1      33.532  -7.523  29.348  1.00  0.00     0.097 A 
HETATM   12  C9  UNK     1      33.157  -7.046  33.014  1.00  0.00     0.018 A 
HETATM   13  C10 UNK     1      35.932  -6.945  32.723  1.00  0.00     0.075 A 
HETATM   14  C11 UNK     1      28.099  -8.795  30.552  1.00  0.00     0.014 A 
HETATM   15  C12 UNK     1      35.365  -6.803  33.984  1.00  0.00     0.070 A 
HETATM   16  C13 UNK     1      33.979  -6.854  34.130  1.00  0.00     0.038 A 
HETATM   17  C14 UNK     1      28.290  -5.979  30.183  1.00  0.00     0.038 A 
HETATM   18  C15 UNK     1      34.998  -7.469  29.207  1.00  0.00     0.289 A 
HETATM   19  C16 UNK     1      26.952  -8.002  30.408  1.00  0.00     0.001 A 
HETATM   20  C17 UNK     1      27.048  -6.620  30.227  1.00  0.00     0.003 A 
ENDROOT
BRANCH  15  21
HETATM   21  O3  UNK     1      36.158  -6.616  35.073  1.00  0.00    -0.356 OA
HETATM   22  C18 UNK     1      35.599  -5.889  36.167  1.00  0.00     0.210 C 
ENDBRANCH  15  21
TORSDOF 1
ENDMDL
