MODEL 1
REMARK VINA RESULT:      -7.4      0.000      0.000
REMARK  4 active torsions:
REMARK  status: ('A' for Active; 'I' for Inactive)
REMARK    1  A    between atoms: C4_7  and  O1_1 
REMARK    2  A    between atoms: C6_9  and  O1_1 
REMARK    3  A    between atoms: C5_8  and  C6_9 
REMARK    4  A    between atoms: C5_8  and  C7_10 
ROOT
HETATM    1  O2  UNK     1      19.338  -0.482  32.895  1.00  0.00    -0.274 OA
HETATM    2  O3  UNK     1      20.199  -2.573  33.238  1.00  0.00    -0.260 OA
HETATM    3  C1  UNK     1      18.439   1.700  32.541  1.00  0.00     0.006 A 
HETATM    4  C2  UNK     1      19.410   0.486  30.653  1.00  0.00     0.005 A 
HETATM    5  C3  UNK     1      19.066   0.575  32.003  1.00  0.00     0.099 A 
HETATM    6  C4  UNK     1      18.143   2.775  31.708  1.00  0.00     0.077 A 
HETATM    7  C8  UNK     1      20.068  -0.736  30.173  1.00  0.00    -0.043 A 
HETATM    8  C9  UNK     1      19.104   1.579  29.832  1.00  0.00     0.017 A 
HETATM    9  C10 UNK     1      18.474   2.714  30.356  1.00  0.00     0.038 A 
HETATM   10  C11 UNK     1      18.085   1.755  33.991  1.00  0.00     0.054 C 
HETATM   11  C12 UNK     1      20.314  -1.726  31.044  1.00  0.00     0.090 A 
HETATM   12  C14 UNK     1      20.452  -0.862  28.728  1.00  0.00     0.049 C 
HETATM   13  C15 UNK     1      19.957  -1.648  32.470  1.00  0.00     0.288 A 
ENDROOT
BRANCH   6  14
HETATM   14  O1  UNK     1      17.532   3.890  32.195  1.00  0.00    -0.351 OA
BRANCH  14  15
HETATM   15  C6  UNK     1      18.029   5.150  31.749  1.00  0.00     0.175 C 
BRANCH  15  16
HETATM   16  C5  UNK     1      19.063   5.652  32.746  1.00  0.00     0.026 C 
BRANCH  16  17
HETATM   17  C7  UNK     1      20.326   6.149  32.047  1.00  0.00    -0.002 C 
HETATM   18  C13 UNK     1      20.280   5.874  30.552  1.00  0.00     0.005 C 
ENDBRANCH  16  17
ENDBRANCH  15  16
ENDBRANCH  14  15
ENDBRANCH   6  14
TORSDOF 4
ENDMDL
MODEL 2
REMARK VINA RESULT:      -7.1      1.659      2.672
REMARK  4 active torsions:
REMARK  status: ('A' for Active; 'I' for Inactive)
REMARK    1  A    between atoms: C4_7  and  O1_1 
REMARK    2  A    between atoms: C6_9  and  O1_1 
REMARK    3  A    between atoms: C5_8  and  C6_9 
REMARK    4  A    between atoms: C5_8  and  C7_10 
ROOT
HETATM    1  O2  UNK     1      19.612   0.883  29.467  1.00  0.00    -0.274 OA
HETATM    2  O3  UNK     1      20.575  -0.750  28.190  1.00  0.00    -0.260 OA
HETATM    3  C1  UNK     1      18.605   2.591  30.797  1.00  0.00     0.006 A 
HETATM    4  C2  UNK     1      19.121   0.428  31.817  1.00  0.00     0.005 A 
HETATM    5  C3  UNK     1      19.108   1.290  30.719  1.00  0.00     0.099 A 
HETATM    6  C4  UNK     1      18.097   3.050  32.008  1.00  0.00     0.077 A 
HETATM    7  C8  UNK     1      19.670  -0.923  31.644  1.00  0.00    -0.043 A 
HETATM    8  C9  UNK     1      18.604   0.910  33.027  1.00  0.00     0.017 A 
HETATM    9  C10 UNK     1      18.097   2.212  33.121  1.00  0.00     0.038 A 
HETATM   10  C11 UNK     1      18.612   3.483  29.599  1.00  0.00     0.054 C 
HETATM   11  C12 UNK     1      20.141  -1.283  30.442  1.00  0.00     0.090 A 
HETATM   12  C14 UNK     1      19.695  -1.874  32.805  1.00  0.00     0.049 C 
HETATM   13  C15 UNK     1      20.136  -0.386  29.275  1.00  0.00     0.288 A 
ENDROOT
BRANCH   6  14
HETATM   14  O1  UNK     1      17.598   4.311  32.123  1.00  0.00    -0.351 OA
BRANCH  14  15
HETATM   15  C6  UNK     1      18.070   5.098  33.215  1.00  0.00     0.175 C 
BRANCH  15  16
HETATM   16  C5  UNK     1      18.674   6.385  32.670  1.00  0.00     0.026 C 
BRANCH  16  17
HETATM   17  C7  UNK     1      20.192   6.285  32.542  1.00  0.00    -0.002 C 
HETATM   18  C13 UNK     1      20.609   5.915  31.128  1.00  0.00     0.005 C 
ENDBRANCH  16  17
ENDBRANCH  15  16
ENDBRANCH  14  15
ENDBRANCH   6  14
TORSDOF 4
ENDMDL
MODEL 3
REMARK VINA RESULT:      -6.7      2.992      5.401
REMARK  4 active torsions:
REMARK  status: ('A' for Active; 'I' for Inactive)
REMARK    1  A    between atoms: C4_7  and  O1_1 
REMARK    2  A    between atoms: C6_9  and  O1_1 
REMARK    3  A    between atoms: C5_8  and  C6_9 
REMARK    4  A    between atoms: C5_8  and  C7_10 
ROOT
HETATM    1  O2  UNK     1      20.664  -3.278  35.152  1.00  0.00    -0.274 OA
HETATM    2  O3  UNK     1      21.060  -4.246  37.185  1.00  0.00    -0.260 OA
HETATM    3  C1  UNK     1      20.254  -2.270  33.027  1.00  0.00     0.006 A 
HETATM    4  C2  UNK     1      19.020  -1.479  34.986  1.00  0.00     0.005 A 
HETATM    5  C3  UNK     1      19.959  -2.323  34.392  1.00  0.00     0.099 A 
HETATM    6  C4  UNK     1      19.591  -1.346  32.227  1.00  0.00     0.077 A 
HETATM    7  C8  UNK     1      18.774  -1.604  36.428  1.00  0.00    -0.043 A 
HETATM    8  C9  UNK     1      18.365  -0.555  34.161  1.00  0.00     0.017 A 
HETATM    9  C10 UNK     1      18.649  -0.490  32.791  1.00  0.00     0.038 A 
HETATM   10  C11 UNK     1      21.268  -3.191  32.431  1.00  0.00     0.054 C 
HETATM   11  C12 UNK     1      19.459  -2.521  37.126  1.00  0.00     0.090 A 
HETATM   12  C14 UNK     1      17.769  -0.711  37.096  1.00  0.00     0.049 C 
HETATM   13  C15 UNK     1      20.453  -3.419  36.515  1.00  0.00     0.288 A 
ENDROOT
BRANCH   6  14
HETATM   14  O1  UNK     1      19.851  -1.264  30.892  1.00  0.00    -0.351 OA
BRANCH  14  15
HETATM   15  C6  UNK     1      20.446  -0.056  30.420  1.00  0.00     0.175 C 
BRANCH  15  16
HETATM   16  C5  UNK     1      19.645   0.455  29.232  1.00  0.00     0.026 C 
BRANCH  16  17
HETATM   17  C7  UNK     1      18.854   1.713  29.584  1.00  0.00    -0.002 C 
HETATM   18  C13 UNK     1      17.794   2.017  28.538  1.00  0.00     0.005 C 
ENDBRANCH  16  17
ENDBRANCH  15  16
ENDBRANCH  14  15
ENDBRANCH   6  14
TORSDOF 4
ENDMDL
MODEL 4
REMARK VINA RESULT:      -6.6      3.427      8.195
REMARK  4 active torsions:
REMARK  status: ('A' for Active; 'I' for Inactive)
REMARK    1  A    between atoms: C4_7  and  O1_1 
REMARK    2  A    between atoms: C6_9  and  O1_1 
REMARK    3  A    between atoms: C5_8  and  C6_9 
REMARK    4  A    between atoms: C5_8  and  C7_10 
ROOT
HETATM    1  O2  UNK     1      16.598   9.089  33.290  1.00  0.00    -0.274 OA
HETATM    2  O3  UNK     1      16.199  11.248  33.930  1.00  0.00    -0.260 OA
HETATM    3  C1  UNK     1      17.010   6.835  32.621  1.00  0.00     0.006 A 
HETATM    4  C2  UNK     1      18.843   8.161  33.552  1.00  0.00     0.005 A 
HETATM    5  C3  UNK     1      17.511   8.023  33.159  1.00  0.00     0.099 A 
HETATM    6  C4  UNK     1      17.864   5.747  32.469  1.00  0.00     0.077 A 
HETATM    7  C8  UNK     1      19.283   9.447  34.108  1.00  0.00    -0.043 A 
HETATM    8  C9  UNK     1      19.686   7.053  33.390  1.00  0.00     0.017 A 
HETATM    9  C10 UNK     1      19.199   5.855  32.853  1.00  0.00     0.038 A 
HETATM   10  C11 UNK     1      15.577   6.727  32.215  1.00  0.00     0.054 C 
HETATM   11  C12 UNK     1      18.393  10.444  34.221  1.00  0.00     0.090 A 
HETATM   12  C14 UNK     1      20.709   9.628  34.538  1.00  0.00     0.049 C 
HETATM   13  C15 UNK     1      16.985  10.314  33.812  1.00  0.00     0.288 A 
ENDROOT
BRANCH   6  14
HETATM   14  O1  UNK     1      17.414   4.572  31.949  1.00  0.00    -0.351 OA
BRANCH  14  15
HETATM   15  C6  UNK     1      18.396   3.603  31.590  1.00  0.00     0.175 C 
BRANCH  15  16
HETATM   16  C5  UNK     1      18.592   3.636  30.081  1.00  0.00     0.026 C 
BRANCH  16  17
HETATM   17  C7  UNK     1      18.317   2.275  29.447  1.00  0.00    -0.002 C 
HETATM   18  C13 UNK     1      19.042   1.160  30.183  1.00  0.00     0.005 C 
ENDBRANCH  16  17
ENDBRANCH  15  16
ENDBRANCH  14  15
ENDBRANCH   6  14
TORSDOF 4
ENDMDL
MODEL 5
REMARK VINA RESULT:      -6.6      1.750      3.321
REMARK  4 active torsions:
REMARK  status: ('A' for Active; 'I' for Inactive)
REMARK    1  A    between atoms: C4_7  and  O1_1 
REMARK    2  A    between atoms: C6_9  and  O1_1 
REMARK    3  A    between atoms: C5_8  and  C6_9 
REMARK    4  A    between atoms: C5_8  and  C7_10 
ROOT
HETATM    1  O2  UNK     1      18.698   0.426  31.751  1.00  0.00    -0.274 OA
HETATM    2  O3  UNK     1      18.902  -1.813  32.165  1.00  0.00    -0.260 OA
HETATM    3  C1  UNK     1      18.485   2.764  31.313  1.00  0.00     0.006 A 
HETATM    4  C2  UNK     1      18.272   1.952  33.611  1.00  0.00     0.005 A 
HETATM    5  C3  UNK     1      18.479   1.727  32.249  1.00  0.00     0.099 A 
HETATM    6  C4  UNK     1      18.277   4.069  31.746  1.00  0.00     0.077 A 
HETATM    7  C8  UNK     1      18.282   0.802  34.524  1.00  0.00    -0.043 A 
HETATM    8  C9  UNK     1      18.064   3.274  34.026  1.00  0.00     0.017 A 
HETATM    9  C10 UNK     1      18.068   4.324  33.099  1.00  0.00     0.038 A 
HETATM   10  C11 UNK     1      18.714   2.480  29.864  1.00  0.00     0.054 C 
HETATM   11  C12 UNK     1      18.492  -0.423  34.022  1.00  0.00     0.090 A 
HETATM   12  C14 UNK     1      18.060   1.011  35.993  1.00  0.00     0.049 C 
HETATM   13  C15 UNK     1      18.713  -0.678  32.589  1.00  0.00     0.288 A 
ENDROOT
BRANCH   6  14
HETATM   14  O1  UNK     1      18.276   5.106  30.864  1.00  0.00    -0.351 OA
BRANCH  14  15
HETATM   15  C6  UNK     1      18.999   6.278  31.240  1.00  0.00     0.175 C 
BRANCH  15  16
HETATM   16  C5  UNK     1      20.487   5.961  31.234  1.00  0.00     0.026 C 
BRANCH  16  17
HETATM   17  C7  UNK     1      21.154   6.359  32.548  1.00  0.00    -0.002 C 
HETATM   18  C13 UNK     1      20.231   7.212  33.405  1.00  0.00     0.005 C 
ENDBRANCH  16  17
ENDBRANCH  15  16
ENDBRANCH  14  15
ENDBRANCH   6  14
TORSDOF 4
ENDMDL
MODEL 6
REMARK VINA RESULT:      -6.6     22.926     24.463
REMARK  4 active torsions:
REMARK  status: ('A' for Active; 'I' for Inactive)
REMARK    1  A    between atoms: C4_7  and  O1_1 
REMARK    2  A    between atoms: C6_9  and  O1_1 
REMARK    3  A    between atoms: C5_8  and  C6_9 
REMARK    4  A    between atoms: C5_8  and  C7_10 
ROOT
HETATM    1  O2  UNK     1      14.012   4.933   9.579  1.00  0.00    -0.274 OA
HETATM    2  O3  UNK     1      16.071   3.956   9.754  1.00  0.00    -0.260 OA
HETATM    3  C1  UNK     1      11.860   5.950   9.396  1.00  0.00     0.006 A 
HETATM    4  C2  UNK     1      13.846   7.370   9.545  1.00  0.00     0.005 A 
HETATM    5  C3  UNK     1      13.242   6.112   9.508  1.00  0.00     0.099 A 
HETATM    6  C4  UNK     1      11.049   7.077   9.320  1.00  0.00     0.077 A 
HETATM    7  C8  UNK     1      15.307   7.447   9.663  1.00  0.00    -0.043 A 
HETATM    8  C9  UNK     1      13.010   8.493   9.467  1.00  0.00     0.017 A 
HETATM    9  C10 UNK     1      11.622   8.346   9.354  1.00  0.00     0.038 A 
HETATM   10  C11 UNK     1      11.254   4.585   9.358  1.00  0.00     0.054 C 
HETATM   11  C12 UNK     1      16.014   6.309   9.729  1.00  0.00     0.090 A 
HETATM   12  C14 UNK     1      15.985   8.785   9.708  1.00  0.00     0.049 C 
HETATM   13  C15 UNK     1      15.393   4.975   9.691  1.00  0.00     0.288 A 
ENDROOT
BRANCH   6  14
HETATM   14  O1  UNK     1       9.697   6.960   9.211  1.00  0.00    -0.351 OA
BRANCH  14  15
HETATM   15  C6  UNK     1       9.108   7.366   7.976  1.00  0.00     0.175 C 
BRANCH  15  16
HETATM   16  C5  UNK     1       8.890   6.136   7.107  1.00  0.00     0.026 C 
BRANCH  16  17
HETATM   17  C7  UNK     1       9.568   6.279   5.747  1.00  0.00    -0.002 C 
HETATM   18  C13 UNK     1      11.080   6.350   5.884  1.00  0.00     0.005 C 
ENDBRANCH  16  17
ENDBRANCH  15  16
ENDBRANCH  14  15
ENDBRANCH   6  14
TORSDOF 4
ENDMDL
MODEL 7
REMARK VINA RESULT:      -6.5      4.542      8.709
REMARK  4 active torsions:
REMARK  status: ('A' for Active; 'I' for Inactive)
REMARK    1  A    between atoms: C4_7  and  O1_1 
REMARK    2  A    between atoms: C6_9  and  O1_1 
REMARK    3  A    between atoms: C5_8  and  C6_9 
REMARK    4  A    between atoms: C5_8  and  C7_10 
ROOT
HETATM    1  O2  UNK     1      18.959  -0.236  33.992  1.00  0.00    -0.274 OA
HETATM    2  O3  UNK     1      18.197   1.614  32.886  1.00  0.00    -0.260 OA
HETATM    3  C1  UNK     1      19.758  -2.169  35.143  1.00  0.00     0.006 A 
HETATM    4  C2  UNK     1      18.377  -0.546  36.344  1.00  0.00     0.005 A 
HETATM    5  C3  UNK     1      19.023  -0.982  35.186  1.00  0.00     0.099 A 
HETATM    6  C4  UNK     1      19.854  -2.948  36.290  1.00  0.00     0.077 A 
HETATM    7  C8  UNK     1      17.626   0.715  36.299  1.00  0.00    -0.043 A 
HETATM    8  C9  UNK     1      18.487  -1.346  37.489  1.00  0.00     0.017 A 
HETATM    9  C10 UNK     1      19.220  -2.539  37.461  1.00  0.00     0.038 A 
HETATM   10  C11 UNK     1      20.432  -2.601  33.882  1.00  0.00     0.054 C 
HETATM   11  C12 UNK     1      17.583   1.404  35.149  1.00  0.00     0.090 A 
HETATM   12  C14 UNK     1      16.923   1.211  37.528  1.00  0.00     0.049 C 
HETATM   13  C15 UNK     1      18.258   0.958  33.919  1.00  0.00     0.288 A 
ENDROOT
BRANCH   6  14
HETATM   14  O1  UNK     1      20.561  -4.112  36.288  1.00  0.00    -0.351 OA
BRANCH  14  15
HETATM   15  C6  UNK     1      20.894  -4.672  37.557  1.00  0.00     0.175 C 
BRANCH  15  16
HETATM   16  C5  UNK     1      20.243  -6.042  37.677  1.00  0.00     0.026 C 
BRANCH  16  17
HETATM   17  C7  UNK     1      20.200  -6.522  39.125  1.00  0.00    -0.002 C 
HETATM   18  C13 UNK     1      21.386  -7.416  39.451  1.00  0.00     0.005 C 
ENDBRANCH  16  17
ENDBRANCH  15  16
ENDBRANCH  14  15
ENDBRANCH   6  14
TORSDOF 4
ENDMDL
MODEL 8
REMARK VINA RESULT:      -6.5      2.681      6.136
REMARK  4 active torsions:
REMARK  status: ('A' for Active; 'I' for Inactive)
REMARK    1  A    between atoms: C4_7  and  O1_1 
REMARK    2  A    between atoms: C6_9  and  O1_1 
REMARK    3  A    between atoms: C5_8  and  C6_9 
REMARK    4  A    between atoms: C5_8  and  C7_10 
ROOT
HETATM    1  O2  UNK     1      18.472   1.433  31.628  1.00  0.00    -0.274 OA
HETATM    2  O3  UNK     1      18.178   2.970  29.962  1.00  0.00    -0.260 OA
HETATM    3  C1  UNK     1      18.775  -0.170  33.371  1.00  0.00     0.006 A 
HETATM    4  C2  UNK     1      19.783  -0.580  31.180  1.00  0.00     0.005 A 
HETATM    5  C3  UNK     1      19.025   0.206  32.050  1.00  0.00     0.099 A 
HETATM    6  C4  UNK     1      19.297  -1.370  33.844  1.00  0.00     0.077 A 
HETATM    7  C8  UNK     1      19.995  -0.105  29.807  1.00  0.00    -0.043 A 
HETATM    8  C9  UNK     1      20.299  -1.784  31.677  1.00  0.00     0.017 A 
HETATM    9  C10 UNK     1      20.058  -2.175  33.000  1.00  0.00     0.038 A 
HETATM   10  C11 UNK     1      17.960   0.701  34.270  1.00  0.00     0.054 C 
HETATM   11  C12 UNK     1      19.457   1.065  29.434  1.00  0.00     0.090 A 
HETATM   12  C14 UNK     1      20.804  -0.929  28.848  1.00  0.00     0.049 C 
HETATM   13  C15 UNK     1      18.656   1.905  30.338  1.00  0.00     0.288 A 
ENDROOT
BRANCH   6  14
HETATM   14  O1  UNK     1      19.076  -1.771  35.126  1.00  0.00    -0.351 OA
BRANCH  14  15
HETATM   15  C6  UNK     1      20.224  -2.038  35.930  1.00  0.00     0.175 C 
BRANCH  15  16
HETATM   16  C5  UNK     1      19.825  -2.969  37.066  1.00  0.00     0.026 C 
BRANCH  16  17
HETATM   17  C7  UNK     1      20.133  -4.427  36.734  1.00  0.00    -0.002 C 
HETATM   18  C13 UNK     1      21.108  -5.032  37.732  1.00  0.00     0.005 C 
ENDBRANCH  16  17
ENDBRANCH  15  16
ENDBRANCH  14  15
ENDBRANCH   6  14
TORSDOF 4
ENDMDL
MODEL 9
REMARK VINA RESULT:      -6.4      2.428      5.461
REMARK  4 active torsions:
REMARK  status: ('A' for Active; 'I' for Inactive)
REMARK    1  A    between atoms: C4_7  and  O1_1 
REMARK    2  A    between atoms: C6_9  and  O1_1 
REMARK    3  A    between atoms: C5_8  and  C6_9 
REMARK    4  A    between atoms: C5_8  and  C7_10 
ROOT
HETATM    1  O2  UNK     1      18.710   0.701  30.621  1.00  0.00    -0.274 OA
HETATM    2  O3  UNK     1      18.780   1.284  28.412  1.00  0.00    -0.260 OA
HETATM    3  C1  UNK     1      18.637   0.087  32.927  1.00  0.00     0.006 A 
HETATM    4  C2  UNK     1      18.397   2.441  32.307  1.00  0.00     0.005 A 
HETATM    5  C3  UNK     1      18.578   1.100  31.967  1.00  0.00     0.099 A 
HETATM    6  C4  UNK     1      18.511   0.421  34.271  1.00  0.00     0.077 A 
HETATM    7  C8  UNK     1      18.347   3.439  31.231  1.00  0.00    -0.043 A 
HETATM    8  C9  UNK     1      18.273   2.755  33.666  1.00  0.00     0.017 A 
HETATM    9  C10 UNK     1      18.329   1.751  34.641  1.00  0.00     0.038 A 
HETATM   10  C11 UNK     1      18.830  -1.337  32.521  1.00  0.00     0.054 C 
HETATM   11  C12 UNK     1      18.475   3.031  29.960  1.00  0.00     0.090 A 
HETATM   12  C14 UNK     1      18.156   4.890  31.564  1.00  0.00     0.049 C 
HETATM   13  C15 UNK     1      18.666   1.620  29.585  1.00  0.00     0.288 A 
ENDROOT
BRANCH   6  14
HETATM   14  O1  UNK     1      18.563  -0.538  35.237  1.00  0.00    -0.351 OA
BRANCH  14  15
HETATM   15  C6  UNK     1      17.382  -0.746  36.009  1.00  0.00     0.175 C 
BRANCH  15  16
HETATM   16  C5  UNK     1      17.744  -0.700  37.487  1.00  0.00     0.026 C 
BRANCH  16  17
HETATM   17  C7  UNK     1      17.631   0.714  38.052  1.00  0.00    -0.002 C 
HETATM   18  C13 UNK     1      16.450   1.460  37.452  1.00  0.00     0.005 C 
ENDBRANCH  16  17
ENDBRANCH  15  16
ENDBRANCH  14  15
ENDBRANCH   6  14
TORSDOF 4
ENDMDL
MODEL 10
REMARK VINA RESULT:      -6.4      2.596      5.158
REMARK  4 active torsions:
REMARK  status: ('A' for Active; 'I' for Inactive)
REMARK    1  A    between atoms: C4_7  and  O1_1 
REMARK    2  A    between atoms: C6_9  and  O1_1 
REMARK    3  A    between atoms: C5_8  and  C6_9 
REMARK    4  A    between atoms: C5_8  and  C7_10 
ROOT
HETATM    1  O2  UNK     1      18.621   1.582  31.239  1.00  0.00    -0.274 OA
HETATM    2  O3  UNK     1      18.576   2.644  29.215  1.00  0.00    -0.260 OA
HETATM    3  C1  UNK     1      18.666   0.477  33.355  1.00  0.00     0.006 A 
HETATM    4  C2  UNK     1      19.580  -0.660  31.391  1.00  0.00     0.005 A 
HETATM    5  C3  UNK     1      18.967   0.441  31.991  1.00  0.00     0.099 A 
HETATM    6  C4  UNK     1      18.985  -0.619  34.148  1.00  0.00     0.077 A 
HETATM    7  C8  UNK     1      19.860  -0.611  29.951  1.00  0.00    -0.043 A 
HETATM    8  C9  UNK     1      19.893  -1.753  32.209  1.00  0.00     0.017 A 
HETATM    9  C10 UNK     1      19.598  -1.733  33.578  1.00  0.00     0.038 A 
HETATM   10  C11 UNK     1      18.011   1.676  33.959  1.00  0.00     0.054 C 
HETATM   11  C12 UNK     1      19.520   0.487  29.260  1.00  0.00     0.090 A 
HETATM   12  C14 UNK     1      20.517  -1.779  29.276  1.00  0.00     0.049 C 
HETATM   13  C15 UNK     1      18.873   1.657  29.878  1.00  0.00     0.288 A 
ENDROOT
BRANCH   6  14
HETATM   14  O1  UNK     1      18.708  -0.622  35.482  1.00  0.00    -0.351 OA
BRANCH  14  15
HETATM   15  C6  UNK     1      17.740  -1.564  35.941  1.00  0.00     0.175 C 
BRANCH  15  16
HETATM   16  C5  UNK     1      17.204  -1.102  37.289  1.00  0.00     0.026 C 
BRANCH  16  17
HETATM   17  C7  UNK     1      16.761   0.358  37.248  1.00  0.00    -0.002 C 
HETATM   18  C13 UNK     1      17.590   1.218  38.188  1.00  0.00     0.005 C 
ENDBRANCH  16  17
ENDBRANCH  15  16
ENDBRANCH  14  15
ENDBRANCH   6  14
TORSDOF 4
ENDMDL
