MODEL 1
REMARK VINA RESULT:      -6.9      0.000      0.000
REMARK  7 active torsions:
REMARK  status: ('A' for Active; 'I' for Inactive)
REMARK    1  A    between atoms: C14_17  and  O2_2 
REMARK    2  A    between atoms: C16_19  and  O2_2 
REMARK    3  A    between atoms: C1_4  and  C2_5 
REMARK    4  A    between atoms: C2_5  and  C3_6 
REMARK    5  A    between atoms: C10_13  and  C11_14 
REMARK    6  A    between atoms: C10_13  and  C14_17 
REMARK    7  A    between atoms: C11_14  and  C17_20 
ROOT
HETATM    1  O1  UNK     1      18.110   2.975  33.605  1.00  0.00    -0.274 OA
HETATM    2  O3  UNK     1      18.155   0.712  33.438  1.00  0.00    -0.259 OA
HETATM    3  C3  UNK     1      18.503   1.926  31.417  1.00  0.00     0.025 A 
HETATM    4  C4  UNK     1      18.565   3.133  30.815  1.00  0.00    -0.037 A 
HETATM    5  C5  UNK     1      18.433   4.358  31.629  1.00  0.00     0.005 A 
HETATM    6  C8  UNK     1      18.207   4.236  32.997  1.00  0.00     0.092 A 
HETATM    7  C9  UNK     1      18.249   1.802  32.882  1.00  0.00     0.295 A 
HETATM    8  C12 UNK     1      18.750   3.318  29.329  1.00  0.00     0.050 C 
HETATM    9  C13 UNK     1      18.530   5.659  31.110  1.00  0.00     0.017 A 
HETATM   10  C15 UNK     1      18.071   5.344  33.839  1.00  0.00     0.075 A 
HETATM   11  C16 UNK     1      18.164   6.622  33.302  1.00  0.00     0.071 A 
HETATM   12  C18 UNK     1      18.395   6.781  31.939  1.00  0.00     0.038 A 
ENDROOT
BRANCH  11  13
HETATM   13  O2  UNK     1      18.033   7.713  34.105  1.00  0.00    -0.351 OA
BRANCH  13  14
HETATM   14  C14 UNK     1      16.926   7.730  35.004  1.00  0.00     0.175 C 
BRANCH  14  15
HETATM   15  C10 UNK     1      16.138   9.014  34.792  1.00  0.00     0.027 C 
BRANCH  15  16
HETATM   16  C11 UNK     1      15.319   8.968  33.504  1.00  0.00     0.002 C 
BRANCH  16  17
HETATM   17  C17 UNK     1      14.486   7.690  33.420  1.00  0.00    -0.004 C 
HETATM   18  C19 UNK     1      14.588   7.050  32.045  1.00  0.00     0.005 C 
ENDBRANCH  16  17
ENDBRANCH  15  16
ENDBRANCH  14  15
ENDBRANCH  13  14
ENDBRANCH  11  13
BRANCH   3  19
HETATM   19  C2  UNK     1      18.686   0.603  30.718  1.00  0.00     0.049 C 
BRANCH  19  20
HETATM   20  C1  UNK     1      20.159   0.207  30.579  1.00  0.00    -0.018 C 
HETATM   21  C6  UNK     1      20.549  -0.078  29.125  1.00  0.00     0.010 C 
HETATM   22  C7  UNK     1      20.438  -1.028  31.440  1.00  0.00     0.010 C 
ENDBRANCH  19  20
ENDBRANCH   3  19
TORSDOF 7
ENDMDL
MODEL 2
REMARK VINA RESULT:      -6.9      1.630      2.277
REMARK  7 active torsions:
REMARK  status: ('A' for Active; 'I' for Inactive)
REMARK    1  A    between atoms: C14_17  and  O2_2 
REMARK    2  A    between atoms: C16_19  and  O2_2 
REMARK    3  A    between atoms: C1_4  and  C2_5 
REMARK    4  A    between atoms: C2_5  and  C3_6 
REMARK    5  A    between atoms: C10_13  and  C11_14 
REMARK    6  A    between atoms: C10_13  and  C14_17 
REMARK    7  A    between atoms: C11_14  and  C17_20 
ROOT
HETATM    1  O1  UNK     1      18.514   4.875  30.050  1.00  0.00    -0.274 OA
HETATM    2  O3  UNK     1      18.710   3.124  28.619  1.00  0.00    -0.259 OA
HETATM    3  C3  UNK     1      18.405   2.578  30.918  1.00  0.00     0.025 A 
HETATM    4  C4  UNK     1      18.271   3.030  32.184  1.00  0.00    -0.037 A 
HETATM    5  C5  UNK     1      18.213   4.485  32.433  1.00  0.00     0.005 A 
HETATM    6  C8  UNK     1      18.339   5.358  31.356  1.00  0.00     0.092 A 
HETATM    7  C9  UNK     1      18.552   3.519  29.771  1.00  0.00     0.295 A 
HETATM    8  C12 UNK     1      18.188   2.128  33.391  1.00  0.00     0.050 C 
HETATM    9  C13 UNK     1      18.028   5.057  33.701  1.00  0.00     0.017 A 
HETATM   10  C15 UNK     1      18.295   6.747  31.504  1.00  0.00     0.075 A 
HETATM   11  C16 UNK     1      18.117   7.291  32.770  1.00  0.00     0.071 A 
HETATM   12  C18 UNK     1      17.982   6.447  33.869  1.00  0.00     0.038 A 
ENDROOT
BRANCH  11  13
HETATM   13  O2  UNK     1      18.072   8.641  32.935  1.00  0.00    -0.351 OA
BRANCH  13  14
HETATM   14  C14 UNK     1      17.173   9.146  33.922  1.00  0.00     0.175 C 
BRANCH  14  15
HETATM   15  C10 UNK     1      15.838   9.452  33.261  1.00  0.00     0.027 C 
BRANCH  15  16
HETATM   16  C11 UNK     1      14.666   8.906  34.074  1.00  0.00     0.002 C 
BRANCH  16  17
HETATM   17  C17 UNK     1      14.386   7.442  33.735  1.00  0.00    -0.004 C 
HETATM   18  C19 UNK     1      14.369   7.214  32.232  1.00  0.00     0.005 C 
ENDBRANCH  16  17
ENDBRANCH  15  16
ENDBRANCH  14  15
ENDBRANCH  13  14
ENDBRANCH  11  13
BRANCH   3  19
HETATM   19  C2  UNK     1      18.413   1.125  30.518  1.00  0.00     0.049 C 
BRANCH  19  20
HETATM   20  C1  UNK     1      19.798   0.483  30.652  1.00  0.00    -0.018 C 
HETATM   21  C6  UNK     1      20.376   0.058  29.299  1.00  0.00     0.010 C 
HETATM   22  C7  UNK     1      19.708  -0.732  31.580  1.00  0.00     0.010 C 
ENDBRANCH  19  20
ENDBRANCH   3  19
TORSDOF 7
ENDMDL
MODEL 3
REMARK VINA RESULT:      -6.7      1.859      7.977
REMARK  7 active torsions:
REMARK  status: ('A' for Active; 'I' for Inactive)
REMARK    1  A    between atoms: C14_17  and  O2_2 
REMARK    2  A    between atoms: C16_19  and  O2_2 
REMARK    3  A    between atoms: C1_4  and  C2_5 
REMARK    4  A    between atoms: C2_5  and  C3_6 
REMARK    5  A    between atoms: C10_13  and  C11_14 
REMARK    6  A    between atoms: C10_13  and  C14_17 
REMARK    7  A    between atoms: C11_14  and  C17_20 
ROOT
HETATM    1  O1  UNK     1      15.981   6.375  32.777  1.00  0.00    -0.274 OA
HETATM    2  O3  UNK     1      14.383   7.575  33.852  1.00  0.00    -0.259 OA
HETATM    3  C3  UNK     1      16.612   8.399  34.022  1.00  0.00     0.025 A 
HETATM    4  C4  UNK     1      17.916   8.215  33.720  1.00  0.00    -0.037 A 
HETATM    5  C5  UNK     1      18.310   7.075  32.867  1.00  0.00     0.005 A 
HETATM    6  C8  UNK     1      17.328   6.193  32.427  1.00  0.00     0.092 A 
HETATM    7  C9  UNK     1      15.567   7.442  33.557  1.00  0.00     0.295 A 
HETATM    8  C12 UNK     1      19.024   9.109  34.219  1.00  0.00     0.050 C 
HETATM    9  C13 UNK     1      19.628   6.822  32.455  1.00  0.00     0.017 A 
HETATM   10  C15 UNK     1      17.615   5.090  31.617  1.00  0.00     0.075 A 
HETATM   11  C16 UNK     1      18.928   4.856  31.227  1.00  0.00     0.071 A 
HETATM   12  C18 UNK     1      19.935   5.722  31.645  1.00  0.00     0.038 A 
ENDROOT
BRANCH  11  13
HETATM   13  O2  UNK     1      19.228   3.788  30.440  1.00  0.00    -0.351 OA
BRANCH  13  14
HETATM   14  C14 UNK     1      18.292   2.711  30.419  1.00  0.00     0.175 C 
BRANCH  14  15
HETATM   15  C10 UNK     1      18.984   1.467  29.883  1.00  0.00     0.027 C 
BRANCH  15  16
HETATM   16  C11 UNK     1      19.483   0.567  31.011  1.00  0.00     0.002 C 
BRANCH  16  17
HETATM   17  C17 UNK     1      20.640  -0.318  30.547  1.00  0.00    -0.004 C 
HETATM   18  C19 UNK     1      20.570  -0.588  29.053  1.00  0.00     0.005 C 
ENDBRANCH  16  17
ENDBRANCH  15  16
ENDBRANCH  14  15
ENDBRANCH  13  14
ENDBRANCH  11  13
BRANCH   3  19
HETATM   19  C2  UNK     1      16.067   9.551  34.826  1.00  0.00     0.049 C 
BRANCH  19  20
HETATM   20  C1  UNK     1      15.741  10.773  33.961  1.00  0.00    -0.018 C 
HETATM   21  C6  UNK     1      16.609  11.985  34.315  1.00  0.00     0.010 C 
HETATM   22  C7  UNK     1      14.262  11.132  34.123  1.00  0.00     0.010 C 
ENDBRANCH  19  20
ENDBRANCH   3  19
TORSDOF 7
ENDMDL
MODEL 4
REMARK VINA RESULT:      -6.5      1.179      1.888
REMARK  7 active torsions:
REMARK  status: ('A' for Active; 'I' for Inactive)
REMARK    1  A    between atoms: C14_17  and  O2_2 
REMARK    2  A    between atoms: C16_19  and  O2_2 
REMARK    3  A    between atoms: C1_4  and  C2_5 
REMARK    4  A    between atoms: C2_5  and  C3_6 
REMARK    5  A    between atoms: C10_13  and  C11_14 
REMARK    6  A    between atoms: C10_13  and  C14_17 
REMARK    7  A    between atoms: C11_14  and  C17_20 
ROOT
HETATM    1  O1  UNK     1      18.091   2.215  33.157  1.00  0.00    -0.274 OA
HETATM    2  O3  UNK     1      18.044   0.075  33.914  1.00  0.00    -0.259 OA
HETATM    3  C3  UNK     1      18.767   0.382  31.665  1.00  0.00     0.025 A 
HETATM    4  C4  UNK     1      18.985   1.247  30.651  1.00  0.00    -0.037 A 
HETATM    5  C5  UNK     1      18.791   2.694  30.877  1.00  0.00     0.005 A 
HETATM    6  C8  UNK     1      18.348   3.127  32.122  1.00  0.00     0.092 A 
HETATM    7  C9  UNK     1      18.281   0.852  32.994  1.00  0.00     0.295 A 
HETATM    8  C12 UNK     1      19.410   0.823  29.266  1.00  0.00     0.050 C 
HETATM    9  C13 UNK     1      19.035   3.679  29.906  1.00  0.00     0.017 A 
HETATM   10  C15 UNK     1      18.139   4.477  32.419  1.00  0.00     0.075 A 
HETATM   11  C16 UNK     1      18.381   5.434  31.442  1.00  0.00     0.071 A 
HETATM   12  C18 UNK     1      18.831   5.036  30.186  1.00  0.00     0.038 A 
ENDROOT
BRANCH  11  13
HETATM   13  O2  UNK     1      18.183   6.753  31.710  1.00  0.00    -0.351 OA
BRANCH  13  14
HETATM   14  C14 UNK     1      18.458   7.194  33.040  1.00  0.00     0.175 C 
BRANCH  14  15
HETATM   15  C10 UNK     1      17.291   8.038  33.529  1.00  0.00     0.027 C 
BRANCH  15  16
HETATM   16  C11 UNK     1      16.223   7.185  34.211  1.00  0.00     0.002 C 
BRANCH  16  17
HETATM   17  C17 UNK     1      14.835   7.464  33.634  1.00  0.00    -0.004 C 
HETATM   18  C19 UNK     1      14.753   7.072  32.168  1.00  0.00     0.005 C 
ENDBRANCH  16  17
ENDBRANCH  15  16
ENDBRANCH  14  15
ENDBRANCH  13  14
ENDBRANCH  11  13
BRANCH   3  19
HETATM   19  C2  UNK     1      18.988  -1.107  31.590  1.00  0.00     0.049 C 
BRANCH  19  20
HETATM   20  C1  UNK     1      20.459  -1.476  31.372  1.00  0.00    -0.018 C 
HETATM   21  C6  UNK     1      20.671  -2.281  30.086  1.00  0.00     0.010 C 
HETATM   22  C7  UNK     1      20.966  -2.279  32.573  1.00  0.00     0.010 C 
ENDBRANCH  19  20
ENDBRANCH   3  19
TORSDOF 7
ENDMDL
MODEL 5
REMARK VINA RESULT:      -6.5      2.594      4.802
REMARK  7 active torsions:
REMARK  status: ('A' for Active; 'I' for Inactive)
REMARK    1  A    between atoms: C14_17  and  O2_2 
REMARK    2  A    between atoms: C16_19  and  O2_2 
REMARK    3  A    between atoms: C1_4  and  C2_5 
REMARK    4  A    between atoms: C2_5  and  C3_6 
REMARK    5  A    between atoms: C10_13  and  C11_14 
REMARK    6  A    between atoms: C10_13  and  C14_17 
REMARK    7  A    between atoms: C11_14  and  C17_20 
ROOT
HETATM    1  O1  UNK     1      17.610   1.970  33.624  1.00  0.00    -0.274 OA
HETATM    2  O3  UNK     1      17.033   0.982  35.585  1.00  0.00    -0.259 OA
HETATM    3  C3  UNK     1      18.213  -0.379  34.025  1.00  0.00     0.025 A 
HETATM    4  C4  UNK     1      18.772  -0.477  32.800  1.00  0.00    -0.037 A 
HETATM    5  C5  UNK     1      18.804   0.709  31.920  1.00  0.00     0.005 A 
HETATM    6  C8  UNK     1      18.219   1.892  32.363  1.00  0.00     0.092 A 
HETATM    7  C9  UNK     1      17.576   0.887  34.488  1.00  0.00     0.295 A 
HETATM    8  C12 UNK     1      19.367  -1.750  32.251  1.00  0.00     0.050 C 
HETATM    9  C13 UNK     1      19.402   0.728  30.650  1.00  0.00     0.017 A 
HETATM   10  C15 UNK     1      18.206   3.059  31.593  1.00  0.00     0.075 A 
HETATM   11  C16 UNK     1      18.798   3.052  30.337  1.00  0.00     0.071 A 
HETATM   12  C18 UNK     1      19.398   1.888  29.865  1.00  0.00     0.038 A 
ENDROOT
BRANCH  11  13
HETATM   13  O2  UNK     1      18.796   4.178  29.573  1.00  0.00    -0.351 OA
BRANCH  13  14
HETATM   14  C14 UNK     1      19.500   5.310  30.081  1.00  0.00     0.175 C 
BRANCH  14  15
HETATM   15  C10 UNK     1      18.503   6.426  30.358  1.00  0.00     0.027 C 
BRANCH  15  16
HETATM   16  C11 UNK     1      18.441   6.774  31.843  1.00  0.00     0.002 C 
BRANCH  16  17
HETATM   17  C17 UNK     1      19.783   6.519  32.531  1.00  0.00    -0.004 C 
HETATM   18  C19 UNK     1      19.594   5.892  33.903  1.00  0.00     0.005 C 
ENDBRANCH  16  17
ENDBRANCH  15  16
ENDBRANCH  14  15
ENDBRANCH  13  14
ENDBRANCH  11  13
BRANCH   3  19
HETATM   19  C2  UNK     1      18.170  -1.489  35.044  1.00  0.00     0.049 C 
BRANCH  19  20
HETATM   20  C1  UNK     1      19.273  -1.365  36.099  1.00  0.00    -0.018 C 
HETATM   21  C6  UNK     1      20.466  -2.280  35.803  1.00  0.00     0.010 C 
HETATM   22  C7  UNK     1      18.699  -1.698  37.479  1.00  0.00     0.010 C 
ENDBRANCH  19  20
ENDBRANCH   3  19
TORSDOF 7
ENDMDL
MODEL 6
REMARK VINA RESULT:      -6.4     14.055     16.799
REMARK  7 active torsions:
REMARK  status: ('A' for Active; 'I' for Inactive)
REMARK    1  A    between atoms: C14_17  and  O2_2 
REMARK    2  A    between atoms: C16_19  and  O2_2 
REMARK    3  A    between atoms: C1_4  and  C2_5 
REMARK    4  A    between atoms: C2_5  and  C3_6 
REMARK    5  A    between atoms: C10_13  and  C11_14 
REMARK    6  A    between atoms: C10_13  and  C14_17 
REMARK    7  A    between atoms: C11_14  and  C17_20 
ROOT
HETATM    1  O1  UNK     1      28.342  -5.231  39.191  1.00  0.00    -0.274 OA
HETATM    2  O3  UNK     1      29.960  -3.643  39.310  1.00  0.00    -0.259 OA
HETATM    3  C3  UNK     1      30.644  -5.789  38.533  1.00  0.00     0.025 A 
HETATM    4  C4  UNK     1      30.292  -7.067  38.271  1.00  0.00    -0.037 A 
HETATM    5  C5  UNK     1      28.882  -7.479  38.432  1.00  0.00     0.005 A 
HETATM    6  C8  UNK     1      27.956  -6.546  38.888  1.00  0.00     0.092 A 
HETATM    7  C9  UNK     1      29.649  -4.798  39.034  1.00  0.00     0.295 A 
HETATM    8  C12 UNK     1      31.267  -8.130  37.829  1.00  0.00     0.050 C 
HETATM    9  C13 UNK     1      28.403  -8.766  38.141  1.00  0.00     0.017 A 
HETATM   10  C15 UNK     1      26.604  -6.853  39.067  1.00  0.00     0.075 A 
HETATM   11  C16 UNK     1      26.154  -8.135  38.780  1.00  0.00     0.071 A 
HETATM   12  C18 UNK     1      27.052  -9.092  38.315  1.00  0.00     0.038 A 
ENDROOT
BRANCH  11  13
HETATM   13  O2  UNK     1      24.842  -8.454  38.947  1.00  0.00    -0.351 OA
BRANCH  13  14
HETATM   14  C14 UNK     1      23.914  -7.372  39.023  1.00  0.00     0.175 C 
BRANCH  14  15
HETATM   15  C10 UNK     1      22.713  -7.810  39.848  1.00  0.00     0.027 C 
BRANCH  15  16
HETATM   16  C11 UNK     1      21.687  -8.558  38.999  1.00  0.00     0.002 C 
BRANCH  16  17
HETATM   17  C17 UNK     1      20.259  -8.192  39.401  1.00  0.00    -0.004 C 
HETATM   18  C19 UNK     1      20.019  -6.694  39.301  1.00  0.00     0.005 C 
ENDBRANCH  16  17
ENDBRANCH  15  16
ENDBRANCH  14  15
ENDBRANCH  13  14
ENDBRANCH  11  13
BRANCH   3  19
HETATM   19  C2  UNK     1      32.028  -5.222  38.351  1.00  0.00     0.049 C 
BRANCH  19  20
HETATM   20  C1  UNK     1      32.381  -4.986  36.879  1.00  0.00    -0.018 C 
HETATM   21  C6  UNK     1      33.822  -5.391  36.554  1.00  0.00     0.010 C 
HETATM   22  C7  UNK     1      32.170  -3.509  36.535  1.00  0.00     0.010 C 
ENDBRANCH  19  20
ENDBRANCH   3  19
TORSDOF 7
ENDMDL
MODEL 7
REMARK VINA RESULT:      -6.3     16.227     17.918
REMARK  7 active torsions:
REMARK  status: ('A' for Active; 'I' for Inactive)
REMARK    1  A    between atoms: C14_17  and  O2_2 
REMARK    2  A    between atoms: C16_19  and  O2_2 
REMARK    3  A    between atoms: C1_4  and  C2_5 
REMARK    4  A    between atoms: C2_5  and  C3_6 
REMARK    5  A    between atoms: C10_13  and  C11_14 
REMARK    6  A    between atoms: C10_13  and  C14_17 
REMARK    7  A    between atoms: C11_14  and  C17_20 
ROOT
HETATM    1  O1  UNK     1      29.778  -5.392  38.394  1.00  0.00    -0.274 OA
HETATM    2  O3  UNK     1      28.115  -6.151  39.740  1.00  0.00    -0.259 OA
HETATM    3  C3  UNK     1      28.081  -6.921  37.486  1.00  0.00     0.025 A 
HETATM    4  C4  UNK     1      28.647  -6.871  36.260  1.00  0.00    -0.037 A 
HETATM    5  C5  UNK     1      29.875  -6.074  36.060  1.00  0.00     0.005 A 
HETATM    6  C8  UNK     1      30.396  -5.360  37.135  1.00  0.00     0.092 A 
HETATM    7  C9  UNK     1      28.638  -6.144  38.630  1.00  0.00     0.295 A 
HETATM    8  C12 UNK     1      28.089  -7.579  35.051  1.00  0.00     0.050 C 
HETATM    9  C13 UNK     1      30.568  -5.993  34.842  1.00  0.00     0.017 A 
HETATM   10  C15 UNK     1      31.553  -4.582  37.031  1.00  0.00     0.075 A 
HETATM   11  C16 UNK     1      32.219  -4.511  35.813  1.00  0.00     0.071 A 
HETATM   12  C18 UNK     1      31.728  -5.218  34.719  1.00  0.00     0.038 A 
ENDROOT
BRANCH  11  13
HETATM   13  O2  UNK     1      33.346  -3.760  35.692  1.00  0.00    -0.351 OA
BRANCH  13  14
HETATM   14  C14 UNK     1      34.484  -4.385  35.099  1.00  0.00     0.175 C 
BRANCH  14  15
HETATM   15  C10 UNK     1      35.181  -5.237  36.150  1.00  0.00     0.027 C 
BRANCH  15  16
HETATM   16  C11 UNK     1      34.901  -6.724  35.949  1.00  0.00     0.002 C 
BRANCH  16  17
HETATM   17  C17 UNK     1      34.119  -7.308  37.125  1.00  0.00    -0.004 C 
HETATM   18  C19 UNK     1      32.995  -8.214  36.650  1.00  0.00     0.005 C 
ENDBRANCH  16  17
ENDBRANCH  15  16
ENDBRANCH  14  15
ENDBRANCH  13  14
ENDBRANCH  11  13
BRANCH   3  19
HETATM   19  C2  UNK     1      26.869  -7.743  37.842  1.00  0.00     0.049 C 
BRANCH  19  20
HETATM   20  C1  UNK     1      27.205  -9.219  38.077  1.00  0.00    -0.018 C 
HETATM   21  C6  UNK     1      26.407 -10.150  37.159  1.00  0.00     0.010 C 
HETATM   22  C7  UNK     1      26.929  -9.577  39.540  1.00  0.00     0.010 C 
ENDBRANCH  19  20
ENDBRANCH   3  19
TORSDOF 7
ENDMDL
MODEL 8
REMARK VINA RESULT:      -6.3      3.810      8.218
REMARK  7 active torsions:
REMARK  status: ('A' for Active; 'I' for Inactive)
REMARK    1  A    between atoms: C14_17  and  O2_2 
REMARK    2  A    between atoms: C16_19  and  O2_2 
REMARK    3  A    between atoms: C1_4  and  C2_5 
REMARK    4  A    between atoms: C2_5  and  C3_6 
REMARK    5  A    between atoms: C10_13  and  C11_14 
REMARK    6  A    between atoms: C10_13  and  C14_17 
REMARK    7  A    between atoms: C11_14  and  C17_20 
ROOT
HETATM    1  O1  UNK     1      18.318   1.096  32.106  1.00  0.00    -0.274 OA
HETATM    2  O3  UNK     1      18.214   2.340  30.209  1.00  0.00    -0.259 OA
HETATM    3  C3  UNK     1      18.267   3.549  32.262  1.00  0.00     0.025 A 
HETATM    4  C4  UNK     1      18.286   3.494  33.611  1.00  0.00    -0.037 A 
HETATM    5  C5  UNK     1      18.364   2.181  34.283  1.00  0.00     0.005 A 
HETATM    6  C8  UNK     1      18.375   1.027  33.506  1.00  0.00     0.092 A 
HETATM    7  C9  UNK     1      18.266   2.307  31.435  1.00  0.00     0.295 A 
HETATM    8  C12 UNK     1      18.218   4.712  34.499  1.00  0.00     0.050 C 
HETATM    9  C13 UNK     1      18.437   2.016  35.675  1.00  0.00     0.017 A 
HETATM   10  C15 UNK     1      18.447  -0.254  34.062  1.00  0.00     0.075 A 
HETATM   11  C16 UNK     1      18.512  -0.394  35.443  1.00  0.00     0.071 A 
HETATM   12  C18 UNK     1      18.509   0.740  36.250  1.00  0.00     0.038 A 
ENDROOT
BRANCH  11  13
HETATM   13  O2  UNK     1      18.582  -1.632  36.003  1.00  0.00    -0.351 OA
BRANCH  13  14
HETATM   14  C14 UNK     1      19.767  -2.389  35.759  1.00  0.00     0.175 C 
BRANCH  14  15
HETATM   15  C10 UNK     1      20.200  -3.058  37.055  1.00  0.00     0.027 C 
BRANCH  15  16
HETATM   16  C11 UNK     1      20.200  -4.580  36.934  1.00  0.00     0.002 C 
BRANCH  16  17
HETATM   17  C17 UNK     1      21.126  -5.221  37.968  1.00  0.00    -0.004 C 
HETATM   18  C19 UNK     1      20.396  -6.266  38.795  1.00  0.00     0.005 C 
ENDBRANCH  16  17
ENDBRANCH  15  16
ENDBRANCH  14  15
ENDBRANCH  13  14
ENDBRANCH  11  13
BRANCH   3  19
HETATM   19  C2  UNK     1      18.254   4.819  31.450  1.00  0.00     0.049 C 
BRANCH  19  20
HETATM   20  C1  UNK     1      19.659   5.377  31.204  1.00  0.00    -0.018 C 
HETATM   21  C6  UNK     1      20.040   6.462  32.216  1.00  0.00     0.010 C 
HETATM   22  C7  UNK     1      19.739   5.946  29.784  1.00  0.00     0.010 C 
ENDBRANCH  19  20
ENDBRANCH   3  19
TORSDOF 7
ENDMDL
MODEL 9
REMARK VINA RESULT:      -6.2     22.602     24.743
REMARK  7 active torsions:
REMARK  status: ('A' for Active; 'I' for Inactive)
REMARK    1  A    between atoms: C14_17  and  O2_2 
REMARK    2  A    between atoms: C16_19  and  O2_2 
REMARK    3  A    between atoms: C1_4  and  C2_5 
REMARK    4  A    between atoms: C2_5  and  C3_6 
REMARK    5  A    between atoms: C10_13  and  C11_14 
REMARK    6  A    between atoms: C10_13  and  C14_17 
REMARK    7  A    between atoms: C11_14  and  C17_20 
ROOT
HETATM    1  O1  UNK     1      10.328   5.112   8.674  1.00  0.00    -0.274 OA
HETATM    2  O3  UNK     1       8.076   4.844   8.775  1.00  0.00    -0.259 OA
HETATM    3  C3  UNK     1       8.890   7.060   9.097  1.00  0.00     0.025 A 
HETATM    4  C4  UNK     1       9.965   7.870   9.201  1.00  0.00    -0.037 A 
HETATM    5  C5  UNK     1      11.317   7.311   8.999  1.00  0.00     0.005 A 
HETATM    6  C8  UNK     1      11.451   5.949   8.744  1.00  0.00     0.092 A 
HETATM    7  C9  UNK     1       9.041   5.600   8.837  1.00  0.00     0.295 A 
HETATM    8  C12 UNK     1       9.877   9.340   9.531  1.00  0.00     0.050 C 
HETATM    9  C13 UNK     1      12.496   8.074   9.037  1.00  0.00     0.017 A 
HETATM   10  C15 UNK     1      12.693   5.340   8.541  1.00  0.00     0.075 A 
HETATM   11  C16 UNK     1      13.847   6.114   8.590  1.00  0.00     0.071 A 
HETATM   12  C18 UNK     1      13.748   7.480   8.836  1.00  0.00     0.038 A 
ENDROOT
BRANCH  11  13
HETATM   13  O2  UNK     1      15.065   5.540   8.395  1.00  0.00    -0.351 OA
BRANCH  13  14
HETATM   14  C14 UNK     1      15.897   5.376   9.543  1.00  0.00     0.175 C 
BRANCH  14  15
HETATM   15  C10 UNK     1      17.098   6.302   9.416  1.00  0.00     0.027 C 
BRANCH  15  16
HETATM   16  C11 UNK     1      17.127   7.346  10.530  1.00  0.00     0.002 C 
BRANCH  16  17
HETATM   17  C17 UNK     1      17.115   8.766   9.964  1.00  0.00    -0.004 C 
HETATM   18  C19 UNK     1      16.180   9.670  10.750  1.00  0.00     0.005 C 
ENDBRANCH  16  17
ENDBRANCH  15  16
ENDBRANCH  14  15
ENDBRANCH  13  14
ENDBRANCH  11  13
BRANCH   3  19
HETATM   19  C2  UNK     1       7.456   7.511   9.216  1.00  0.00     0.049 C 
BRANCH  19  20
HETATM   20  C1  UNK     1       6.918   7.399  10.646  1.00  0.00    -0.018 C 
HETATM   21  C6  UNK     1       5.660   6.530  10.727  1.00  0.00     0.010 C 
HETATM   22  C7  UNK     1       6.615   8.799  11.187  1.00  0.00     0.010 C 
ENDBRANCH  19  20
ENDBRANCH   3  19
TORSDOF 7
ENDMDL
MODEL 10
REMARK VINA RESULT:      -6.2      6.851     10.134
REMARK  7 active torsions:
REMARK  status: ('A' for Active; 'I' for Inactive)
REMARK    1  A    between atoms: C14_17  and  O2_2 
REMARK    2  A    between atoms: C16_19  and  O2_2 
REMARK    3  A    between atoms: C1_4  and  C2_5 
REMARK    4  A    between atoms: C2_5  and  C3_6 
REMARK    5  A    between atoms: C10_13  and  C11_14 
REMARK    6  A    between atoms: C10_13  and  C14_17 
REMARK    7  A    between atoms: C11_14  and  C17_20 
ROOT
HETATM    1  O1  UNK     1      20.352  -5.491  34.195  1.00  0.00    -0.274 OA
HETATM    2  O3  UNK     1      20.632  -7.613  33.439  1.00  0.00    -0.259 OA
HETATM    3  C3  UNK     1      20.398  -7.355  35.796  1.00  0.00     0.025 A 
HETATM    4  C4  UNK     1      20.257  -6.505  36.837  1.00  0.00    -0.037 A 
HETATM    5  C5  UNK     1      20.114  -5.058  36.577  1.00  0.00     0.005 A 
HETATM    6  C8  UNK     1      20.169  -4.601  35.264  1.00  0.00     0.092 A 
HETATM    7  C9  UNK     1      20.469  -6.857  34.392  1.00  0.00     0.295 A 
HETATM    8  C12 UNK     1      20.250  -6.944  38.280  1.00  0.00     0.050 C 
HETATM    9  C13 UNK     1      19.915  -4.097  37.582  1.00  0.00     0.017 A 
HETATM   10  C15 UNK     1      20.043  -3.249  34.932  1.00  0.00     0.075 A 
HETATM   11  C16 UNK     1      19.852  -2.314  35.943  1.00  0.00     0.071 A 
HETATM   12  C18 UNK     1      19.787  -2.738  37.268  1.00  0.00     0.038 A 
ENDROOT
BRANCH  11  13
HETATM   13  O2  UNK     1      19.727  -0.994  35.641  1.00  0.00    -0.351 OA
BRANCH  13  14
HETATM   14  C14 UNK     1      18.700  -0.633  34.718  1.00  0.00     0.175 C 
BRANCH  14  15
HETATM   15  C10 UNK     1      17.351  -0.749  35.412  1.00  0.00     0.027 C 
BRANCH  15  16
HETATM   16  C11 UNK     1      16.662   0.608  35.540  1.00  0.00     0.002 C 
BRANCH  16  17
HETATM   17  C17 UNK     1      16.309   0.918  36.994  1.00  0.00    -0.004 C 
HETATM   18  C19 UNK     1      17.554   0.995  37.864  1.00  0.00     0.005 C 
ENDBRANCH  16  17
ENDBRANCH  15  16
ENDBRANCH  14  15
ENDBRANCH  13  14
ENDBRANCH  11  13
BRANCH   3  19
HETATM   19  C2  UNK     1      20.490  -8.855  35.914  1.00  0.00     0.049 C 
BRANCH  19  20
HETATM   20  C1  UNK     1      21.890  -9.388  35.596  1.00  0.00    -0.018 C 
HETATM   21  C6  UNK     1      21.879 -10.881  35.251  1.00  0.00     0.010 C 
HETATM   22  C7  UNK     1      22.813  -9.142  36.793  1.00  0.00     0.010 C 
ENDBRANCH  19  20
ENDBRANCH   3  19
TORSDOF 7
ENDMDL
