MODEL 1
REMARK VINA RESULT:      -8.4      0.000      0.000
REMARK  5 active torsions:
REMARK  status: ('A' for Active; 'I' for Inactive)
REMARK    1  A    between atoms: C12_15  and  O2_2 
REMARK    2  A    between atoms: C8_11  and  O2_2 
REMARK    3  A    between atoms: C3_6  and  C6_9 
REMARK    4  A    between atoms: C14_17  and  C6_9 
REMARK    5  A    between atoms: C12_15  and  C13_16 
ROOT
HETATM    1  O1  UNK     1      16.153   6.124  32.591  1.00  0.00    -0.274 OA
HETATM    2  O3  UNK     1      14.643   7.325  33.787  1.00  0.00    -0.259 OA
HETATM    3  C1  UNK     1      18.522   6.665  32.709  1.00  0.00     0.005 A 
HETATM    4  C2  UNK     1      18.208   7.750  33.662  1.00  0.00    -0.036 A 
HETATM    5  C3  UNK     1      16.922   7.988  33.996  1.00  0.00     0.028 A 
HETATM    6  C4  UNK     1      17.482   5.888  32.208  1.00  0.00     0.092 A 
HETATM    7  C5  UNK     1      19.817   6.366  32.259  1.00  0.00     0.017 A 
HETATM    8  C7  UNK     1      17.691   4.843  31.304  1.00  0.00     0.075 A 
HETATM    9  C8  UNK     1      18.983   4.561  30.877  1.00  0.00     0.071 A 
HETATM   10  C9  UNK     1      15.814   7.143  33.465  1.00  0.00     0.295 A 
HETATM   11  C10 UNK     1      19.375   8.526  34.220  1.00  0.00     0.050 C 
HETATM   12  C11 UNK     1      20.046   5.323  31.354  1.00  0.00     0.038 A 
ENDROOT
BRANCH   9  13
HETATM   13  O2  UNK     1      19.208   3.548  29.997  1.00  0.00    -0.347 OA
BRANCH  13  14
HETATM   14  C12 UNK     1      18.298   2.449  30.024  1.00  0.00     0.214 C 
BRANCH  14  15
HETATM   15  C13 UNK     1      19.064   1.174  29.831  1.00  0.00    -0.034 A 
HETATM   16  C15 UNK     1      19.800   0.646  30.885  1.00  0.00     0.009 A 
HETATM   17  C17 UNK     1      20.512  -0.540  30.706  1.00  0.00     0.001 A 
HETATM   18  C20 UNK     1      20.486  -1.190  29.472  1.00  0.00     0.000 A 
HETATM   19  C18 UNK     1      19.746  -0.654  28.417  1.00  0.00     0.001 A 
HETATM   20  C16 UNK     1      19.032   0.531  28.597  1.00  0.00     0.009 A 
ENDBRANCH  14  15
ENDBRANCH  13  14
ENDBRANCH   9  13
BRANCH   5  21
HETATM   21  C6  UNK     1      16.459   9.100  34.903  1.00  0.00     0.071 C 
BRANCH  21  22
HETATM   22  C14 UNK     1      16.230  10.366  34.145  1.00  0.00    -0.032 C 
HETATM   23  C19 UNK     1      17.094  11.388  34.126  1.00  0.00     0.007 C 
ENDBRANCH  21  22
ENDBRANCH   5  21
TORSDOF 5
ENDMDL
MODEL 2
REMARK VINA RESULT:      -8.1      5.430      7.509
REMARK  5 active torsions:
REMARK  status: ('A' for Active; 'I' for Inactive)
REMARK    1  A    between atoms: C12_15  and  O2_2 
REMARK    2  A    between atoms: C8_11  and  O2_2 
REMARK    3  A    between atoms: C3_6  and  C6_9 
REMARK    4  A    between atoms: C14_17  and  C6_9 
REMARK    5  A    between atoms: C12_15  and  C13_16 
ROOT
HETATM    1  O1  UNK     1      17.319  -0.737  33.671  1.00  0.00    -0.274 OA
HETATM    2  O3  UNK     1      15.891  -0.142  35.332  1.00  0.00    -0.259 OA
HETATM    3  C1  UNK     1      19.410  -1.866  34.195  1.00  0.00     0.005 A 
HETATM    4  C2  UNK     1      19.053  -1.821  35.629  1.00  0.00    -0.036 A 
HETATM    5  C3  UNK     1      17.903  -1.225  36.008  1.00  0.00     0.028 A 
HETATM    6  C4  UNK     1      18.529  -1.323  33.266  1.00  0.00     0.092 A 
HETATM    7  C5  UNK     1      20.602  -2.417  33.701  1.00  0.00     0.017 A 
HETATM    8  C7  UNK     1      18.788  -1.324  31.893  1.00  0.00     0.075 A 
HETATM    9  C8  UNK     1      19.972  -1.881  31.425  1.00  0.00     0.071 A 
HETATM   10  C9  UNK     1      16.957  -0.657  35.005  1.00  0.00     0.295 A 
HETATM   11  C10 UNK     1      20.015  -2.474  36.592  1.00  0.00     0.050 C 
HETATM   12  C11 UNK     1      20.879  -2.427  32.328  1.00  0.00     0.038 A 
ENDROOT
BRANCH   9  13
HETATM   13  O2  UNK     1      20.243  -1.892  30.092  1.00  0.00    -0.347 OA
BRANCH  13  14
HETATM   14  C12 UNK     1      20.844  -0.720  29.541  1.00  0.00     0.214 C 
BRANCH  14  15
HETATM   15  C13 UNK     1      19.794   0.338  29.376  1.00  0.00    -0.034 A 
HETATM   16  C15 UNK     1      18.876   0.241  28.336  1.00  0.00     0.009 A 
HETATM   17  C17 UNK     1      17.899   1.225  28.183  1.00  0.00     0.001 A 
HETATM   18  C20 UNK     1      17.847   2.300  29.070  1.00  0.00     0.000 A 
HETATM   19  C18 UNK     1      18.771   2.391  30.111  1.00  0.00     0.001 A 
HETATM   20  C16 UNK     1      19.747   1.407  30.265  1.00  0.00     0.009 A 
ENDBRANCH  14  15
ENDBRANCH  13  14
ENDBRANCH   9  13
BRANCH   5  21
HETATM   21  C6  UNK     1      17.451  -1.054  37.436  1.00  0.00     0.071 C 
BRANCH  21  22
HETATM   22  C14 UNK     1      17.995   0.200  38.037  1.00  0.00    -0.032 C 
HETATM   23  C19 UNK     1      17.375   1.385  37.974  1.00  0.00     0.007 C 
ENDBRANCH  21  22
ENDBRANCH   5  21
TORSDOF 5
ENDMDL
MODEL 3
REMARK VINA RESULT:      -7.9      3.034      7.534
REMARK  5 active torsions:
REMARK  status: ('A' for Active; 'I' for Inactive)
REMARK    1  A    between atoms: C12_15  and  O2_2 
REMARK    2  A    between atoms: C8_11  and  O2_2 
REMARK    3  A    between atoms: C3_6  and  C6_9 
REMARK    4  A    between atoms: C14_17  and  C6_9 
REMARK    5  A    between atoms: C12_15  and  C13_16 
ROOT
HETATM    1  O1  UNK     1      17.759   2.191  33.919  1.00  0.00    -0.274 OA
HETATM    2  O3  UNK     1      17.330   1.160  35.894  1.00  0.00    -0.259 OA
HETATM    3  C1  UNK     1      18.736   0.947  32.070  1.00  0.00     0.005 A 
HETATM    4  C2  UNK     1      18.740  -0.266  32.914  1.00  0.00    -0.036 A 
HETATM    5  C3  UNK     1      18.303  -0.190  34.189  1.00  0.00     0.028 A 
HETATM    6  C4  UNK     1      18.244   2.134  32.603  1.00  0.00     0.092 A 
HETATM    7  C5  UNK     1      19.213   0.987  30.751  1.00  0.00     0.017 A 
HETATM    8  C7  UNK     1      18.203   3.326  31.875  1.00  0.00     0.075 A 
HETATM    9  C8  UNK     1      18.675   3.341  30.568  1.00  0.00     0.071 A 
HETATM   10  C9  UNK     1      17.764   1.083  34.748  1.00  0.00     0.295 A 
HETATM   11  C10 UNK     1      19.230  -1.541  32.272  1.00  0.00     0.050 C 
HETATM   12  C11 UNK     1      19.180   2.172  30.006  1.00  0.00     0.038 A 
ENDROOT
BRANCH   9  13
HETATM   13  O2  UNK     1      18.645   4.491  29.842  1.00  0.00    -0.347 OA
BRANCH  13  14
HETATM   14  C12 UNK     1      19.685   5.438  30.080  1.00  0.00     0.214 C 
BRANCH  14  15
HETATM   15  C13 UNK     1      19.342   6.248  31.294  1.00  0.00    -0.034 A 
HETATM   16  C15 UNK     1      20.261   6.361  32.330  1.00  0.00     0.009 A 
HETATM   17  C17 UNK     1      19.942   7.114  33.460  1.00  0.00     0.001 A 
HETATM   18  C20 UNK     1      18.703   7.751  33.546  1.00  0.00     0.000 A 
HETATM   19  C18 UNK     1      17.785   7.633  32.503  1.00  0.00     0.001 A 
HETATM   20  C16 UNK     1      18.105   6.880  31.373  1.00  0.00     0.009 A 
ENDBRANCH  14  15
ENDBRANCH  13  14
ENDBRANCH   9  13
BRANCH   5  21
HETATM   21  C6  UNK     1      18.312  -1.332  35.173  1.00  0.00     0.071 C 
BRANCH  21  22
HETATM   22  C14 UNK     1      19.651  -1.491  35.815  1.00  0.00    -0.032 C 
HETATM   23  C19 UNK     1      20.198  -2.675  36.111  1.00  0.00     0.007 C 
ENDBRANCH  21  22
ENDBRANCH   5  21
TORSDOF 5
ENDMDL
MODEL 4
REMARK VINA RESULT:      -7.8     14.915     17.227
REMARK  5 active torsions:
REMARK  status: ('A' for Active; 'I' for Inactive)
REMARK    1  A    between atoms: C12_15  and  O2_2 
REMARK    2  A    between atoms: C8_11  and  O2_2 
REMARK    3  A    between atoms: C3_6  and  C6_9 
REMARK    4  A    between atoms: C14_17  and  C6_9 
REMARK    5  A    between atoms: C12_15  and  C13_16 
ROOT
HETATM    1  O1  UNK     1      28.206  -5.071  39.226  1.00  0.00    -0.274 OA
HETATM    2  O3  UNK     1      29.911  -3.590  39.450  1.00  0.00    -0.259 OA
HETATM    3  C1  UNK     1      28.631  -7.315  38.387  1.00  0.00     0.005 A 
HETATM    4  C2  UNK     1      30.067  -6.981  38.277  1.00  0.00    -0.036 A 
HETATM    5  C3  UNK     1      30.487  -5.740  38.600  1.00  0.00     0.028 A 
HETATM    6  C4  UNK     1      27.751  -6.347  38.859  1.00  0.00     0.092 A 
HETATM    7  C5  UNK     1      28.085  -8.557  38.031  1.00  0.00     0.017 A 
HETATM    8  C7  UNK     1      26.380  -6.579  38.995  1.00  0.00     0.075 A 
HETATM    9  C8  UNK     1      25.861  -7.819  38.643  1.00  0.00     0.071 A 
HETATM   10  C9  UNK     1      29.539  -4.712  39.119  1.00  0.00     0.295 A 
HETATM   11  C10 UNK     1      30.989  -8.082  37.814  1.00  0.00     0.050 C 
HETATM   12  C11 UNK     1      26.714  -8.809  38.160  1.00  0.00     0.038 A 
ENDROOT
BRANCH   9  13
HETATM   13  O2  UNK     1      24.530  -8.065  38.767  1.00  0.00    -0.347 OA
BRANCH  13  14
HETATM   14  C12 UNK     1      23.694  -6.963  39.119  1.00  0.00     0.214 C 
BRANCH  14  15
HETATM   15  C13 UNK     1      22.268  -7.425  39.167  1.00  0.00    -0.034 A 
HETATM   16  C15 UNK     1      21.239  -6.494  39.102  1.00  0.00     0.009 A 
HETATM   17  C17 UNK     1      19.913  -6.923  39.146  1.00  0.00     0.001 A 
HETATM   18  C20 UNK     1      19.624  -8.284  39.256  1.00  0.00     0.000 A 
HETATM   19  C18 UNK     1      20.661  -9.214  39.322  1.00  0.00     0.001 A 
HETATM   20  C16 UNK     1      21.988  -8.784  39.276  1.00  0.00     0.009 A 
ENDBRANCH  14  15
ENDBRANCH  13  14
ENDBRANCH   9  13
BRANCH   5  21
HETATM   21  C6  UNK     1      31.907  -5.250  38.473  1.00  0.00     0.071 C 
BRANCH  21  22
HETATM   22  C14 UNK     1      32.219  -4.831  37.075  1.00  0.00    -0.032 C 
HETATM   23  C19 UNK     1      32.009  -3.596  36.604  1.00  0.00     0.007 C 
ENDBRANCH  21  22
ENDBRANCH   5  21
TORSDOF 5
ENDMDL
MODEL 5
REMARK VINA RESULT:      -7.7      7.622      9.904
REMARK  5 active torsions:
REMARK  status: ('A' for Active; 'I' for Inactive)
REMARK    1  A    between atoms: C12_15  and  O2_2 
REMARK    2  A    between atoms: C8_11  and  O2_2 
REMARK    3  A    between atoms: C3_6  and  C6_9 
REMARK    4  A    between atoms: C14_17  and  C6_9 
REMARK    5  A    between atoms: C12_15  and  C13_16 
ROOT
HETATM    1  O1  UNK     1      19.483  -1.398  33.772  1.00  0.00    -0.274 OA
HETATM    2  O3  UNK     1      18.844   0.230  32.326  1.00  0.00    -0.259 OA
HETATM    3  C1  UNK     1      18.872  -1.261  36.123  1.00  0.00     0.005 A 
HETATM    4  C2  UNK     1      18.167   0.008  35.847  1.00  0.00    -0.036 A 
HETATM    5  C3  UNK     1      18.182   0.517  34.597  1.00  0.00     0.028 A 
HETATM    6  C4  UNK     1      19.505  -1.920  35.075  1.00  0.00     0.092 A 
HETATM    7  C5  UNK     1      18.958  -1.850  37.394  1.00  0.00     0.017 A 
HETATM    8  C7  UNK     1      20.193  -3.124  35.249  1.00  0.00     0.075 A 
HETATM    9  C8  UNK     1      20.260  -3.693  36.515  1.00  0.00     0.071 A 
HETATM   10  C9  UNK     1      18.851  -0.202  33.475  1.00  0.00     0.295 A 
HETATM   11  C10 UNK     1      17.448   0.655  37.005  1.00  0.00     0.050 C 
HETATM   12  C11 UNK     1      19.643  -3.056  37.588  1.00  0.00     0.038 A 
ENDROOT
BRANCH   9  13
HETATM   13  O2  UNK     1      20.926  -4.863  36.705  1.00  0.00    -0.347 OA
BRANCH  13  14
HETATM   14  C12 UNK     1      21.499  -5.084  37.994  1.00  0.00     0.214 C 
BRANCH  14  15
HETATM   15  C13 UNK     1      21.110  -6.449  38.476  1.00  0.00    -0.034 A 
HETATM   16  C15 UNK     1      19.831  -6.931  38.224  1.00  0.00     0.009 A 
HETATM   17  C17 UNK     1      19.469  -8.201  38.673  1.00  0.00     0.001 A 
HETATM   18  C20 UNK     1      20.389  -8.982  39.373  1.00  0.00     0.000 A 
HETATM   19  C18 UNK     1      21.671  -8.492  39.623  1.00  0.00     0.001 A 
HETATM   20  C16 UNK     1      22.033  -7.222  39.173  1.00  0.00     0.009 A 
ENDBRANCH  14  15
ENDBRANCH  13  14
ENDBRANCH   9  13
BRANCH   5  21
HETATM   21  C6  UNK     1      17.560   1.830  34.193  1.00  0.00     0.071 C 
BRANCH  21  22
HETATM   22  C14 UNK     1      18.487   2.974  34.438  1.00  0.00    -0.032 C 
HETATM   23  C19 UNK     1      18.361   4.171  33.854  1.00  0.00     0.007 C 
ENDBRANCH  21  22
ENDBRANCH   5  21
TORSDOF 5
ENDMDL
MODEL 6
REMARK VINA RESULT:      -7.7      1.880      8.229
REMARK  5 active torsions:
REMARK  status: ('A' for Active; 'I' for Inactive)
REMARK    1  A    between atoms: C12_15  and  O2_2 
REMARK    2  A    between atoms: C8_11  and  O2_2 
REMARK    3  A    between atoms: C3_6  and  C6_9 
REMARK    4  A    between atoms: C14_17  and  C6_9 
REMARK    5  A    between atoms: C12_15  and  C13_16 
ROOT
HETATM    1  O1  UNK     1      18.117   3.047  33.380  1.00  0.00    -0.274 OA
HETATM    2  O3  UNK     1      18.094   0.837  32.866  1.00  0.00    -0.259 OA
HETATM    3  C1  UNK     1      18.528   4.706  31.648  1.00  0.00     0.005 A 
HETATM    4  C2  UNK     1      18.640   3.616  30.657  1.00  0.00    -0.036 A 
HETATM    5  C3  UNK     1      18.527   2.334  31.064  1.00  0.00     0.028 A 
HETATM    6  C4  UNK     1      18.269   4.383  32.976  1.00  0.00     0.092 A 
HETATM    7  C5  UNK     1      18.679   6.066  31.339  1.00  0.00     0.017 A 
HETATM    8  C7  UNK     1      18.147   5.351  33.977  1.00  0.00     0.075 A 
HETATM    9  C8  UNK     1      18.294   6.693  33.646  1.00  0.00     0.071 A 
HETATM   10  C9  UNK     1      18.235   1.996  32.487  1.00  0.00     0.295 A 
HETATM   11  C10 UNK     1      18.865   4.021  29.221  1.00  0.00     0.050 C 
HETATM   12  C11 UNK     1      18.560   7.051  32.328  1.00  0.00     0.038 A 
ENDROOT
BRANCH   9  13
HETATM   13  O2  UNK     1      18.180   7.650  34.605  1.00  0.00    -0.347 OA
BRANCH  13  14
HETATM   14  C12 UNK     1      16.928   7.746  35.284  1.00  0.00     0.214 C 
BRANCH  14  15
HETATM   15  C13 UNK     1      16.036   8.692  34.536  1.00  0.00    -0.034 A 
HETATM   16  C15 UNK     1      14.883   8.215  33.925  1.00  0.00     0.009 A 
HETATM   17  C17 UNK     1      14.053   9.094  33.229  1.00  0.00     0.001 A 
HETATM   18  C20 UNK     1      14.384  10.447  33.148  1.00  0.00     0.000 A 
HETATM   19  C18 UNK     1      15.543  10.920  33.763  1.00  0.00     0.001 A 
HETATM   20  C16 UNK     1      16.372  10.040  34.460  1.00  0.00     0.009 A 
ENDBRANCH  14  15
ENDBRANCH  13  14
ENDBRANCH   9  13
BRANCH   5  21
HETATM   21  C6  UNK     1      18.683   1.129  30.171  1.00  0.00     0.071 C 
BRANCH  21  22
HETATM   22  C14 UNK     1      20.088   0.624  30.175  1.00  0.00    -0.032 C 
HETATM   23  C19 UNK     1      20.523  -0.370  29.392  1.00  0.00     0.007 C 
ENDBRANCH  21  22
ENDBRANCH   5  21
TORSDOF 5
ENDMDL
MODEL 7
REMARK VINA RESULT:      -7.6      9.230     14.070
REMARK  5 active torsions:
REMARK  status: ('A' for Active; 'I' for Inactive)
REMARK    1  A    between atoms: C12_15  and  O2_2 
REMARK    2  A    between atoms: C8_11  and  O2_2 
REMARK    3  A    between atoms: C3_6  and  C6_9 
REMARK    4  A    between atoms: C14_17  and  C6_9 
REMARK    5  A    between atoms: C12_15  and  C13_16 
ROOT
HETATM    1  O1  UNK     1      22.147  -6.493  37.756  1.00  0.00    -0.274 OA
HETATM    2  O3  UNK     1      23.337  -8.391  38.122  1.00  0.00    -0.259 OA
HETATM    3  C1  UNK     1      19.844  -6.618  36.984  1.00  0.00     0.005 A 
HETATM    4  C2  UNK     1      19.936  -8.093  37.005  1.00  0.00    -0.036 A 
HETATM    5  C3  UNK     1      21.101  -8.680  37.353  1.00  0.00     0.028 A 
HETATM    6  C4  UNK     1      20.953  -5.869  37.362  1.00  0.00     0.092 A 
HETATM    7  C5  UNK     1      18.697  -5.909  36.592  1.00  0.00     0.017 A 
HETATM    8  C7  UNK     1      20.951  -4.472  37.372  1.00  0.00     0.075 A 
HETATM    9  C8  UNK     1      19.803  -3.791  36.986  1.00  0.00     0.071 A 
HETATM   10  C9  UNK     1      22.283  -7.871  37.770  1.00  0.00     0.295 A 
HETATM   11  C10 UNK     1      18.688  -8.859  36.642  1.00  0.00     0.050 C 
HETATM   12  C11 UNK     1      18.676  -4.509  36.596  1.00  0.00     0.038 A 
ENDROOT
BRANCH   9  13
HETATM   13  O2  UNK     1      19.780  -2.431  36.988  1.00  0.00    -0.347 OA
BRANCH  13  14
HETATM   14  C12 UNK     1      19.407  -1.785  35.771  1.00  0.00     0.214 C 
BRANCH  14  15
HETATM   15  C13 UNK     1      18.191  -0.941  36.018  1.00  0.00    -0.034 A 
HETATM   16  C15 UNK     1      17.193  -0.872  35.054  1.00  0.00     0.009 A 
HETATM   17  C17 UNK     1      16.062  -0.087  35.284  1.00  0.00     0.001 A 
HETATM   18  C20 UNK     1      15.939   0.625  36.477  1.00  0.00     0.000 A 
HETATM   19  C18 UNK     1      16.945   0.552  37.440  1.00  0.00     0.001 A 
HETATM   20  C16 UNK     1      18.075  -0.234  37.211  1.00  0.00     0.009 A 
ENDBRANCH  14  15
ENDBRANCH  13  14
ENDBRANCH   9  13
BRANCH   5  21
HETATM   21  C6  UNK     1      21.350 -10.166  37.354  1.00  0.00     0.071 C 
BRANCH  21  22
HETATM   22  C14 UNK     1      21.768 -10.653  36.006  1.00  0.00    -0.032 C 
HETATM   23  C19 UNK     1      22.962 -11.199  35.749  1.00  0.00     0.007 C 
ENDBRANCH  21  22
ENDBRANCH   5  21
TORSDOF 5
ENDMDL
MODEL 8
REMARK VINA RESULT:      -7.6     22.048     24.448
REMARK  5 active torsions:
REMARK  status: ('A' for Active; 'I' for Inactive)
REMARK    1  A    between atoms: C12_15  and  O2_2 
REMARK    2  A    between atoms: C8_11  and  O2_2 
REMARK    3  A    between atoms: C3_6  and  C6_9 
REMARK    4  A    between atoms: C14_17  and  C6_9 
REMARK    5  A    between atoms: C12_15  and  C13_16 
ROOT
HETATM    1  O1  UNK     1      13.863   5.013   8.871  1.00  0.00    -0.274 OA
HETATM    2  O3  UNK     1      15.965   4.711   9.672  1.00  0.00    -0.259 OA
HETATM    3  C1  UNK     1      13.031   7.255   8.422  1.00  0.00     0.005 A 
HETATM    4  C2  UNK     1      14.331   7.805   8.857  1.00  0.00    -0.036 A 
HETATM    5  C3  UNK     1      15.292   6.966   9.299  1.00  0.00     0.028 A 
HETATM    6  C4  UNK     1      12.843   5.877   8.443  1.00  0.00     0.092 A 
HETATM    7  C5  UNK     1      11.951   8.041   7.992  1.00  0.00     0.017 A 
HETATM    8  C7  UNK     1      11.645   5.274   8.048  1.00  0.00     0.075 A 
HETATM    9  C8  UNK     1      10.591   6.072   7.620  1.00  0.00     0.071 A 
HETATM   10  C9  UNK     1      15.088   5.489   9.306  1.00  0.00     0.295 A 
HETATM   11  C10 UNK     1      14.505   9.301   8.761  1.00  0.00     0.050 C 
HETATM   12  C11 UNK     1      10.743   7.455   7.593  1.00  0.00     0.038 A 
ENDROOT
BRANCH   9  13
HETATM   13  O2  UNK     1       9.417   5.505   7.232  1.00  0.00    -0.347 OA
BRANCH  13  14
HETATM   14  C12 UNK     1       8.229   6.273   7.422  1.00  0.00     0.214 C 
BRANCH  14  15
HETATM   15  C13 UNK     1       7.712   6.039   8.810  1.00  0.00    -0.034 A 
HETATM   16  C15 UNK     1       7.475   4.741   9.248  1.00  0.00     0.009 A 
HETATM   17  C17 UNK     1       6.994   4.523  10.539  1.00  0.00     0.001 A 
HETATM   18  C20 UNK     1       6.750   5.606  11.384  1.00  0.00     0.000 A 
HETATM   19  C18 UNK     1       6.989   6.906  10.938  1.00  0.00     0.001 A 
HETATM   20  C16 UNK     1       7.472   7.124   9.648  1.00  0.00     0.009 A 
ENDBRANCH  14  15
ENDBRANCH  13  14
ENDBRANCH   9  13
BRANCH   5  21
HETATM   21  C6  UNK     1      16.635   7.398   9.830  1.00  0.00     0.071 C 
BRANCH  21  22
HETATM   22  C14 UNK     1      16.615   7.549  11.315  1.00  0.00    -0.032 C 
HETATM   23  C19 UNK     1      15.693   8.257  11.978  1.00  0.00     0.007 C 
ENDBRANCH  21  22
ENDBRANCH   5  21
TORSDOF 5
ENDMDL
MODEL 9
REMARK VINA RESULT:      -7.5     15.641     16.605
REMARK  5 active torsions:
REMARK  status: ('A' for Active; 'I' for Inactive)
REMARK    1  A    between atoms: C12_15  and  O2_2 
REMARK    2  A    between atoms: C8_11  and  O2_2 
REMARK    3  A    between atoms: C3_6  and  C6_9 
REMARK    4  A    between atoms: C14_17  and  C6_9 
REMARK    5  A    between atoms: C12_15  and  C13_16 
ROOT
HETATM    1  O1  UNK     1      27.600  -6.877  35.251  1.00  0.00    -0.274 OA
HETATM    2  O3  UNK     1      27.061  -7.263  37.421  1.00  0.00    -0.259 OA
HETATM    3  C1  UNK     1      29.838  -6.134  34.655  1.00  0.00     0.005 A 
HETATM    4  C2  UNK     1      30.214  -6.180  36.083  1.00  0.00    -0.036 A 
HETATM    5  C3  UNK     1      29.287  -6.525  37.002  1.00  0.00     0.028 A 
HETATM    6  C4  UNK     1      28.543  -6.486  34.288  1.00  0.00     0.092 A 
HETATM    7  C5  UNK     1      30.710  -5.742  33.627  1.00  0.00     0.017 A 
HETATM    8  C7  UNK     1      28.106  -6.470  32.961  1.00  0.00     0.075 A 
HETATM    9  C8  UNK     1      28.988  -6.086  31.959  1.00  0.00     0.071 A 
HETATM   10  C9  UNK     1      27.904  -6.914  36.600  1.00  0.00     0.295 A 
HETATM   11  C10 UNK     1      31.645  -5.844  36.423  1.00  0.00     0.050 C 
HETATM   12  C11 UNK     1      30.290  -5.721  32.291  1.00  0.00     0.038 A 
ENDROOT
BRANCH   9  13
HETATM   13  O2  UNK     1      28.582  -6.063  30.661  1.00  0.00    -0.347 OA
BRANCH  13  14
HETATM   14  C12 UNK     1      27.721  -7.117  30.230  1.00  0.00     0.214 C 
BRANCH  14  15
HETATM   15  C13 UNK     1      28.521  -8.112  29.443  1.00  0.00    -0.034 A 
HETATM   16  C15 UNK     1      27.953  -9.332  29.095  1.00  0.00     0.009 A 
HETATM   17  C17 UNK     1      28.697 -10.258  28.363  1.00  0.00     0.001 A 
HETATM   18  C20 UNK     1      30.006  -9.958  27.985  1.00  0.00     0.000 A 
HETATM   19  C18 UNK     1      30.570  -8.732  28.338  1.00  0.00     0.001 A 
HETATM   20  C16 UNK     1      29.826  -7.806  29.069  1.00  0.00     0.009 A 
ENDBRANCH  14  15
ENDBRANCH  13  14
ENDBRANCH   9  13
BRANCH   5  21
HETATM   21  C6  UNK     1      29.518  -6.549  38.491  1.00  0.00     0.071 C 
BRANCH  21  22
HETATM   22  C14 UNK     1      29.037  -5.295  39.142  1.00  0.00    -0.032 C 
HETATM   23  C19 UNK     1      29.698  -4.132  39.095  1.00  0.00     0.007 C 
ENDBRANCH  21  22
ENDBRANCH   5  21
TORSDOF 5
ENDMDL
MODEL 10
REMARK VINA RESULT:      -7.5      5.264      8.276
REMARK  5 active torsions:
REMARK  status: ('A' for Active; 'I' for Inactive)
REMARK    1  A    between atoms: C12_15  and  O2_2 
REMARK    2  A    between atoms: C8_11  and  O2_2 
REMARK    3  A    between atoms: C3_6  and  C6_9 
REMARK    4  A    between atoms: C14_17  and  C6_9 
REMARK    5  A    between atoms: C12_15  and  C13_16 
ROOT
HETATM    1  O1  UNK     1      18.564   0.590  33.308  1.00  0.00    -0.274 OA
HETATM    2  O3  UNK     1      17.602   2.575  32.773  1.00  0.00    -0.259 OA
HETATM    3  C1  UNK     1      19.794  -0.671  31.630  1.00  0.00     0.005 A 
HETATM    4  C2  UNK     1      19.507   0.395  30.647  1.00  0.00    -0.036 A 
HETATM    5  C3  UNK     1      18.757   1.454  31.016  1.00  0.00     0.028 A 
HETATM    6  C4  UNK     1      19.313  -0.534  32.928  1.00  0.00     0.092 A 
HETATM    7  C5  UNK     1      20.520  -1.835  31.336  1.00  0.00     0.017 A 
HETATM    8  C7  UNK     1      19.539  -1.493  33.919  1.00  0.00     0.075 A 
HETATM    9  C8  UNK     1      20.267  -2.635  33.607  1.00  0.00     0.071 A 
HETATM   10  C9  UNK     1      18.256   1.600  32.413  1.00  0.00     0.295 A 
HETATM   11  C10 UNK     1      20.098   0.227  29.268  1.00  0.00     0.050 C 
HETATM   12  C11 UNK     1      20.757  -2.807  32.316  1.00  0.00     0.038 A 
ENDROOT
BRANCH   9  13
HETATM   13  O2  UNK     1      20.497  -3.581  34.557  1.00  0.00    -0.347 OA
BRANCH  13  14
HETATM   14  C12 UNK     1      20.140  -3.255  35.900  1.00  0.00     0.214 C 
BRANCH  14  15
HETATM   15  C13 UNK     1      20.093  -4.515  36.714  1.00  0.00    -0.034 A 
HETATM   16  C15 UNK     1      21.067  -4.749  37.678  1.00  0.00     0.009 A 
HETATM   17  C17 UNK     1      21.023  -5.920  38.434  1.00  0.00     0.001 A 
HETATM   18  C20 UNK     1      20.007  -6.851  38.220  1.00  0.00     0.000 A 
HETATM   19  C18 UNK     1      19.033  -6.610  37.251  1.00  0.00     0.001 A 
HETATM   20  C16 UNK     1      19.076  -5.438  36.495  1.00  0.00     0.009 A 
ENDBRANCH  14  15
ENDBRANCH  13  14
ENDBRANCH   9  13
BRANCH   5  21
HETATM   21  C6  UNK     1      18.338   2.575  30.099  1.00  0.00     0.071 C 
BRANCH  21  22
HETATM   22  C14 UNK     1      19.260   3.744  30.204  1.00  0.00    -0.032 C 
HETATM   23  C19 UNK     1      18.905   4.927  30.718  1.00  0.00     0.007 C 
ENDBRANCH  21  22
ENDBRANCH   5  21
TORSDOF 5
ENDMDL
