MODEL 1
REMARK VINA RESULT:      -9.2      0.000      0.000
REMARK  2 active torsions:
REMARK  status: ('A' for Active; 'I' for Inactive)
REMARK    1  A    between atoms: C11_16  and  N1_4 
REMARK       I    between atoms: C8_13  and  N1_4 
REMARK    2  A    between atoms: C3_8  and  C8_13 
ROOT
HETATM    1  O1  UNK     1      19.222   1.823  31.498  1.00  0.00    -0.304 OA
HETATM    2  O2  UNK     1      17.769   2.200  27.707  1.00  0.00    -0.287 OA
HETATM    3  C1  UNK     1      18.982   0.898  29.264  1.00  0.00     0.048 A 
HETATM    4  C2  UNK     1      19.452   0.831  30.577  1.00  0.00     0.090 A 
HETATM    5  C3  UNK     1      18.497   2.923  31.092  1.00  0.00     0.147 A 
HETATM    6  C4  UNK     1      18.209   2.077  28.841  1.00  0.00     0.187 A 
HETATM    7  C5  UNK     1      17.989   3.116  29.869  1.00  0.00     0.098 A 
HETATM    8  C6  UNK     1      19.246  -0.141  28.368  1.00  0.00     0.018 A 
HETATM    9  C7  UNK     1      20.186  -0.276  31.000  1.00  0.00     0.038 A 
HETATM   10  C9  UNK     1      19.981  -1.248  28.795  1.00  0.00     0.001 A 
HETATM   11  C10 UNK     1      20.451  -1.315  30.108  1.00  0.00     0.003 A 
ENDROOT
BRANCH   5  12
HETATM   12  C8  UNK     1      18.264   3.970  32.090  1.00  0.00     0.280 C 
HETATM   13  O3  UNK     1      17.868   3.666  33.216  1.00  0.00    -0.265 OA
HETATM   14  N1  UNK     1      18.540   5.239  31.597  1.00  0.00    -0.320 N 
HETATM   15  H6  UNK     1      18.862   5.310  30.634  1.00  0.00     0.169 HD
BRANCH  14  16
HETATM   16  C11 UNK     1      18.426   6.477  32.278  1.00  0.00     0.052 A 
HETATM   17  C13 UNK     1      17.385   7.327  31.995  1.00  0.00     0.145 A 
HETATM   18  N2  UNK     1      17.218   8.520  32.606  1.00  0.00    -0.271 NA
HETATM   19  C15 UNK     1      18.144   8.855  33.533  1.00  0.00     0.116 A 
HETATM   20  C14 UNK     1      19.223   8.056  33.875  1.00  0.00     0.021 A 
HETATM   21  C12 UNK     1      19.360   6.835  33.225  1.00  0.00     0.032 A 
ENDBRANCH  14  16
ENDBRANCH   5  12
TORSDOF 2
ENDMDL
MODEL 2
REMARK VINA RESULT:      -8.6      2.138      7.394
REMARK  2 active torsions:
REMARK  status: ('A' for Active; 'I' for Inactive)
REMARK    1  A    between atoms: C11_16  and  N1_4 
REMARK       I    between atoms: C8_13  and  N1_4 
REMARK    2  A    between atoms: C3_8  and  C8_13 
ROOT
HETATM    1  O1  UNK     1      16.952   5.036  32.048  1.00  0.00    -0.304 OA
HETATM    2  O2  UNK     1      20.318   7.072  33.121  1.00  0.00    -0.287 OA
HETATM    3  C1  UNK     1      17.977   7.112  32.783  1.00  0.00     0.048 A 
HETATM    4  C2  UNK     1      16.865   6.358  32.406  1.00  0.00     0.090 A 
HETATM    5  C3  UNK     1      18.197   4.443  32.068  1.00  0.00     0.147 A 
HETATM    6  C4  UNK     1      19.302   6.470  32.800  1.00  0.00     0.187 A 
HETATM    7  C5  UNK     1      19.343   5.046  32.408  1.00  0.00     0.098 A 
HETATM    8  C6  UNK     1      17.831   8.456  33.137  1.00  0.00     0.018 A 
HETATM    9  C7  UNK     1      15.600   6.944  32.381  1.00  0.00     0.038 A 
HETATM   10  C9  UNK     1      16.564   9.040  33.112  1.00  0.00     0.001 A 
HETATM   11  C10 UNK     1      15.451   8.285  32.734  1.00  0.00     0.003 A 
ENDROOT
BRANCH   5  12
HETATM   12  C8  UNK     1      18.268   3.032  31.683  1.00  0.00     0.280 C 
HETATM   13  O3  UNK     1      17.719   2.178  32.380  1.00  0.00    -0.265 OA
HETATM   14  N1  UNK     1      18.989   2.840  30.512  1.00  0.00    -0.320 N 
HETATM   15  H6  UNK     1      19.379   3.665  30.059  1.00  0.00     0.169 HD
BRANCH  14  16
HETATM   16  C11 UNK     1      19.260   1.617  29.850  1.00  0.00     0.052 A 
HETATM   17  C13 UNK     1      18.630   1.316  28.668  1.00  0.00     0.145 A 
HETATM   18  N2  UNK     1      18.842   0.169  27.986  1.00  0.00    -0.271 NA
HETATM   19  C15 UNK     1      19.726  -0.698  28.532  1.00  0.00     0.116 A 
HETATM   20  C14 UNK     1      20.402  -0.471  29.720  1.00  0.00     0.021 A 
HETATM   21  C12 UNK     1      20.157   0.721  30.390  1.00  0.00     0.032 A 
ENDBRANCH  14  16
ENDBRANCH   5  12
TORSDOF 2
ENDMDL
MODEL 3
REMARK VINA RESULT:      -8.5      9.020     10.775
REMARK  2 active torsions:
REMARK  status: ('A' for Active; 'I' for Inactive)
REMARK    1  A    between atoms: C11_16  and  N1_4 
REMARK       I    between atoms: C8_13  and  N1_4 
REMARK    2  A    between atoms: C3_8  and  C8_13 
ROOT
HETATM    1  O1  UNK     1      20.181  -6.149  38.022  1.00  0.00    -0.304 OA
HETATM    2  O2  UNK     1      17.615  -8.071  35.502  1.00  0.00    -0.287 OA
HETATM    3  C1  UNK     1      19.064  -8.205  37.367  1.00  0.00     0.048 A 
HETATM    4  C2  UNK     1      19.931  -7.488  38.193  1.00  0.00     0.090 A 
HETATM    5  C3  UNK     1      19.542  -5.502  36.985  1.00  0.00     0.147 A 
HETATM    6  C4  UNK     1      18.387  -7.504  36.263  1.00  0.00     0.187 A 
HETATM    7  C5  UNK     1      18.689  -6.064  36.121  1.00  0.00     0.098 A 
HETATM    8  C6  UNK     1      18.846  -9.567  37.586  1.00  0.00     0.018 A 
HETATM    9  C7  UNK     1      20.584  -8.131  39.244  1.00  0.00     0.038 A 
HETATM   10  C9  UNK     1      19.501 -10.207  38.640  1.00  0.00     0.001 A 
HETATM   11  C10 UNK     1      20.368  -9.490  39.466  1.00  0.00     0.003 A 
ENDROOT
BRANCH   5  12
HETATM   12  C8  UNK     1      19.824  -4.074  36.821  1.00  0.00     0.280 C 
HETATM   13  O3  UNK     1      20.989  -3.682  36.751  1.00  0.00    -0.265 OA
HETATM   14  N1  UNK     1      18.664  -3.312  36.761  1.00  0.00    -0.320 N 
HETATM   15  H6  UNK     1      17.774  -3.802  36.836  1.00  0.00     0.169 HD
BRANCH  14  16
HETATM   16  C11 UNK     1      18.556  -1.907  36.609  1.00  0.00     0.052 A 
HETATM   17  C13 UNK     1      19.061  -1.292  35.489  1.00  0.00     0.145 A 
HETATM   18  N2  UNK     1      18.991   0.041  35.282  1.00  0.00    -0.271 NA
HETATM   19  C15 UNK     1      18.389   0.768  36.250  1.00  0.00     0.116 A 
HETATM   20  C14 UNK     1      17.856   0.227  37.408  1.00  0.00     0.021 A 
HETATM   21  C12 UNK     1      17.946  -1.149  37.585  1.00  0.00     0.032 A 
ENDBRANCH  14  16
ENDBRANCH   5  12
TORSDOF 2
ENDMDL
MODEL 4
REMARK VINA RESULT:      -8.4     13.785     16.545
REMARK  2 active torsions:
REMARK  status: ('A' for Active; 'I' for Inactive)
REMARK    1  A    between atoms: C11_16  and  N1_4 
REMARK       I    between atoms: C8_13  and  N1_4 
REMARK    2  A    between atoms: C3_8  and  C8_13 
ROOT
HETATM    1  O1  UNK     1      19.485  -1.345  14.456  1.00  0.00    -0.304 OA
HETATM    2  O2  UNK     1      18.057  -5.047  13.513  1.00  0.00    -0.287 OA
HETATM    3  C1  UNK     1      19.386  -3.194  12.883  1.00  0.00     0.048 A 
HETATM    4  C2  UNK     1      19.838  -1.931  13.266  1.00  0.00     0.090 A 
HETATM    5  C3  UNK     1      18.646  -2.048  15.296  1.00  0.00     0.147 A 
HETATM    6  C4  UNK     1      18.491  -3.936  13.787  1.00  0.00     0.187 A 
HETATM    7  C5  UNK     1      18.140  -3.263  15.055  1.00  0.00     0.098 A 
HETATM    8  C6  UNK     1      19.777  -3.742  11.659  1.00  0.00     0.018 A 
HETATM    9  C7  UNK     1      20.686  -1.209  12.427  1.00  0.00     0.038 A 
HETATM   10  C9  UNK     1      20.626  -3.017  10.821  1.00  0.00     0.001 A 
HETATM   11  C10 UNK     1      21.079  -1.753  11.204  1.00  0.00     0.003 A 
ENDROOT
BRANCH   5  12
HETATM   12  C8  UNK     1      18.282  -1.405  16.560  1.00  0.00     0.280 C 
HETATM   13  O3  UNK     1      17.228  -1.708  17.121  1.00  0.00    -0.265 OA
HETATM   14  N1  UNK     1      19.235  -0.486  16.978  1.00  0.00    -0.320 N 
HETATM   15  H6  UNK     1      20.056  -0.357  16.388  1.00  0.00     0.169 HD
BRANCH  14  16
HETATM   16  C11 UNK     1      19.213   0.317  18.146  1.00  0.00     0.052 A 
HETATM   17  C13 UNK     1      19.418  -0.252  19.379  1.00  0.00     0.145 A 
HETATM   18  N2  UNK     1      19.410   0.455  20.531  1.00  0.00    -0.271 NA
HETATM   19  C15 UNK     1      19.184   1.784  20.418  1.00  0.00     0.116 A 
HETATM   20  C14 UNK     1      18.968   2.434  19.213  1.00  0.00     0.021 A 
HETATM   21  C12 UNK     1      18.984   1.672  18.051  1.00  0.00     0.032 A 
ENDBRANCH  14  16
ENDBRANCH   5  12
TORSDOF 2
ENDMDL
MODEL 5
REMARK VINA RESULT:      -8.4      2.558      7.228
REMARK  2 active torsions:
REMARK  status: ('A' for Active; 'I' for Inactive)
REMARK    1  A    between atoms: C11_16  and  N1_4 
REMARK       I    between atoms: C8_13  and  N1_4 
REMARK    2  A    between atoms: C3_8  and  C8_13 
ROOT
HETATM    1  O1  UNK     1      17.969   3.824  32.150  1.00  0.00    -0.304 OA
HETATM    2  O2  UNK     1      19.635   6.673  29.755  1.00  0.00    -0.287 OA
HETATM    3  C1  UNK     1      18.549   6.156  31.791  1.00  0.00     0.048 A 
HETATM    4  C2  UNK     1      17.994   5.133  32.562  1.00  0.00     0.090 A 
HETATM    5  C3  UNK     1      18.518   3.525  30.921  1.00  0.00     0.147 A 
HETATM    6  C4  UNK     1      19.132   5.826  30.480  1.00  0.00     0.187 A 
HETATM    7  C5  UNK     1      19.081   4.404  30.083  1.00  0.00     0.098 A 
HETATM    8  C6  UNK     1      18.546   7.472  32.260  1.00  0.00     0.018 A 
HETATM    9  C7  UNK     1      17.435   5.422  33.806  1.00  0.00     0.038 A 
HETATM   10  C9  UNK     1      17.986   7.758  33.506  1.00  0.00     0.001 A 
HETATM   11  C10 UNK     1      17.431   6.734  34.277  1.00  0.00     0.003 A 
ENDROOT
BRANCH   5  12
HETATM   12  C8  UNK     1      18.481   2.123  30.500  1.00  0.00     0.280 C 
HETATM   13  O3  UNK     1      17.518   1.699  29.861  1.00  0.00    -0.265 OA
HETATM   14  N1  UNK     1      19.610   1.421  30.906  1.00  0.00    -0.320 N 
HETATM   15  H6  UNK     1      20.317   1.931  31.432  1.00  0.00     0.169 HD
BRANCH  14  16
HETATM   16  C11 UNK     1      19.909   0.055  30.678  1.00  0.00     0.052 A 
HETATM   17  C13 UNK     1      19.724  -0.869  31.678  1.00  0.00     0.145 A 
HETATM   18  N2  UNK     1      19.990  -2.185  31.529  1.00  0.00    -0.271 NA
HETATM   19  C15 UNK     1      20.460  -2.569  30.320  1.00  0.00     0.116 A 
HETATM   20  C14 UNK     1      20.675  -1.701  29.260  1.00  0.00     0.021 A 
HETATM   21  C12 UNK     1      20.389  -0.355  29.454  1.00  0.00     0.032 A 
ENDBRANCH  14  16
ENDBRANCH   5  12
TORSDOF 2
ENDMDL
MODEL 6
REMARK VINA RESULT:      -8.3      7.950      9.831
REMARK  2 active torsions:
REMARK  status: ('A' for Active; 'I' for Inactive)
REMARK    1  A    between atoms: C11_16  and  N1_4 
REMARK       I    between atoms: C8_13  and  N1_4 
REMARK    2  A    between atoms: C3_8  and  C8_13 
ROOT
HETATM    1  O1  UNK     1      21.349  -4.517  37.391  1.00  0.00    -0.304 OA
HETATM    2  O2  UNK     1      17.961  -6.776  37.187  1.00  0.00    -0.287 OA
HETATM    3  C1  UNK     1      20.159  -6.537  38.027  1.00  0.00     0.048 A 
HETATM    4  C2  UNK     1      21.287  -5.716  38.055  1.00  0.00     0.090 A 
HETATM    5  C3  UNK     1      20.242  -4.121  36.671  1.00  0.00     0.147 A 
HETATM    6  C4  UNK     1      18.982  -6.106  37.254  1.00  0.00     0.187 A 
HETATM    7  C5  UNK     1      19.098  -4.808  36.559  1.00  0.00     0.098 A 
HETATM    8  C6  UNK     1      20.151  -7.749  38.721  1.00  0.00     0.018 A 
HETATM    9  C7  UNK     1      22.414  -6.104  38.780  1.00  0.00     0.038 A 
HETATM   10  C9  UNK     1      21.280  -8.134  39.446  1.00  0.00     0.001 A 
HETATM   11  C10 UNK     1      22.410  -7.313  39.474  1.00  0.00     0.003 A 
ENDROOT
BRANCH   5  12
HETATM   12  C8  UNK     1      20.328  -2.838  35.970  1.00  0.00     0.280 C 
HETATM   13  O3  UNK     1      21.424  -2.414  35.600  1.00  0.00    -0.265 OA
HETATM   14  N1  UNK     1      19.085  -2.240  35.809  1.00  0.00    -0.320 N 
HETATM   15  H6  UNK     1      18.274  -2.734  36.180  1.00  0.00     0.169 HD
BRANCH  14  16
HETATM   16  C11 UNK     1      18.792  -1.003  35.184  1.00  0.00     0.052 A 
HETATM   17  C13 UNK     1      18.668  -0.931  33.818  1.00  0.00     0.145 A 
HETATM   18  N2  UNK     1      18.389   0.215  33.159  1.00  0.00    -0.271 NA
HETATM   19  C15 UNK     1      18.234   1.322  33.920  1.00  0.00     0.116 A 
HETATM   20  C14 UNK     1      18.344   1.335  35.302  1.00  0.00     0.021 A 
HETATM   21  C12 UNK     1      18.630   0.136  35.943  1.00  0.00     0.032 A 
ENDBRANCH  14  16
ENDBRANCH   5  12
TORSDOF 2
ENDMDL
MODEL 7
REMARK VINA RESULT:      -8.2      2.401      7.628
REMARK  2 active torsions:
REMARK  status: ('A' for Active; 'I' for Inactive)
REMARK    1  A    between atoms: C11_16  and  N1_4 
REMARK       I    between atoms: C8_13  and  N1_4 
REMARK    2  A    between atoms: C3_8  and  C8_13 
ROOT
HETATM    1  O1  UNK     1      16.963   6.077  31.939  1.00  0.00    -0.304 OA
HETATM    2  O2  UNK     1      19.054   7.657  35.063  1.00  0.00    -0.287 OA
HETATM    3  C1  UNK     1      17.009   7.535  33.882  1.00  0.00     0.048 A 
HETATM    4  C2  UNK     1      16.351   6.959  32.794  1.00  0.00     0.090 A 
HETATM    5  C3  UNK     1      18.284   5.759  32.179  1.00  0.00     0.147 A 
HETATM    6  C4  UNK     1      18.418   7.189  34.129  1.00  0.00     0.187 A 
HETATM    7  C5  UNK     1      19.032   6.236  33.181  1.00  0.00     0.098 A 
HETATM    8  C6  UNK     1      16.336   8.428  34.720  1.00  0.00     0.018 A 
HETATM    9  C7  UNK     1      15.016   7.272  32.540  1.00  0.00     0.038 A 
HETATM   10  C9  UNK     1      15.000   8.739  34.463  1.00  0.00     0.001 A 
HETATM   11  C10 UNK     1      14.342   8.162  33.375  1.00  0.00     0.003 A 
ENDROOT
BRANCH   5  12
HETATM   12  C8  UNK     1      18.918   4.816  31.255  1.00  0.00     0.280 C 
HETATM   13  O3  UNK     1      19.945   5.139  30.658  1.00  0.00    -0.265 OA
HETATM   14  N1  UNK     1      18.229   3.612  31.175  1.00  0.00    -0.320 N 
HETATM   15  H6  UNK     1      17.389   3.512  31.742  1.00  0.00     0.169 HD
BRANCH  14  16
HETATM   16  C11 UNK     1      18.551   2.480  30.386  1.00  0.00     0.052 A 
HETATM   17  C13 UNK     1      18.128   2.405  29.081  1.00  0.00     0.145 A 
HETATM   18  N2  UNK     1      18.400   1.355  28.275  1.00  0.00    -0.271 NA
HETATM   19  C15 UNK     1      19.125   0.352  28.819  1.00  0.00     0.116 A 
HETATM   20  C14 UNK     1      19.588   0.350  30.126  1.00  0.00     0.021 A 
HETATM   21  C12 UNK     1      19.288   1.448  30.923  1.00  0.00     0.032 A 
ENDBRANCH  14  16
ENDBRANCH   5  12
TORSDOF 2
ENDMDL
MODEL 8
REMARK VINA RESULT:      -8.1      2.007      7.408
REMARK  2 active torsions:
REMARK  status: ('A' for Active; 'I' for Inactive)
REMARK    1  A    between atoms: C11_16  and  N1_4 
REMARK       I    between atoms: C8_13  and  N1_4 
REMARK    2  A    between atoms: C3_8  and  C8_13 
ROOT
HETATM    1  O1  UNK     1      19.088   6.114  33.122  1.00  0.00    -0.304 OA
HETATM    2  O2  UNK     1      15.633   8.165  32.429  1.00  0.00    -0.287 OA
HETATM    3  C1  UNK     1      17.850   8.200  33.252  1.00  0.00     0.048 A 
HETATM    4  C2  UNK     1      19.002   7.441  33.462  1.00  0.00     0.090 A 
HETATM    5  C3  UNK     1      17.982   5.522  32.551  1.00  0.00     0.147 A 
HETATM    6  C4  UNK     1      16.673   7.558  32.642  1.00  0.00     0.187 A 
HETATM    7  C5  UNK     1      16.817   6.129  32.294  1.00  0.00     0.098 A 
HETATM    8  C6  UNK     1      17.817   9.548  33.618  1.00  0.00     0.018 A 
HETATM    9  C7  UNK     1      20.128   8.027  34.039  1.00  0.00     0.038 A 
HETATM   10  C9  UNK     1      18.946  10.132  34.194  1.00  0.00     0.001 A 
HETATM   11  C10 UNK     1      20.099   9.372  34.405  1.00  0.00     0.003 A 
ENDROOT
BRANCH   5  12
HETATM   12  C8  UNK     1      18.095   4.105  32.196  1.00  0.00     0.280 C 
HETATM   13  O3  UNK     1      17.863   3.241  33.042  1.00  0.00    -0.265 OA
HETATM   14  N1  UNK     1      18.471   3.923  30.871  1.00  0.00    -0.320 N 
HETATM   15  H6  UNK     1      18.623   4.756  30.306  1.00  0.00     0.169 HD
BRANCH  14  16
HETATM   16  C11 UNK     1      18.677   2.698  30.189  1.00  0.00     0.052 A 
HETATM   17  C13 UNK     1      18.169   2.516  28.926  1.00  0.00     0.145 A 
HETATM   18  N2  UNK     1      18.328   1.375  28.221  1.00  0.00    -0.271 NA
HETATM   19  C15 UNK     1      19.028   0.389  28.826  1.00  0.00     0.116 A 
HETATM   20  C14 UNK     1      19.572   0.491  30.096  1.00  0.00     0.021 A 
HETATM   21  C12 UNK     1      19.387   1.681  30.789  1.00  0.00     0.032 A 
ENDBRANCH  14  16
ENDBRANCH   5  12
TORSDOF 2
ENDMDL
MODEL 9
REMARK VINA RESULT:      -8.1     13.834     17.451
REMARK  2 active torsions:
REMARK  status: ('A' for Active; 'I' for Inactive)
REMARK    1  A    between atoms: C11_16  and  N1_4 
REMARK       I    between atoms: C8_13  and  N1_4 
REMARK    2  A    between atoms: C3_8  and  C8_13 
ROOT
HETATM    1  O1  UNK     1      19.166   0.627  16.046  1.00  0.00    -0.304 OA
HETATM    2  O2  UNK     1      18.741  -0.546  19.928  1.00  0.00    -0.287 OA
HETATM    3  C1  UNK     1      19.181   1.209  18.405  1.00  0.00     0.048 A 
HETATM    4  C2  UNK     1      19.314   1.544  17.057  1.00  0.00     0.090 A 
HETATM    5  C3  UNK     1      18.875  -0.675  16.395  1.00  0.00     0.147 A 
HETATM    6  C4  UNK     1      18.871  -0.185  18.766  1.00  0.00     0.187 A 
HETATM    7  C5  UNK     1      18.721  -1.132  17.643  1.00  0.00     0.098 A 
HETATM    8  C6  UNK     1      19.343   2.183  19.393  1.00  0.00     0.018 A 
HETATM    9  C7  UNK     1      19.608   2.856  16.690  1.00  0.00     0.038 A 
HETATM   10  C9  UNK     1      19.637   3.496  19.022  1.00  0.00     0.001 A 
HETATM   11  C10 UNK     1      19.770   3.832  17.673  1.00  0.00     0.003 A 
ENDROOT
BRANCH   5  12
HETATM   12  C8  UNK     1      18.721  -1.637  15.301  1.00  0.00     0.280 C 
HETATM   13  O3  UNK     1      17.961  -2.597  15.431  1.00  0.00    -0.265 OA
HETATM   14  N1  UNK     1      19.502  -1.312  14.200  1.00  0.00    -0.320 N 
HETATM   15  H6  UNK     1      20.078  -0.474  14.262  1.00  0.00     0.169 HD
BRANCH  14  16
HETATM   16  C11 UNK     1      19.606  -2.013  12.972  1.00  0.00     0.052 A 
HETATM   17  C13 UNK     1      19.114  -1.458  11.816  1.00  0.00     0.145 A 
HETATM   18  N2  UNK     1      19.180  -2.072  10.614  1.00  0.00    -0.271 NA
HETATM   19  C15 UNK     1      19.766  -3.291  10.594  1.00  0.00     0.116 A 
HETATM   20  C14 UNK     1      20.286  -3.920  11.714  1.00  0.00     0.021 A 
HETATM   21  C12 UNK     1      20.199  -3.256  12.932  1.00  0.00     0.032 A 
ENDBRANCH  14  16
ENDBRANCH   5  12
TORSDOF 2
ENDMDL
MODEL 10
REMARK VINA RESULT:      -8.1      8.488     11.499
REMARK  2 active torsions:
REMARK  status: ('A' for Active; 'I' for Inactive)
REMARK    1  A    between atoms: C11_16  and  N1_4 
REMARK       I    between atoms: C8_13  and  N1_4 
REMARK    2  A    between atoms: C3_8  and  C8_13 
ROOT
HETATM    1  O1  UNK     1      19.034  -2.426  37.447  1.00  0.00    -0.304 OA
HETATM    2  O2  UNK     1      19.685  -1.303  33.582  1.00  0.00    -0.287 OA
HETATM    3  C1  UNK     1      18.729  -0.785  35.681  1.00  0.00     0.048 A 
HETATM    4  C2  UNK     1      18.541  -1.229  36.991  1.00  0.00     0.090 A 
HETATM    5  C3  UNK     1      19.741  -3.211  36.561  1.00  0.00     0.147 A 
HETATM    6  C4  UNK     1      19.484  -1.631  34.743  1.00  0.00     0.187 A 
HETATM    7  C5  UNK     1      19.994  -2.909  35.282  1.00  0.00     0.098 A 
HETATM    8  C6  UNK     1      18.204   0.443  35.271  1.00  0.00     0.018 A 
HETATM    9  C7  UNK     1      17.829  -0.445  37.898  1.00  0.00     0.038 A 
HETATM   10  C9  UNK     1      17.492   1.225  36.181  1.00  0.00     0.001 A 
HETATM   11  C10 UNK     1      17.304   0.782  37.492  1.00  0.00     0.003 A 
ENDROOT
BRANCH   5  12
HETATM   12  C8  UNK     1      20.257  -4.484  37.067  1.00  0.00     0.280 C 
HETATM   13  O3  UNK     1      21.471  -4.647  37.194  1.00  0.00    -0.265 OA
HETATM   14  N1  UNK     1      19.242  -5.389  37.353  1.00  0.00    -0.320 N 
HETATM   15  H6  UNK     1      18.284  -5.088  37.188  1.00  0.00     0.169 HD
BRANCH  14  16
HETATM   16  C11 UNK     1      19.372  -6.708  37.854  1.00  0.00     0.052 A 
HETATM   17  C13 UNK     1      18.963  -7.778  37.096  1.00  0.00     0.145 A 
HETATM   18  N2  UNK     1      19.058  -9.060  37.513  1.00  0.00    -0.271 NA
HETATM   19  C15 UNK     1      19.587  -9.253  38.743  1.00  0.00     0.116 A 
HETATM   20  C14 UNK     1      20.022  -8.229  39.570  1.00  0.00     0.021 A 
HETATM   21  C12 UNK     1      19.908  -6.925  39.104  1.00  0.00     0.032 A 
ENDBRANCH  14  16
ENDBRANCH   5  12
TORSDOF 2
ENDMDL
