MODEL 1
REMARK VINA RESULT:      -8.7      0.000      0.000
REMARK  3 active torsions:
REMARK  status: ('A' for Active; 'I' for Inactive)
REMARK    1  A    between atoms: C1_4  and  C3_6 
REMARK    2  A    between atoms: C2_5  and  C4_7 
REMARK    3  A    between atoms: C3_6  and  C5_8 
ROOT
HETATM    1  O1  UNK     1      17.977   2.516  28.233  1.00  0.00    -0.288 OA
HETATM    2  C3  UNK     1      18.450   2.252  29.338  1.00  0.00     0.182 C 
ENDROOT
BRANCH   2   3
HETATM    3  C1  UNK     1      19.069   0.954  29.637  1.00  0.00     0.014 A 
HETATM    4  C6  UNK     1      19.258   0.575  30.958  1.00  0.00     0.017 A 
HETATM    5  C10 UNK     1      19.845  -0.657  31.242  1.00  0.00     0.025 A 
HETATM    6  C14 UNK     1      20.238  -1.499  30.200  1.00  0.00     0.034 A 
HETATM    7  C11 UNK     1      20.042  -1.108  28.876  1.00  0.00     0.025 A 
HETATM    8 Cl1  UNK     1      20.961  -3.020  30.549  1.00  0.00    -0.084 Cl
HETATM    9  C7  UNK     1      19.454   0.126  28.593  1.00  0.00     0.017 A 
ENDBRANCH   2   3
BRANCH   2  10
HETATM   10  C5  UNK     1      18.437   3.298  30.414  1.00  0.00     0.056 C 
HETATM   11  C4  UNK     1      19.163   4.402  30.262  1.00  0.00     0.015 C 
BRANCH  11  12
HETATM   12  C2  UNK     1      19.223   5.448  31.270  1.00  0.00    -0.036 A 
HETATM   13  C8  UNK     1      18.067   6.144  31.623  1.00  0.00     0.012 A 
HETATM   14  C12 UNK     1      18.124   7.147  32.590  1.00  0.00     0.020 A 
HETATM   15  C15 UNK     1      19.339   7.455  33.205  1.00  0.00     0.011 A 
HETATM   16 Br1  UNK     1      19.416   8.814  34.516  1.00  0.00    -0.051 Br
HETATM   17  C13 UNK     1      20.495   6.759  32.852  1.00  0.00     0.020 A 
HETATM   18  C9  UNK     1      20.437   5.756  31.884  1.00  0.00     0.012 A 
ENDBRANCH  11  12
ENDBRANCH   2  10
TORSDOF 3
ENDMDL
MODEL 2
REMARK VINA RESULT:      -7.4      4.514      7.729
REMARK  3 active torsions:
REMARK  status: ('A' for Active; 'I' for Inactive)
REMARK    1  A    between atoms: C1_4  and  C3_6 
REMARK    2  A    between atoms: C2_5  and  C4_7 
REMARK    3  A    between atoms: C3_6  and  C5_8 
ROOT
HETATM    1  O1  UNK     1      16.363   5.555  32.017  1.00  0.00    -0.288 OA
HETATM    2  C3  UNK     1      17.544   5.384  32.320  1.00  0.00     0.182 C 
ENDROOT
BRANCH   2   3
HETATM    3  C1  UNK     1      18.366   6.452  32.904  1.00  0.00     0.014 A 
HETATM    4  C6  UNK     1      19.747   6.320  32.920  1.00  0.00     0.017 A 
HETATM    5  C10 UNK     1      20.527   7.334  33.474  1.00  0.00     0.025 A 
HETATM    6  C14 UNK     1      19.918   8.470  34.008  1.00  0.00     0.034 A 
HETATM    7  C11 UNK     1      18.529   8.592  33.987  1.00  0.00     0.025 A 
HETATM    8 Cl1  UNK     1      20.880   9.722  34.692  1.00  0.00    -0.084 Cl
HETATM    9  C7  UNK     1      17.749   7.577  33.431  1.00  0.00     0.017 A 
ENDBRANCH   2   3
BRANCH   2  10
HETATM   10  C5  UNK     1      18.166   4.032  32.128  1.00  0.00     0.056 C 
HETATM   11  C4  UNK     1      18.146   3.469  30.923  1.00  0.00     0.015 C 
BRANCH  11  12
HETATM   12  C2  UNK     1      18.704   2.152  30.662  1.00  0.00    -0.036 A 
HETATM   13  C8  UNK     1      18.957   1.747  29.351  1.00  0.00     0.012 A 
HETATM   14  C12 UNK     1      19.493   0.484  29.102  1.00  0.00     0.020 A 
HETATM   15  C15 UNK     1      19.775  -0.376  30.164  1.00  0.00     0.011 A 
HETATM   16 Br1  UNK     1      20.502  -2.088  29.825  1.00  0.00    -0.051 Br
HETATM   17  C13 UNK     1      19.523   0.028  31.475  1.00  0.00     0.020 A 
HETATM   18  C9  UNK     1      18.987   1.292  31.724  1.00  0.00     0.012 A 
ENDBRANCH  11  12
ENDBRANCH   2  10
TORSDOF 3
ENDMDL
MODEL 3
REMARK VINA RESULT:      -7.2      3.905      4.788
REMARK  3 active torsions:
REMARK  status: ('A' for Active; 'I' for Inactive)
REMARK    1  A    between atoms: C1_4  and  C3_6 
REMARK    2  A    between atoms: C2_5  and  C4_7 
REMARK    3  A    between atoms: C3_6  and  C5_8 
ROOT
HETATM    1  O1  UNK     1      17.916   2.293  32.336  1.00  0.00    -0.288 OA
HETATM    2  C3  UNK     1      18.091   2.605  33.513  1.00  0.00     0.182 C 
ENDROOT
BRANCH   2   3
HETATM    3  C1  UNK     1      18.125   1.609  34.592  1.00  0.00     0.014 A 
HETATM    4  C6  UNK     1      18.263   0.264  34.276  1.00  0.00     0.017 A 
HETATM    5  C10 UNK     1      18.295  -0.681  35.300  1.00  0.00     0.025 A 
HETATM    6  C14 UNK     1      18.189  -0.273  36.630  1.00  0.00     0.034 A 
HETATM    7  C11 UNK     1      18.051   1.080  36.935  1.00  0.00     0.025 A 
HETATM    8 Cl1  UNK     1      18.229  -1.440  37.894  1.00  0.00    -0.084 Cl
HETATM    9  C7  UNK     1      18.019   2.026  35.910  1.00  0.00     0.017 A 
ENDBRANCH   2   3
BRANCH   2  10
HETATM   10  C5  UNK     1      18.318   4.045  33.868  1.00  0.00     0.056 C 
HETATM   11  C4  UNK     1      17.946   4.996  33.014  1.00  0.00     0.015 C 
BRANCH  11  12
HETATM   12  C2  UNK     1      18.155   6.411  33.274  1.00  0.00    -0.036 A 
HETATM   13  C8  UNK     1      19.335   6.842  33.879  1.00  0.00     0.012 A 
HETATM   14  C12 UNK     1      19.535   8.200  34.129  1.00  0.00     0.020 A 
HETATM   15  C15 UNK     1      18.555   9.126  33.772  1.00  0.00     0.011 A 
HETATM   16 Br1  UNK     1      18.827  10.967  34.109  1.00  0.00    -0.051 Br
HETATM   17  C13 UNK     1      17.375   8.695  33.166  1.00  0.00     0.020 A 
HETATM   18  C9  UNK     1      17.174   7.337  32.917  1.00  0.00     0.012 A 
ENDBRANCH  11  12
ENDBRANCH   2  10
TORSDOF 3
ENDMDL
MODEL 4
REMARK VINA RESULT:      -7.2      1.160      1.740
REMARK  3 active torsions:
REMARK  status: ('A' for Active; 'I' for Inactive)
REMARK    1  A    between atoms: C1_4  and  C3_6 
REMARK    2  A    between atoms: C2_5  and  C4_7 
REMARK    3  A    between atoms: C3_6  and  C5_8 
ROOT
HETATM    1  O1  UNK     1      16.858   2.685  30.541  1.00  0.00    -0.288 OA
HETATM    2  C3  UNK     1      18.054   2.592  30.816  1.00  0.00     0.182 C 
ENDROOT
BRANCH   2   3
HETATM    3  C1  UNK     1      18.829   1.374  30.543  1.00  0.00     0.014 A 
HETATM    4  C6  UNK     1      19.170   0.532  31.592  1.00  0.00     0.017 A 
HETATM    5  C10 UNK     1      19.905  -0.624  31.332  1.00  0.00     0.025 A 
HETATM    6  C14 UNK     1      20.292  -0.926  30.027  1.00  0.00     0.034 A 
HETATM    7  C11 UNK     1      19.944  -0.073  28.980  1.00  0.00     0.025 A 
HETATM    8 Cl1  UNK     1      21.199  -2.353  29.706  1.00  0.00    -0.084 Cl
HETATM    9  C7  UNK     1      19.207   1.084  29.240  1.00  0.00     0.017 A 
ENDBRANCH   2   3
BRANCH   2  10
HETATM   10  C5  UNK     1      18.768   3.769  31.413  1.00  0.00     0.056 C 
HETATM   11  C4  UNK     1      18.077   4.665  32.114  1.00  0.00     0.015 C 
BRANCH  11  12
HETATM   12  C2  UNK     1      18.691   5.845  32.702  1.00  0.00    -0.036 A 
HETATM   13  C8  UNK     1      20.073   6.019  32.635  1.00  0.00     0.012 A 
HETATM   14  C12 UNK     1      20.662   7.150  33.200  1.00  0.00     0.020 A 
HETATM   15  C15 UNK     1      19.868   8.109  33.830  1.00  0.00     0.011 A 
HETATM   16 Br1  UNK     1      20.667   9.643  34.594  1.00  0.00    -0.051 Br
HETATM   17  C13 UNK     1      18.486   7.936  33.896  1.00  0.00     0.020 A 
HETATM   18  C9  UNK     1      17.897   6.804  33.332  1.00  0.00     0.012 A 
ENDBRANCH  11  12
ENDBRANCH   2  10
TORSDOF 3
ENDMDL
MODEL 5
REMARK VINA RESULT:      -7.1      8.650     11.725
REMARK  3 active torsions:
REMARK  status: ('A' for Active; 'I' for Inactive)
REMARK    1  A    between atoms: C1_4  and  C3_6 
REMARK    2  A    between atoms: C2_5  and  C4_7 
REMARK    3  A    between atoms: C3_6  and  C5_8 
ROOT
HETATM    1  O1  UNK     1      21.536  -1.999  35.690  1.00  0.00    -0.288 OA
HETATM    2  C3  UNK     1      20.500  -2.438  36.187  1.00  0.00     0.182 C 
ENDROOT
BRANCH   2   3
HETATM    3  C1  UNK     1      19.239  -1.683  36.166  1.00  0.00     0.014 A 
HETATM    4  C6  UNK     1      18.776  -1.161  34.967  1.00  0.00     0.017 A 
HETATM    5  C10 UNK     1      17.580  -0.445  34.947  1.00  0.00     0.025 A 
HETATM    6  C14 UNK     1      16.860  -0.257  36.127  1.00  0.00     0.034 A 
HETATM    7  C11 UNK     1      17.336  -0.786  37.326  1.00  0.00     0.025 A 
HETATM    8 Cl1  UNK     1      15.384   0.627  36.103  1.00  0.00    -0.084 Cl
HETATM    9  C7  UNK     1      18.532  -1.504  37.346  1.00  0.00     0.017 A 
ENDBRANCH   2   3
BRANCH   2  10
HETATM   10  C5  UNK     1      20.499  -3.806  36.803  1.00  0.00     0.056 C 
HETATM   11  C4  UNK     1      19.744  -4.763  36.270  1.00  0.00     0.015 C 
BRANCH  11  12
HETATM   12  C2  UNK     1      19.669  -6.105  36.825  1.00  0.00    -0.036 A 
HETATM   13  C8  UNK     1      20.005  -6.328  38.160  1.00  0.00     0.012 A 
HETATM   14  C12 UNK     1      19.934  -7.616  38.692  1.00  0.00     0.020 A 
HETATM   15  C15 UNK     1      19.526  -8.681  37.888  1.00  0.00     0.011 A 
HETATM   16 Br1  UNK     1      19.428 -10.425  38.609  1.00  0.00    -0.051 Br
HETATM   17  C13 UNK     1      19.189  -8.458  36.553  1.00  0.00     0.020 A 
HETATM   18  C9  UNK     1      19.261  -7.170  36.021  1.00  0.00     0.012 A 
ENDBRANCH  11  12
ENDBRANCH   2  10
TORSDOF 3
ENDMDL
MODEL 6
REMARK VINA RESULT:      -7.1      4.357      7.451
REMARK  3 active torsions:
REMARK  status: ('A' for Active; 'I' for Inactive)
REMARK    1  A    between atoms: C1_4  and  C3_6 
REMARK    2  A    between atoms: C2_5  and  C4_7 
REMARK    3  A    between atoms: C3_6  and  C5_8 
ROOT
HETATM    1  O1  UNK     1      18.699   6.327  29.441  1.00  0.00    -0.288 OA
HETATM    2  C3  UNK     1      18.773   5.696  30.495  1.00  0.00     0.182 C 
ENDROOT
BRANCH   2   3
HETATM    3  C1  UNK     1      18.289   6.240  31.771  1.00  0.00     0.014 A 
HETATM    4  C6  UNK     1      19.204   6.691  32.712  1.00  0.00     0.017 A 
HETATM    5  C10 UNK     1      18.744   7.208  33.923  1.00  0.00     0.025 A 
HETATM    6  C14 UNK     1      17.374   7.268  34.180  1.00  0.00     0.034 A 
HETATM    7  C11 UNK     1      16.464   6.812  33.227  1.00  0.00     0.025 A 
HETATM    8 Cl1  UNK     1      16.806   7.906  35.674  1.00  0.00    -0.084 Cl
HETATM    9  C7  UNK     1      16.925   6.295  32.015  1.00  0.00     0.017 A 
ENDBRANCH   2   3
BRANCH   2  10
HETATM   10  C5  UNK     1      19.339   4.306  30.484  1.00  0.00     0.056 C 
HETATM   11  C4  UNK     1      18.520   3.268  30.335  1.00  0.00     0.015 C 
BRANCH  11  12
HETATM   12  C2  UNK     1      18.988   1.891  30.340  1.00  0.00    -0.036 A 
HETATM   13  C8  UNK     1      19.070   1.187  31.541  1.00  0.00     0.012 A 
HETATM   14  C12 UNK     1      19.520  -0.134  31.546  1.00  0.00     0.020 A 
HETATM   15  C15 UNK     1      19.887  -0.750  30.349  1.00  0.00     0.011 A 
HETATM   16 Br1  UNK     1      20.495  -2.540  30.356  1.00  0.00    -0.051 Br
HETATM   17  C13 UNK     1      19.805  -0.045  29.148  1.00  0.00     0.020 A 
HETATM   18  C9  UNK     1      19.356   1.275  29.144  1.00  0.00     0.012 A 
ENDBRANCH  11  12
ENDBRANCH   2  10
TORSDOF 3
ENDMDL
MODEL 7
REMARK VINA RESULT:      -7.0      5.482      8.881
REMARK  3 active torsions:
REMARK  status: ('A' for Active; 'I' for Inactive)
REMARK    1  A    between atoms: C1_4  and  C3_6 
REMARK    2  A    between atoms: C2_5  and  C4_7 
REMARK    3  A    between atoms: C3_6  and  C5_8 
ROOT
HETATM    1  O1  UNK     1      20.346   9.001  34.563  1.00  0.00    -0.288 OA
HETATM    2  C3  UNK     1      19.295   8.502  34.163  1.00  0.00     0.182 C 
ENDROOT
BRANCH   2   3
HETATM    3  C1  UNK     1      18.002   9.189  34.290  1.00  0.00     0.014 A 
HETATM    4  C6  UNK     1      17.918  10.544  34.003  1.00  0.00     0.017 A 
HETATM    5  C10 UNK     1      16.692  11.196  34.124  1.00  0.00     0.025 A 
HETATM    6  C14 UNK     1      15.562  10.486  34.531  1.00  0.00     0.034 A 
HETATM    7  C11 UNK     1      15.659   9.125  34.817  1.00  0.00     0.025 A 
HETATM    8 Cl1  UNK     1      14.048  11.290  34.680  1.00  0.00    -0.084 Cl
HETATM    9  C7  UNK     1      16.886   8.472  34.695  1.00  0.00     0.017 A 
ENDBRANCH   2   3
BRANCH   2  10
HETATM   10  C5  UNK     1      19.325   7.164  33.485  1.00  0.00     0.056 C 
HETATM   11  C4  UNK     1      18.731   7.016  32.303  1.00  0.00     0.015 C 
BRANCH  11  12
HETATM   12  C2  UNK     1      18.695   5.746  31.595  1.00  0.00    -0.036 A 
HETATM   13  C8  UNK     1      18.242   4.598  32.245  1.00  0.00     0.012 A 
HETATM   14  C12 UNK     1      18.207   3.380  31.567  1.00  0.00     0.020 A 
HETATM   15  C15 UNK     1      18.625   3.310  30.237  1.00  0.00     0.011 A 
HETATM   16 Br1  UNK     1      18.577   1.659  29.318  1.00  0.00    -0.051 Br
HETATM   17  C13 UNK     1      19.078   4.458  29.587  1.00  0.00     0.020 A 
HETATM   18  C9  UNK     1      19.113   5.676  30.266  1.00  0.00     0.012 A 
ENDBRANCH  11  12
ENDBRANCH   2  10
TORSDOF 3
ENDMDL
MODEL 8
REMARK VINA RESULT:      -6.9      7.527     10.408
REMARK  3 active torsions:
REMARK  status: ('A' for Active; 'I' for Inactive)
REMARK    1  A    between atoms: C1_4  and  C3_6 
REMARK    2  A    between atoms: C2_5  and  C4_7 
REMARK    3  A    between atoms: C3_6  and  C5_8 
ROOT
HETATM    1  O1  UNK     1      18.587  -1.132  36.087  1.00  0.00    -0.288 OA
HETATM    2  C3  UNK     1      19.363  -1.905  35.525  1.00  0.00     0.182 C 
ENDROOT
BRANCH   2   3
HETATM    3  C1  UNK     1      19.613  -1.848  34.078  1.00  0.00     0.014 A 
HETATM    4  C6  UNK     1      20.656  -2.587  33.536  1.00  0.00     0.017 A 
HETATM    5  C10 UNK     1      20.894  -2.533  32.163  1.00  0.00     0.025 A 
HETATM    6  C14 UNK     1      20.088  -1.740  31.346  1.00  0.00     0.034 A 
HETATM    7  C11 UNK     1      19.043  -1.002  31.902  1.00  0.00     0.025 A 
HETATM    8 Cl1  UNK     1      20.380  -1.674  29.652  1.00  0.00    -0.084 Cl
HETATM    9  C7  UNK     1      18.805  -1.057  33.276  1.00  0.00     0.017 A 
ENDBRANCH   2   3
BRANCH   2  10
HETATM   10  C5  UNK     1      20.114  -2.918  36.337  1.00  0.00     0.056 C 
HETATM   11  C4  UNK     1      19.556  -4.100  36.586  1.00  0.00     0.015 C 
BRANCH  11  12
HETATM   12  C2  UNK     1      20.208  -5.123  37.386  1.00  0.00    -0.036 A 
HETATM   13  C8  UNK     1      21.529  -4.950  37.800  1.00  0.00     0.012 A 
HETATM   14  C12 UNK     1      22.155  -5.931  38.567  1.00  0.00     0.020 A 
HETATM   15  C15 UNK     1      21.460  -7.088  38.923  1.00  0.00     0.011 A 
HETATM   16 Br1  UNK     1      22.308  -8.418  39.964  1.00  0.00    -0.051 Br
HETATM   17  C13 UNK     1      20.139  -7.262  38.510  1.00  0.00     0.020 A 
HETATM   18  C9  UNK     1      19.513  -6.280  37.741  1.00  0.00     0.012 A 
ENDBRANCH  11  12
ENDBRANCH   2  10
TORSDOF 3
ENDMDL
MODEL 9
REMARK VINA RESULT:      -6.9      8.715     10.625
REMARK  3 active torsions:
REMARK  status: ('A' for Active; 'I' for Inactive)
REMARK    1  A    between atoms: C1_4  and  C3_6 
REMARK    2  A    between atoms: C2_5  and  C4_7 
REMARK    3  A    between atoms: C3_6  and  C5_8 
ROOT
HETATM    1  O1  UNK     1      22.421  -5.246  37.948  1.00  0.00    -0.288 OA
HETATM    2  C3  UNK     1      21.295  -5.623  37.622  1.00  0.00     0.182 C 
ENDROOT
BRANCH   2   3
HETATM    3  C1  UNK     1      20.819  -6.988  37.885  1.00  0.00     0.014 A 
HETATM    4  C6  UNK     1      20.243  -7.285  39.113  1.00  0.00     0.017 A 
HETATM    5  C10 UNK     1      19.791  -8.580  39.363  1.00  0.00     0.025 A 
HETATM    6  C14 UNK     1      19.919  -9.565  38.383  1.00  0.00     0.034 A 
HETATM    7  C11 UNK     1      20.500  -9.254  37.154  1.00  0.00     0.025 A 
HETATM    8 Cl1  UNK     1      19.361 -11.163  38.690  1.00  0.00    -0.084 Cl
HETATM    9  C7  UNK     1      20.952  -7.958  36.904  1.00  0.00     0.017 A 
ENDBRANCH   2   3
BRANCH   2  10
HETATM   10  C5  UNK     1      20.355  -4.655  36.968  1.00  0.00     0.056 C 
HETATM   11  C4  UNK     1      20.323  -3.391  37.383  1.00  0.00     0.015 C 
BRANCH  11  12
HETATM   12  C2  UNK     1      19.422  -2.401  36.817  1.00  0.00    -0.036 A 
HETATM   13  C8  UNK     1      18.418  -1.839  37.607  1.00  0.00     0.012 A 
HETATM   14  C12 UNK     1      17.553  -0.889  37.064  1.00  0.00     0.020 A 
HETATM   15  C15 UNK     1      17.692  -0.500  35.731  1.00  0.00     0.011 A 
HETATM   16 Br1  UNK     1      16.520   0.788  34.996  1.00  0.00    -0.051 Br
HETATM   17  C13 UNK     1      18.696  -1.061  34.942  1.00  0.00     0.020 A 
HETATM   18  C9  UNK     1      19.561  -2.012  35.485  1.00  0.00     0.012 A 
ENDBRANCH  11  12
ENDBRANCH   2  10
TORSDOF 3
ENDMDL
MODEL 10
REMARK VINA RESULT:      -6.8      5.392      8.131
REMARK  3 active torsions:
REMARK  status: ('A' for Active; 'I' for Inactive)
REMARK    1  A    between atoms: C1_4  and  C3_6 
REMARK    2  A    between atoms: C2_5  and  C4_7 
REMARK    3  A    between atoms: C3_6  and  C5_8 
ROOT
HETATM    1  O1  UNK     1      18.257   4.762  31.493  1.00  0.00    -0.288 OA
HETATM    2  C3  UNK     1      18.329   5.132  32.665  1.00  0.00     0.182 C 
ENDROOT
BRANCH   2   3
HETATM    3  C1  UNK     1      18.376   6.553  33.037  1.00  0.00     0.014 A 
HETATM    4  C6  UNK     1      19.466   7.038  33.745  1.00  0.00     0.017 A 
HETATM    5  C10 UNK     1      19.510   8.386  34.098  1.00  0.00     0.025 A 
HETATM    6  C14 UNK     1      18.463   9.235  33.740  1.00  0.00     0.034 A 
HETATM    7  C11 UNK     1      17.372   8.737  33.028  1.00  0.00     0.025 A 
HETATM    8 Cl1  UNK     1      18.516  10.899  34.175  1.00  0.00    -0.084 Cl
HETATM    9  C7  UNK     1      17.329   7.387  32.674  1.00  0.00     0.017 A 
ENDBRANCH   2   3
BRANCH   2  10
HETATM   10  C5  UNK     1      18.332   4.109  33.762  1.00  0.00     0.056 C 
HETATM   11  C4  UNK     1      18.242   2.818  33.453  1.00  0.00     0.015 C 
BRANCH  11  12
HETATM   12  C2  UNK     1      18.211   1.770  34.460  1.00  0.00    -0.036 A 
HETATM   13  C8  UNK     1      18.251   0.430  34.074  1.00  0.00     0.012 A 
HETATM   14  C12 UNK     1      18.221  -0.576  35.039  1.00  0.00     0.020 A 
HETATM   15  C15 UNK     1      18.154  -0.241  36.392  1.00  0.00     0.011 A 
HETATM   16 Br1  UNK     1      18.115  -1.605  37.701  1.00  0.00    -0.051 Br
HETATM   17  C13 UNK     1      18.115   1.098  36.779  1.00  0.00     0.020 A 
HETATM   18  C9  UNK     1      18.144   2.104  35.813  1.00  0.00     0.012 A 
ENDBRANCH  11  12
ENDBRANCH   2  10
TORSDOF 3
ENDMDL
