MODEL 1
REMARK VINA RESULT:      -8.4      0.000      0.000
REMARK  2 active torsions:
REMARK  status: ('A' for Active; 'I' for Inactive)
REMARK    1  A    between atoms: C7_10  and  O2_2 
REMARK    2  A    between atoms: C1_4  and  C2_5 
ROOT
HETATM    1  O1  UNK     1      19.021  -0.022  32.844  1.00  0.00    -0.309 OA
HETATM    2  O3  UNK     1      18.554   3.007  30.160  1.00  0.00    -0.287 OA
HETATM    3  C1  UNK     1      18.465   1.194  33.210  1.00  0.00     0.093 A 
HETATM    4  C3  UNK     1      19.275   0.794  30.571  1.00  0.00     0.048 A 
HETATM    5  C4  UNK     1      19.407  -0.198  31.540  1.00  0.00     0.090 A 
HETATM    6  C5  UNK     1      18.292   2.228  32.371  1.00  0.00     0.094 A 
HETATM    7  C6  UNK     1      18.694   2.090  30.957  1.00  0.00     0.187 A 
HETATM    8  C9  UNK     1      19.687   0.558  29.257  1.00  0.00     0.018 A 
HETATM    9  C10 UNK     1      19.956  -1.436  31.200  1.00  0.00     0.038 A 
HETATM   10  C12 UNK     1      20.234  -0.680  28.920  1.00  0.00     0.001 A 
HETATM   11  C13 UNK     1      20.369  -1.675  29.889  1.00  0.00     0.003 A 
ENDROOT
BRANCH   3  12
HETATM   12  C2  UNK     1      18.089   1.278  34.636  1.00  0.00     0.031 A 
HETATM   13  C7  UNK     1      16.928   0.665  35.118  1.00  0.00     0.081 A 
HETATM   14  C11 UNK     1      16.594   0.759  36.469  1.00  0.00     0.038 A 
HETATM   15  C15 UNK     1      17.418   1.466  37.343  1.00  0.00     0.003 A 
HETATM   16  C14 UNK     1      18.577   2.079  36.868  1.00  0.00     0.001 A 
HETATM   17  C8  UNK     1      18.912   1.985  35.517  1.00  0.00     0.017 A 
BRANCH  13  18
HETATM   18  O2  UNK     1      16.105  -0.032  34.283  1.00  0.00    -0.355 OA
HETATM   19  C16 UNK     1      15.938  -1.422  34.552  1.00  0.00     0.210 C 
ENDBRANCH  13  18
ENDBRANCH   3  12
TORSDOF 2
ENDMDL
MODEL 2
REMARK VINA RESULT:      -8.3      1.542      3.233
REMARK  2 active torsions:
REMARK  status: ('A' for Active; 'I' for Inactive)
REMARK    1  A    between atoms: C7_10  and  O2_2 
REMARK    2  A    between atoms: C1_4  and  C2_5 
ROOT
HETATM    1  O1  UNK     1      18.481   0.259  32.497  1.00  0.00    -0.309 OA
HETATM    2  O3  UNK     1      20.867  -3.032  32.763  1.00  0.00    -0.287 OA
HETATM    3  C1  UNK     1      18.558  -0.491  33.661  1.00  0.00     0.093 A 
HETATM    4  C3  UNK     1      20.080  -1.236  31.445  1.00  0.00     0.048 A 
HETATM    5  C4  UNK     1      19.241  -0.123  31.422  1.00  0.00     0.090 A 
HETATM    6  C5  UNK     1      19.322  -1.587  33.804  1.00  0.00     0.094 A 
HETATM    7  C6  UNK     1      20.157  -2.040  32.674  1.00  0.00     0.187 A 
HETATM    8  C9  UNK     1      20.831  -1.577  30.318  1.00  0.00     0.018 A 
HETATM    9  C10 UNK     1      19.149   0.656  30.267  1.00  0.00     0.038 A 
HETATM   10  C12 UNK     1      20.737  -0.797  29.166  1.00  0.00     0.001 A 
HETATM   11  C13 UNK     1      19.898   0.318  29.140  1.00  0.00     0.003 A 
ENDROOT
BRANCH   3  12
HETATM   12  C2  UNK     1      17.696   0.004  34.753  1.00  0.00     0.031 A 
HETATM   13  C7  UNK     1      18.194   0.862  35.738  1.00  0.00     0.081 A 
HETATM   14  C11 UNK     1      17.361   1.316  36.761  1.00  0.00     0.038 A 
HETATM   15  C15 UNK     1      16.026   0.914  36.803  1.00  0.00     0.003 A 
HETATM   16  C14 UNK     1      15.524   0.058  35.822  1.00  0.00     0.001 A 
HETATM   17  C8  UNK     1      16.357  -0.396  34.800  1.00  0.00     0.017 A 
BRANCH  13  18
HETATM   18  O2  UNK     1      19.496   1.270  35.721  1.00  0.00    -0.355 OA
HETATM   19  C16 UNK     1      19.758   2.611  36.127  1.00  0.00     0.210 C 
ENDBRANCH  13  18
ENDBRANCH   3  12
TORSDOF 2
ENDMDL
MODEL 3
REMARK VINA RESULT:      -8.3     23.869     25.950
REMARK  2 active torsions:
REMARK  status: ('A' for Active; 'I' for Inactive)
REMARK    1  A    between atoms: C7_10  and  O2_2 
REMARK    2  A    between atoms: C1_4  and  C2_5 
ROOT
HETATM    1  O1  UNK     1      13.354   7.513   8.529  1.00  0.00    -0.309 OA
HETATM    2  O3  UNK     1      15.424   4.198   9.678  1.00  0.00    -0.287 OA
HETATM    3  C1  UNK     1      12.847   6.237   8.337  1.00  0.00     0.093 A 
HETATM    4  C3  UNK     1      15.338   6.555   9.551  1.00  0.00     0.048 A 
HETATM    5  C4  UNK     1      14.579   7.646   9.132  1.00  0.00     0.090 A 
HETATM    6  C5  UNK     1      13.486   5.109   8.690  1.00  0.00     0.094 A 
HETATM    7  C6  UNK     1      14.809   5.199   9.341  1.00  0.00     0.187 A 
HETATM    8  C9  UNK     1      16.580   6.752  10.160  1.00  0.00     0.018 A 
HETATM    9  C10 UNK     1      15.059   8.943   9.318  1.00  0.00     0.038 A 
HETATM   10  C12 UNK     1      17.058   8.049  10.345  1.00  0.00     0.001 A 
HETATM   11  C13 UNK     1      16.299   9.143   9.926  1.00  0.00     0.003 A 
ENDROOT
BRANCH   3  12
HETATM   12  C2  UNK     1      11.527   6.208   7.676  1.00  0.00     0.031 A 
HETATM   13  C7  UNK     1      10.361   5.931   8.396  1.00  0.00     0.081 A 
HETATM   14  C11 UNK     1       9.125   5.909   7.750  1.00  0.00     0.038 A 
HETATM   15  C15 UNK     1       9.050   6.162   6.380  1.00  0.00     0.003 A 
HETATM   16  C14 UNK     1      10.210   6.439   5.657  1.00  0.00     0.001 A 
HETATM   17  C8  UNK     1      11.446   6.461   6.304  1.00  0.00     0.017 A 
BRANCH  13  18
HETATM   18  O2  UNK     1      10.407   5.679   9.736  1.00  0.00    -0.355 OA
HETATM   19  C16 UNK     1      10.040   4.368  10.160  1.00  0.00     0.210 C 
ENDBRANCH  13  18
ENDBRANCH   3  12
TORSDOF 2
ENDMDL
MODEL 4
REMARK VINA RESULT:      -8.1      1.018      2.123
REMARK  2 active torsions:
REMARK  status: ('A' for Active; 'I' for Inactive)
REMARK    1  A    between atoms: C7_10  and  O2_2 
REMARK    2  A    between atoms: C1_4  and  C2_5 
ROOT
HETATM    1  O1  UNK     1      18.789  -0.386  32.993  1.00  0.00    -0.309 OA
HETATM    2  O3  UNK     1      18.895   2.880  30.560  1.00  0.00    -0.287 OA
HETATM    3  C1  UNK     1      18.251   0.830  33.385  1.00  0.00     0.093 A 
HETATM    4  C3  UNK     1      19.426   0.598  30.866  1.00  0.00     0.048 A 
HETATM    5  C4  UNK     1      19.358  -0.478  31.748  1.00  0.00     0.090 A 
HETATM    6  C5  UNK     1      18.262   1.940  32.628  1.00  0.00     0.094 A 
HETATM    7  C6  UNK     1      18.865   1.893  31.281  1.00  0.00     0.187 A 
HETATM    8  C9  UNK     1      20.018   0.445  29.610  1.00  0.00     0.018 A 
HETATM    9  C10 UNK     1      19.885  -1.717  31.379  1.00  0.00     0.038 A 
HETATM   10  C12 UNK     1      20.543  -0.794  29.243  1.00  0.00     0.001 A 
HETATM   11  C13 UNK     1      20.477  -1.874  30.125  1.00  0.00     0.003 A 
ENDROOT
BRANCH   3  12
HETATM   12  C2  UNK     1      17.670   0.820  34.742  1.00  0.00     0.031 A 
HETATM   13  C7  UNK     1      18.419   1.210  35.856  1.00  0.00     0.081 A 
HETATM   14  C11 UNK     1      17.848   1.192  37.129  1.00  0.00     0.038 A 
HETATM   15  C15 UNK     1      16.525   0.783  37.293  1.00  0.00     0.003 A 
HETATM   16  C14 UNK     1      15.773   0.393  36.185  1.00  0.00     0.001 A 
HETATM   17  C8  UNK     1      16.344   0.411  34.913  1.00  0.00     0.017 A 
BRANCH  13  18
HETATM   18  O2  UNK     1      19.715   1.614  35.723  1.00  0.00    -0.355 OA
HETATM   19  C16 UNK     1      20.034   2.927  36.179  1.00  0.00     0.210 C 
ENDBRANCH  13  18
ENDBRANCH   3  12
TORSDOF 2
ENDMDL
MODEL 5
REMARK VINA RESULT:      -8.0     24.021     26.198
REMARK  2 active torsions:
REMARK  status: ('A' for Active; 'I' for Inactive)
REMARK    1  A    between atoms: C7_10  and  O2_2 
REMARK    2  A    between atoms: C1_4  and  C2_5 
ROOT
HETATM    1  O1  UNK     1      13.328   7.785   8.457  1.00  0.00    -0.309 OA
HETATM    2  O3  UNK     1      15.354   4.437   9.591  1.00  0.00    -0.287 OA
HETATM    3  C1  UNK     1      12.799   6.517   8.272  1.00  0.00     0.093 A 
HETATM    4  C3  UNK     1      15.307   6.795   9.461  1.00  0.00     0.048 A 
HETATM    5  C4  UNK     1      14.561   7.898   9.048  1.00  0.00     0.090 A 
HETATM    6  C5  UNK     1      13.422   5.380   8.620  1.00  0.00     0.094 A 
HETATM    7  C6  UNK     1      14.752   5.448   9.258  1.00  0.00     0.187 A 
HETATM    8  C9  UNK     1      16.558   6.972  10.057  1.00  0.00     0.018 A 
HETATM    9  C10 UNK     1      15.065   9.187   9.228  1.00  0.00     0.038 A 
HETATM   10  C12 UNK     1      17.058   8.261  10.236  1.00  0.00     0.001 A 
HETATM   11  C13 UNK     1      16.314   9.367   9.823  1.00  0.00     0.003 A 
ENDROOT
BRANCH   3  12
HETATM   12  C2  UNK     1      11.472   6.509   7.624  1.00  0.00     0.031 A 
HETATM   13  C7  UNK     1      10.340   7.001   8.281  1.00  0.00     0.081 A 
HETATM   14  C11 UNK     1       9.097   6.983   7.649  1.00  0.00     0.038 A 
HETATM   15  C15 UNK     1       8.979   6.472   6.357  1.00  0.00     0.003 A 
HETATM   16  C14 UNK     1      10.105   5.980   5.696  1.00  0.00     0.001 A 
HETATM   17  C8  UNK     1      11.349   5.998   6.329  1.00  0.00     0.017 A 
BRANCH  13  18
HETATM   18  O2  UNK     1      10.427   7.506   9.546  1.00  0.00    -0.355 OA
HETATM   19  C16 UNK     1       9.982   8.846   9.739  1.00  0.00     0.210 C 
ENDBRANCH  13  18
ENDBRANCH   3  12
TORSDOF 2
ENDMDL
MODEL 6
REMARK VINA RESULT:      -8.0      1.962      6.373
REMARK  2 active torsions:
REMARK  status: ('A' for Active; 'I' for Inactive)
REMARK    1  A    between atoms: C7_10  and  O2_2 
REMARK    2  A    between atoms: C1_4  and  C2_5 
ROOT
HETATM    1  O1  UNK     1      18.377  -0.412  33.378  1.00  0.00    -0.309 OA
HETATM    2  O3  UNK     1      20.473  -3.027  35.695  1.00  0.00    -0.287 OA
HETATM    3  C1  UNK     1      19.388  -1.201  32.852  1.00  0.00     0.093 A 
HETATM    4  C3  UNK     1      18.756  -1.410  35.560  1.00  0.00     0.048 A 
HETATM    5  C4  UNK     1      18.080  -0.535  34.712  1.00  0.00     0.090 A 
HETATM    6  C5  UNK     1      20.115  -2.075  33.567  1.00  0.00     0.094 A 
HETATM    7  C6  UNK     1      19.835  -2.242  35.007  1.00  0.00     0.187 A 
HETATM    8  C9  UNK     1      18.409  -1.492  36.911  1.00  0.00     0.018 A 
HETATM    9  C10 UNK     1      17.052   0.267  35.212  1.00  0.00     0.038 A 
HETATM   10  C12 UNK     1      17.382  -0.690  37.408  1.00  0.00     0.001 A 
HETATM   11  C13 UNK     1      16.704   0.188  36.561  1.00  0.00     0.003 A 
ENDROOT
BRANCH   3  12
HETATM   12  C2  UNK     1      19.628  -0.986  31.411  1.00  0.00     0.031 A 
HETATM   13  C7  UNK     1      19.343   0.240  30.802  1.00  0.00     0.081 A 
HETATM   14  C11 UNK     1      19.578   0.419  29.438  1.00  0.00     0.038 A 
HETATM   15  C15 UNK     1      20.099  -0.628  28.678  1.00  0.00     0.003 A 
HETATM   16  C14 UNK     1      20.385  -1.853  29.280  1.00  0.00     0.001 A 
HETATM   17  C8  UNK     1      20.150  -2.032  30.643  1.00  0.00     0.017 A 
BRANCH  13  18
HETATM   18  O2  UNK     1      18.833   1.279  31.523  1.00  0.00    -0.355 OA
HETATM   19  C16 UNK     1      18.543   2.480  30.810  1.00  0.00     0.210 C 
ENDBRANCH  13  18
ENDBRANCH   3  12
TORSDOF 2
ENDMDL
MODEL 7
REMARK VINA RESULT:      -7.9      2.164      4.054
REMARK  2 active torsions:
REMARK  status: ('A' for Active; 'I' for Inactive)
REMARK    1  A    between atoms: C7_10  and  O2_2 
REMARK    2  A    between atoms: C1_4  and  C2_5 
ROOT
HETATM    1  O1  UNK     1      19.620   1.137  31.378  1.00  0.00    -0.309 OA
HETATM    2  O3  UNK     1      19.020  -0.142  27.556  1.00  0.00    -0.287 OA
HETATM    3  C1  UNK     1      19.069   1.965  30.412  1.00  0.00     0.093 A 
HETATM    4  C3  UNK     1      19.775  -0.648  29.738  1.00  0.00     0.048 A 
HETATM    5  C4  UNK     1      19.955  -0.146  31.025  1.00  0.00     0.090 A 
HETATM    6  C5  UNK     1      18.854   1.600  29.138  1.00  0.00     0.094 A 
HETATM    7  C6  UNK     1      19.201   0.231  28.707  1.00  0.00     0.187 A 
HETATM    8  C9  UNK     1      20.136  -1.964  29.436  1.00  0.00     0.018 A 
HETATM    9  C10 UNK     1      20.499  -0.959  32.021  1.00  0.00     0.038 A 
HETATM   10  C12 UNK     1      20.679  -2.774  30.433  1.00  0.00     0.001 A 
HETATM   11  C13 UNK     1      20.861  -2.273  31.723  1.00  0.00     0.003 A 
ENDROOT
BRANCH   3  12
HETATM   12  C2  UNK     1      18.750   3.323  30.896  1.00  0.00     0.031 A 
HETATM   13  C7  UNK     1      18.072   3.523  32.102  1.00  0.00     0.081 A 
HETATM   14  C11 UNK     1      17.781   4.815  32.539  1.00  0.00     0.038 A 
HETATM   15  C15 UNK     1      18.167   5.914  31.771  1.00  0.00     0.003 A 
HETATM   16  C14 UNK     1      18.845   5.720  30.568  1.00  0.00     0.001 A 
HETATM   17  C8  UNK     1      19.136   4.428  30.131  1.00  0.00     0.017 A 
BRANCH  13  18
HETATM   18  O2  UNK     1      17.682   2.466  32.871  1.00  0.00    -0.355 OA
HETATM   19  C16 UNK     1      18.161   2.432  34.214  1.00  0.00     0.210 C 
ENDBRANCH  13  18
ENDBRANCH   3  12
TORSDOF 2
ENDMDL
MODEL 8
REMARK VINA RESULT:      -7.9     23.503     26.203
REMARK  2 active torsions:
REMARK  status: ('A' for Active; 'I' for Inactive)
REMARK    1  A    between atoms: C7_10  and  O2_2 
REMARK    2  A    between atoms: C1_4  and  C2_5 
ROOT
HETATM    1  O1  UNK     1      11.728   7.685   9.114  1.00  0.00    -0.309 OA
HETATM    2  O3  UNK     1      11.853   5.994   5.410  1.00  0.00    -0.287 OA
HETATM    3  C1  UNK     1      12.927   7.477   8.450  1.00  0.00     0.093 A 
HETATM    4  C3  UNK     1      10.533   6.735   7.224  1.00  0.00     0.048 A 
HETATM    5  C4  UNK     1      10.563   7.316   8.491  1.00  0.00     0.090 A 
HETATM    6  C5  UNK     1      13.029   6.920   7.232  1.00  0.00     0.094 A 
HETATM    7  C6  UNK     1      11.804   6.505   6.520  1.00  0.00     0.187 A 
HETATM    8  C9  UNK     1       9.316   6.380   6.638  1.00  0.00     0.018 A 
HETATM    9  C10 UNK     1       9.371   7.545   9.181  1.00  0.00     0.038 A 
HETATM   10  C12 UNK     1       8.126   6.610   7.330  1.00  0.00     0.001 A 
HETATM   11  C13 UNK     1       8.153   7.191   8.599  1.00  0.00     0.003 A 
ENDROOT
BRANCH   3  12
HETATM   12  C2  UNK     1      14.117   7.904   9.212  1.00  0.00     0.031 A 
HETATM   13  C7  UNK     1      14.720   7.061  10.150  1.00  0.00     0.081 A 
HETATM   14  C11 UNK     1      15.844   7.487  10.858  1.00  0.00     0.038 A 
HETATM   15  C15 UNK     1      16.369   8.759  10.632  1.00  0.00     0.003 A 
HETATM   16  C14 UNK     1      15.772   9.604   9.697  1.00  0.00     0.001 A 
HETATM   17  C8  UNK     1      14.648   9.178   8.989  1.00  0.00     0.017 A 
BRANCH  13  18
HETATM   18  O2  UNK     1      14.226   5.812  10.390  1.00  0.00    -0.355 OA
HETATM   19  C16 UNK     1      15.005   4.710   9.934  1.00  0.00     0.210 C 
ENDBRANCH  13  18
ENDBRANCH   3  12
TORSDOF 2
ENDMDL
MODEL 9
REMARK VINA RESULT:      -7.9     23.816     26.162
REMARK  2 active torsions:
REMARK  status: ('A' for Active; 'I' for Inactive)
REMARK    1  A    between atoms: C7_10  and  O2_2 
REMARK    2  A    between atoms: C1_4  and  C2_5 
ROOT
HETATM    1  O1  UNK     1      12.875   7.313   7.745  1.00  0.00    -0.309 OA
HETATM    2  O3  UNK     1       9.659   8.504   9.945  1.00  0.00    -0.287 OA
HETATM    3  C1  UNK     1      13.024   8.031   8.922  1.00  0.00     0.093 A 
HETATM    4  C3  UNK     1      10.464   7.368   8.036  1.00  0.00     0.048 A 
HETATM    5  C4  UNK     1      11.607   6.994   7.331  1.00  0.00     0.090 A 
HETATM    6  C5  UNK     1      12.003   8.454   9.684  1.00  0.00     0.094 A 
HETATM    7  C6  UNK     1      10.618   8.139   9.280  1.00  0.00     0.187 A 
HETATM    8  C9  UNK     1       9.197   7.016   7.565  1.00  0.00     0.018 A 
HETATM    9  C10 UNK     1      11.487   6.264   6.147  1.00  0.00     0.038 A 
HETATM   10  C12 UNK     1       9.081   6.285   6.382  1.00  0.00     0.001 A 
HETATM   11  C13 UNK     1      10.224   5.910   5.674  1.00  0.00     0.003 A 
ENDROOT
BRANCH   3  12
HETATM   12  C2  UNK     1      14.429   8.324   9.272  1.00  0.00     0.031 A 
HETATM   13  C7  UNK     1      15.184   7.438  10.045  1.00  0.00     0.081 A 
HETATM   14  C11 UNK     1      16.509   7.736  10.364  1.00  0.00     0.038 A 
HETATM   15  C15 UNK     1      17.084   8.923   9.911  1.00  0.00     0.003 A 
HETATM   16  C14 UNK     1      16.335   9.811   9.138  1.00  0.00     0.001 A 
HETATM   17  C8  UNK     1      15.010   9.512   8.820  1.00  0.00     0.017 A 
BRANCH  13  18
HETATM   18  O2  UNK     1      14.646   6.270  10.502  1.00  0.00    -0.355 OA
HETATM   19  C16 UNK     1      15.113   5.065   9.903  1.00  0.00     0.210 C 
ENDBRANCH  13  18
ENDBRANCH   3  12
TORSDOF 2
ENDMDL
MODEL 10
REMARK VINA RESULT:      -7.6      2.433      6.093
REMARK  2 active torsions:
REMARK  status: ('A' for Active; 'I' for Inactive)
REMARK    1  A    between atoms: C7_10  and  O2_2 
REMARK    2  A    between atoms: C1_4  and  C2_5 
ROOT
HETATM    1  O1  UNK     1      19.858  -1.774  33.829  1.00  0.00    -0.309 OA
HETATM    2  O3  UNK     1      16.595   0.137  35.344  1.00  0.00    -0.287 OA
HETATM    3  C1  UNK     1      19.063  -0.957  33.040  1.00  0.00     0.093 A 
HETATM    4  C3  UNK     1      18.430  -1.299  35.735  1.00  0.00     0.048 A 
HETATM    5  C4  UNK     1      19.531  -1.924  35.152  1.00  0.00     0.090 A 
HETATM    6  C5  UNK     1      17.974  -0.307  33.483  1.00  0.00     0.094 A 
HETATM    7  C6  UNK     1      17.579  -0.438  34.900  1.00  0.00     0.187 A 
HETATM    8  C9  UNK     1      18.145  -1.488  37.090  1.00  0.00     0.018 A 
HETATM    9  C10 UNK     1      20.354  -2.746  35.923  1.00  0.00     0.038 A 
HETATM   10  C12 UNK     1      18.970  -2.310  37.858  1.00  0.00     0.001 A 
HETATM   11  C13 UNK     1      20.073  -2.939  37.276  1.00  0.00     0.003 A 
ENDROOT
BRANCH   3  12
HETATM   12  C2  UNK     1      19.501  -0.870  31.633  1.00  0.00     0.031 A 
HETATM   13  C7  UNK     1      19.345   0.307  30.895  1.00  0.00     0.081 A 
HETATM   14  C11 UNK     1      19.766   0.365  29.566  1.00  0.00     0.038 A 
HETATM   15  C15 UNK     1      20.345  -0.755  28.970  1.00  0.00     0.003 A 
HETATM   16  C14 UNK     1      20.504  -1.932  29.701  1.00  0.00     0.001 A 
HETATM   17  C8  UNK     1      20.083  -1.990  31.030  1.00  0.00     0.017 A 
BRANCH  13  18
HETATM   18  O2  UNK     1      18.781   1.416  31.454  1.00  0.00    -0.355 OA
HETATM   19  C16 UNK     1      18.653   2.566  30.622  1.00  0.00     0.210 C 
ENDBRANCH  13  18
ENDBRANCH   3  12
TORSDOF 2
ENDMDL
