MODEL 1
REMARK VINA RESULT:     -10.0      0.000      0.000
REMARK  7 active torsions:
REMARK  status: ('A' for Active; 'I' for Inactive)
REMARK    1  A    between atoms: C17_23  and  O1_3 
REMARK    2  A    between atoms: C4_10  and  O1_3 
REMARK    3  A    between atoms: C3_9  and  O2_4 
REMARK    4  A    between atoms: C1_7  and  C8_14 
REMARK    5  A    between atoms: C2_8  and  C7_13 
REMARK    6  A    between atoms: C12_18  and  C8_14 
REMARK    7  A    between atoms: C16_22  and  C17_23 
ROOT
HETATM    1  C1  UNK     1      19.431   5.684  32.361  1.00  0.00     0.014 A 
HETATM    2  C4  UNK     1      18.118   3.564  31.111  1.00  0.00     0.079 A 
HETATM    3  C5  UNK     1      18.603   4.842  33.103  1.00  0.00     0.018 A 
HETATM    4  C6  UNK     1      19.602   5.466  30.994  1.00  0.00     0.018 A 
HETATM    5  C9  UNK     1      17.948   3.782  32.478  1.00  0.00     0.038 A 
HETATM    6  C10 UNK     1      18.946   4.406  30.369  1.00  0.00     0.038 A 
ENDROOT
BRANCH   1   7
HETATM    7  C8  UNK     1      20.116   6.790  33.011  1.00  0.00     0.182 C 
HETATM    8  O3  UNK     1      21.353   6.878  32.980  1.00  0.00    -0.288 OA
BRANCH   7   9
HETATM    9  C12 UNK     1      19.298   7.811  33.751  1.00  0.00     0.056 C 
HETATM   10  C7  UNK     1      18.217   8.362  33.183  1.00  0.00     0.018 C 
BRANCH  10  11
HETATM   11  C2  UNK     1      17.363   9.378  33.822  1.00  0.00    -0.001 A 
HETATM   12  C11 UNK     1      17.832  10.681  33.898  1.00  0.00     0.033 A 
HETATM   13  C14 UNK     1      17.039  11.660  34.499  1.00  0.00     0.011 A 
HETATM   14 Br1  UNK     1      17.661  13.441  34.610  1.00  0.00    -0.051 Br
HETATM   15  C15 UNK     1      15.788  11.324  35.016  1.00  0.00     0.022 A 
HETATM   16  C13 UNK     1      15.329  10.009  34.934  1.00  0.00     0.039 A 
HETATM   17  C3  UNK     1      16.121   9.031  34.333  1.00  0.00     0.078 A 
BRANCH  17  18
HETATM   18  O2  UNK     1      15.648   7.753  34.264  1.00  0.00    -0.355 OA
HETATM   19  C23 UNK     1      14.291   7.587  33.861  1.00  0.00     0.210 C 
ENDBRANCH  17  18
ENDBRANCH  10  11
ENDBRANCH   7   9
ENDBRANCH   1   7
BRANCH   2  20
HETATM   20  O1  UNK     1      17.480   2.528  30.502  1.00  0.00    -0.275 OA
BRANCH  20  21
HETATM   21  C17 UNK     1      18.112   2.063  29.346  1.00  0.00     0.298 C 
HETATM   22  O4  UNK     1      18.058   2.588  28.244  1.00  0.00    -0.259 OA
BRANCH  21  23
HETATM   23  C16 UNK     1      18.866   0.812  29.613  1.00  0.00     0.040 A 
HETATM   24  C18 UNK     1      19.319   0.064  28.545  1.00  0.00     0.019 A 
HETATM   25  C20 UNK     1      20.026  -1.111  28.797  1.00  0.00     0.025 A 
HETATM   26  C22 UNK     1      20.265  -1.514  30.111  1.00  0.00     0.034 A 
HETATM   27  C21 UNK     1      19.797  -0.740  31.173  1.00  0.00     0.025 A 
HETATM   28 Cl1  UNK     1      21.139  -2.963  30.421  1.00  0.00    -0.084 Cl
HETATM   29  C19 UNK     1      19.090   0.435  30.922  1.00  0.00     0.019 A 
ENDBRANCH  21  23
ENDBRANCH  20  21
ENDBRANCH   2  20
TORSDOF 7
ENDMDL
MODEL 2
REMARK VINA RESULT:      -9.1      6.492      8.795
REMARK  7 active torsions:
REMARK  status: ('A' for Active; 'I' for Inactive)
REMARK    1  A    between atoms: C17_23  and  O1_3 
REMARK    2  A    between atoms: C4_10  and  O1_3 
REMARK    3  A    between atoms: C3_9  and  O2_4 
REMARK    4  A    between atoms: C1_7  and  C8_14 
REMARK    5  A    between atoms: C2_8  and  C7_13 
REMARK    6  A    between atoms: C12_18  and  C8_14 
REMARK    7  A    between atoms: C16_22  and  C17_23 
ROOT
HETATM    1  C1  UNK     1      18.273  -0.679  35.237  1.00  0.00     0.014 A 
HETATM    2  C4  UNK     1      19.731  -2.682  36.519  1.00  0.00     0.079 A 
HETATM    3  C5  UNK     1      17.982  -1.016  36.558  1.00  0.00     0.018 A 
HETATM    4  C6  UNK     1      19.293  -1.344  34.556  1.00  0.00     0.018 A 
HETATM    5  C9  UNK     1      18.712  -2.017  37.200  1.00  0.00     0.038 A 
HETATM    6  C10 UNK     1      20.022  -2.345  35.197  1.00  0.00     0.038 A 
ENDROOT
BRANCH   1   7
HETATM    7  C8  UNK     1      17.514   0.366  34.567  1.00  0.00     0.182 C 
HETATM    8  O3  UNK     1      16.273   0.361  34.586  1.00  0.00    -0.288 OA
BRANCH   7   9
HETATM    9  C12 UNK     1      18.261   1.435  33.822  1.00  0.00     0.056 C 
HETATM   10  C7  UNK     1      17.609   2.467  33.271  1.00  0.00     0.018 C 
BRANCH  10  11
HETATM   11  C2  UNK     1      18.252   3.554  32.512  1.00  0.00    -0.001 A 
HETATM   12  C11 UNK     1      18.690   4.672  33.205  1.00  0.00     0.033 A 
HETATM   13  C14 UNK     1      19.302   5.714  32.506  1.00  0.00     0.011 A 
HETATM   14 Br1  UNK     1      19.908   7.245  33.434  1.00  0.00    -0.051 Br
HETATM   15  C15 UNK     1      19.469   5.624  31.125  1.00  0.00     0.022 A 
HETATM   16  C13 UNK     1      19.023   4.493  30.440  1.00  0.00     0.039 A 
HETATM   17  C3  UNK     1      18.411   3.452  31.138  1.00  0.00     0.078 A 
BRANCH  17  18
HETATM   18  O2  UNK     1      17.985   2.357  30.445  1.00  0.00    -0.355 OA
HETATM   19  C23 UNK     1      18.989   1.519  29.879  1.00  0.00     0.210 C 
ENDBRANCH  17  18
ENDBRANCH  10  11
ENDBRANCH   7   9
ENDBRANCH   1   7
BRANCH   2  20
HETATM   20  O1  UNK     1      20.444  -3.657  37.145  1.00  0.00    -0.275 OA
BRANCH  20  21
HETATM   21  C17 UNK     1      19.837  -4.915  37.127  1.00  0.00     0.298 C 
HETATM   22  O4  UNK     1      18.837  -5.215  36.492  1.00  0.00    -0.259 OA
BRANCH  21  23
HETATM   23  C16 UNK     1      20.556  -5.871  38.007  1.00  0.00     0.040 A 
HETATM   24  C18 UNK     1      19.851  -6.904  38.588  1.00  0.00     0.019 A 
HETATM   25  C20 UNK     1      20.529  -7.801  39.415  1.00  0.00     0.025 A 
HETATM   26  C22 UNK     1      21.896  -7.645  39.643  1.00  0.00     0.034 A 
HETATM   27  C21 UNK     1      22.586  -6.591  39.043  1.00  0.00     0.025 A 
HETATM   28 Cl1  UNK     1      22.730  -8.752  40.662  1.00  0.00    -0.084 Cl
HETATM   29  C19 UNK     1      21.910  -5.695  38.216  1.00  0.00     0.019 A 
ENDBRANCH  21  23
ENDBRANCH  20  21
ENDBRANCH   2  20
TORSDOF 7
ENDMDL
MODEL 3
REMARK VINA RESULT:      -9.0     22.232     24.694
REMARK  7 active torsions:
REMARK  status: ('A' for Active; 'I' for Inactive)
REMARK    1  A    between atoms: C17_23  and  O1_3 
REMARK    2  A    between atoms: C4_10  and  O1_3 
REMARK    3  A    between atoms: C3_9  and  O2_4 
REMARK    4  A    between atoms: C1_7  and  C8_14 
REMARK    5  A    between atoms: C2_8  and  C7_13 
REMARK    6  A    between atoms: C12_18  and  C8_14 
REMARK    7  A    between atoms: C16_22  and  C17_23 
ROOT
HETATM    1  C1  UNK     1      10.613   6.123   7.340  1.00  0.00     0.014 A 
HETATM    2  C4  UNK     1       8.215   5.680   8.695  1.00  0.00     0.079 A 
HETATM    3  C5  UNK     1      10.630   5.629   8.643  1.00  0.00     0.018 A 
HETATM    4  C6  UNK     1       9.397   6.396   6.713  1.00  0.00     0.018 A 
HETATM    5  C9  UNK     1       9.431   5.407   9.321  1.00  0.00     0.038 A 
HETATM    6  C10 UNK     1       8.198   6.174   7.390  1.00  0.00     0.038 A 
ENDROOT
BRANCH   1   7
HETATM    7  C8  UNK     1      11.863   6.354   6.631  1.00  0.00     0.182 C 
HETATM    8  O3  UNK     1      11.927   6.229   5.399  1.00  0.00    -0.288 OA
BRANCH   7   9
HETATM    9  C12 UNK     1      13.086   6.715   7.426  1.00  0.00     0.056 C 
HETATM   10  C7  UNK     1      13.096   7.804   8.207  1.00  0.00     0.018 C 
BRANCH  10  11
HETATM   11  C2  UNK     1      14.249   8.245   9.011  1.00  0.00    -0.001 A 
HETATM   12  C11 UNK     1      14.873   9.436   8.670  1.00  0.00     0.033 A 
HETATM   13  C14 UNK     1      15.967   9.874   9.417  1.00  0.00     0.011 A 
HETATM   14 Br1  UNK     1      16.828  11.496   8.969  1.00  0.00    -0.051 Br
HETATM   15  C15 UNK     1      16.424   9.117  10.496  1.00  0.00     0.022 A 
HETATM   16  C13 UNK     1      15.787   7.921  10.827  1.00  0.00     0.039 A 
HETATM   17  C3  UNK     1      14.693   7.483  10.080  1.00  0.00     0.078 A 
BRANCH  17  18
HETATM   18  O2  UNK     1      14.089   6.310  10.426  1.00  0.00    -0.355 OA
HETATM   19  C23 UNK     1      14.842   5.114  10.239  1.00  0.00     0.210 C 
ENDBRANCH  17  18
ENDBRANCH  10  11
ENDBRANCH   7   9
ENDBRANCH   1   7
BRANCH   2  20
HETATM   20  O1  UNK     1       7.046   5.462   9.355  1.00  0.00    -0.275 OA
BRANCH  20  21
HETATM   21  C17 UNK     1       6.719   4.114   9.515  1.00  0.00     0.298 C 
HETATM   22  O4  UNK     1       6.789   3.255   8.648  1.00  0.00    -0.259 OA
BRANCH  21  23
HETATM   23  C16 UNK     1       6.245   3.836  10.895  1.00  0.00     0.040 A 
HETATM   24  C18 UNK     1       6.355   4.826  11.850  1.00  0.00     0.019 A 
HETATM   25  C20 UNK     1       5.911   4.564  13.146  1.00  0.00     0.025 A 
HETATM   26  C22 UNK     1       5.367   3.318  13.459  1.00  0.00     0.034 A 
HETATM   27  C21 UNK     1       5.266   2.335  12.475  1.00  0.00     0.025 A 
HETATM   28 Cl1  UNK     1       4.818   2.996  15.058  1.00  0.00    -0.084 Cl
HETATM   29  C19 UNK     1       5.710   2.596  11.179  1.00  0.00     0.019 A 
ENDBRANCH  21  23
ENDBRANCH  20  21
ENDBRANCH   2  20
TORSDOF 7
ENDMDL
MODEL 4
REMARK VINA RESULT:      -9.0      1.566      2.149
REMARK  7 active torsions:
REMARK  status: ('A' for Active; 'I' for Inactive)
REMARK    1  A    between atoms: C17_23  and  O1_3 
REMARK    2  A    between atoms: C4_10  and  O1_3 
REMARK    3  A    between atoms: C3_9  and  O2_4 
REMARK    4  A    between atoms: C1_7  and  C8_14 
REMARK    5  A    between atoms: C2_8  and  C7_13 
REMARK    6  A    between atoms: C12_18  and  C8_14 
REMARK    7  A    between atoms: C16_22  and  C17_23 
ROOT
HETATM    1  C1  UNK     1      18.842   6.497  33.234  1.00  0.00     0.014 A 
HETATM    2  C4  UNK     1      19.100   4.523  31.280  1.00  0.00     0.079 A 
HETATM    3  C5  UNK     1      19.728   6.678  32.173  1.00  0.00     0.018 A 
HETATM    4  C6  UNK     1      18.085   5.328  33.318  1.00  0.00     0.018 A 
HETATM    5  C9  UNK     1      19.857   5.691  31.196  1.00  0.00     0.038 A 
HETATM    6  C10 UNK     1      18.214   4.342  32.341  1.00  0.00     0.038 A 
ENDROOT
BRANCH   1   7
HETATM    7  C8  UNK     1      18.706   7.525  34.253  1.00  0.00     0.182 C 
HETATM    8  O3  UNK     1      19.413   7.507  35.273  1.00  0.00    -0.288 OA
BRANCH   7   9
HETATM    9  C12 UNK     1      17.668   8.595  34.064  1.00  0.00     0.056 C 
HETATM   10  C7  UNK     1      16.438   8.453  34.576  1.00  0.00     0.018 C 
BRANCH  10  11
HETATM   11  C2  UNK     1      15.353   9.438  34.432  1.00  0.00    -0.001 A 
HETATM   12  C11 UNK     1      15.174  10.375  35.439  1.00  0.00     0.033 A 
HETATM   13  C14 UNK     1      14.153  11.318  35.323  1.00  0.00     0.011 A 
HETATM   14 Br1  UNK     1      13.896  12.604  36.684  1.00  0.00    -0.051 Br
HETATM   15  C15 UNK     1      13.322  11.314  34.203  1.00  0.00     0.022 A 
HETATM   16  C13 UNK     1      13.513  10.365  33.197  1.00  0.00     0.039 A 
HETATM   17  C3  UNK     1      14.534   9.422  33.313  1.00  0.00     0.078 A 
BRANCH  17  18
HETATM   18  O2  UNK     1      14.699   8.507  32.315  1.00  0.00    -0.355 OA
HETATM   19  C23 UNK     1      13.847   7.365  32.337  1.00  0.00     0.210 C 
ENDBRANCH  17  18
ENDBRANCH  10  11
ENDBRANCH   7   9
ENDBRANCH   1   7
BRANCH   2  20
HETATM   20  O1  UNK     1      19.224   3.561  30.325  1.00  0.00    -0.275 OA
BRANCH  20  21
HETATM   21  C17 UNK     1      18.306   2.515  30.441  1.00  0.00     0.298 C 
HETATM   22  O4  UNK     1      17.103   2.638  30.618  1.00  0.00    -0.259 OA
BRANCH  21  23
HETATM   23  C16 UNK     1      18.980   1.195  30.337  1.00  0.00     0.040 A 
HETATM   24  C18 UNK     1      19.412   0.762  29.100  1.00  0.00     0.019 A 
HETATM   25  C20 UNK     1      20.045  -0.478  29.004  1.00  0.00     0.025 A 
HETATM   26  C22 UNK     1      20.231  -1.257  30.146  1.00  0.00     0.034 A 
HETATM   27  C21 UNK     1      19.785  -0.796  31.384  1.00  0.00     0.025 A 
HETATM   28 Cl1  UNK     1      21.012  -2.786  30.026  1.00  0.00    -0.084 Cl
HETATM   29  C19 UNK     1      19.154   0.443  31.482  1.00  0.00     0.019 A 
ENDBRANCH  21  23
ENDBRANCH  20  21
ENDBRANCH   2  20
TORSDOF 7
ENDMDL
MODEL 5
REMARK VINA RESULT:      -8.9      6.683      9.142
REMARK  7 active torsions:
REMARK  status: ('A' for Active; 'I' for Inactive)
REMARK    1  A    between atoms: C17_23  and  O1_3 
REMARK    2  A    between atoms: C4_10  and  O1_3 
REMARK    3  A    between atoms: C3_9  and  O2_4 
REMARK    4  A    between atoms: C1_7  and  C8_14 
REMARK    5  A    between atoms: C2_8  and  C7_13 
REMARK    6  A    between atoms: C12_18  and  C8_14 
REMARK    7  A    between atoms: C16_22  and  C17_23 
ROOT
HETATM    1  C1  UNK     1      18.648  -0.795  36.085  1.00  0.00     0.014 A 
HETATM    2  C4  UNK     1      19.717  -3.372  36.075  1.00  0.00     0.079 A 
HETATM    3  C5  UNK     1      19.685  -1.117  35.210  1.00  0.00     0.018 A 
HETATM    4  C6  UNK     1      18.145  -1.763  36.956  1.00  0.00     0.018 A 
HETATM    5  C9  UNK     1      20.219  -2.405  35.205  1.00  0.00     0.038 A 
HETATM    6  C10 UNK     1      18.679  -3.051  36.950  1.00  0.00     0.038 A 
ENDROOT
BRANCH   1   7
HETATM    7  C8  UNK     1      18.089   0.548  36.092  1.00  0.00     0.182 C 
HETATM    8  O3  UNK     1      17.242   0.879  36.935  1.00  0.00    -0.288 OA
BRANCH   7   9
HETATM    9  C12 UNK     1      18.535   1.519  35.035  1.00  0.00     0.056 C 
HETATM   10  C7  UNK     1      17.841   1.657  33.897  1.00  0.00     0.018 C 
BRANCH  10  11
HETATM   11  C2  UNK     1      18.206   2.570  32.801  1.00  0.00    -0.001 A 
HETATM   12  C11 UNK     1      18.162   3.936  33.038  1.00  0.00     0.033 A 
HETATM   13  C14 UNK     1      18.503   4.820  32.014  1.00  0.00     0.011 A 
HETATM   14 Br1  UNK     1      18.452   6.685  32.320  1.00  0.00    -0.051 Br
HETATM   15  C15 UNK     1      18.885   4.329  30.766  1.00  0.00     0.022 A 
HETATM   16  C13 UNK     1      18.925   2.952  30.541  1.00  0.00     0.039 A 
HETATM   17  C3  UNK     1      18.583   2.068  31.565  1.00  0.00     0.078 A 
BRANCH  17  18
HETATM   18  O2  UNK     1      18.631   0.728  31.318  1.00  0.00    -0.355 OA
HETATM   19  C23 UNK     1      19.783   0.236  30.638  1.00  0.00     0.210 C 
ENDBRANCH  17  18
ENDBRANCH  10  11
ENDBRANCH   7   9
ENDBRANCH   1   7
BRANCH   2  20
HETATM   20  O1  UNK     1      20.236  -4.630  36.068  1.00  0.00    -0.275 OA
BRANCH  20  21
HETATM   21  C17 UNK     1      20.806  -5.023  37.281  1.00  0.00     0.298 C 
HETATM   22  O4  UNK     1      21.547  -4.343  37.974  1.00  0.00    -0.259 OA
BRANCH  21  23
HETATM   23  C16 UNK     1      20.408  -6.410  37.636  1.00  0.00     0.040 A 
HETATM   24  C18 UNK     1      19.974  -7.256  36.637  1.00  0.00     0.019 A 
HETATM   25  C20 UNK     1      19.600  -8.558  36.972  1.00  0.00     0.025 A 
HETATM   26  C22 UNK     1      19.669  -8.985  38.297  1.00  0.00     0.034 A 
HETATM   27  C21 UNK     1      20.112  -8.110  39.289  1.00  0.00     0.025 A 
HETATM   28 Cl1  UNK     1      19.209 -10.591  38.709  1.00  0.00    -0.084 Cl
HETATM   29  C19 UNK     1      20.486  -6.808  38.955  1.00  0.00     0.019 A 
ENDBRANCH  21  23
ENDBRANCH  20  21
ENDBRANCH   2  20
TORSDOF 7
ENDMDL
MODEL 6
REMARK VINA RESULT:      -8.7     22.583     24.795
REMARK  7 active torsions:
REMARK  status: ('A' for Active; 'I' for Inactive)
REMARK    1  A    between atoms: C17_23  and  O1_3 
REMARK    2  A    between atoms: C4_10  and  O1_3 
REMARK    3  A    between atoms: C3_9  and  O2_4 
REMARK    4  A    between atoms: C1_7  and  C8_14 
REMARK    5  A    between atoms: C2_8  and  C7_13 
REMARK    6  A    between atoms: C12_18  and  C8_14 
REMARK    7  A    between atoms: C16_22  and  C17_23 
ROOT
HETATM    1  C1  UNK     1      11.045   6.076   7.153  1.00  0.00     0.014 A 
HETATM    2  C4  UNK     1      13.671   5.766   8.040  1.00  0.00     0.079 A 
HETATM    3  C5  UNK     1      12.014   7.014   6.803  1.00  0.00     0.018 A 
HETATM    4  C6  UNK     1      11.388   4.982   7.948  1.00  0.00     0.018 A 
HETATM    5  C9  UNK     1      13.327   6.859   7.246  1.00  0.00     0.038 A 
HETATM    6  C10 UNK     1      12.701   4.827   8.391  1.00  0.00     0.038 A 
ENDROOT
BRANCH   1   7
HETATM    7  C8  UNK     1       9.674   6.236   6.691  1.00  0.00     0.182 C 
HETATM    8  O3  UNK     1       9.433   6.717   5.574  1.00  0.00    -0.288 OA
BRANCH   7   9
HETATM    9  C12 UNK     1       8.553   5.837   7.608  1.00  0.00     0.056 C 
HETATM   10  C7  UNK     1       8.555   6.214   8.894  1.00  0.00     0.018 C 
BRANCH  10  11
HETATM   11  C2  UNK     1       7.510   5.861   9.870  1.00  0.00    -0.001 A 
HETATM   12  C11 UNK     1       7.055   4.551   9.905  1.00  0.00     0.033 A 
HETATM   13  C14 UNK     1       6.066   4.193  10.821  1.00  0.00     0.011 A 
HETATM   14 Br1  UNK     1       5.436   2.412  10.885  1.00  0.00    -0.051 Br
HETATM   15  C15 UNK     1       5.543   5.149  11.692  1.00  0.00     0.022 A 
HETATM   16  C13 UNK     1       6.009   6.463  11.647  1.00  0.00     0.039 A 
HETATM   17  C3  UNK     1       6.998   6.821  10.730  1.00  0.00     0.078 A 
BRANCH  17  18
HETATM   18  O2  UNK     1       7.437   8.112  10.707  1.00  0.00    -0.355 OA
HETATM   19  C23 UNK     1       6.656   9.073  11.412  1.00  0.00     0.210 C 
ENDBRANCH  17  18
ENDBRANCH  10  11
ENDBRANCH   7   9
ENDBRANCH   1   7
BRANCH   2  20
HETATM   20  O1  UNK     1      14.953   5.613   8.471  1.00  0.00    -0.275 OA
BRANCH  20  21
HETATM   21  C17 UNK     1      15.132   5.847   9.836  1.00  0.00     0.298 C 
HETATM   22  O4  UNK     1      14.968   5.028  10.728  1.00  0.00    -0.259 OA
BRANCH  21  23
HETATM   23  C16 UNK     1      15.542   7.252  10.090  1.00  0.00     0.040 A 
HETATM   24  C18 UNK     1      16.844   7.626   9.827  1.00  0.00     0.019 A 
HETATM   25  C20 UNK     1      17.227   8.945  10.066  1.00  0.00     0.025 A 
HETATM   26  C22 UNK     1      16.302   9.862  10.563  1.00  0.00     0.034 A 
HETATM   27  C21 UNK     1      14.992   9.460  10.821  1.00  0.00     0.025 A 
HETATM   28 Cl1  UNK     1      16.776  11.490  10.858  1.00  0.00    -0.084 Cl
HETATM   29  C19 UNK     1      14.607   8.141  10.582  1.00  0.00     0.019 A 
ENDBRANCH  21  23
ENDBRANCH  20  21
ENDBRANCH   2  20
TORSDOF 7
ENDMDL
MODEL 7
REMARK VINA RESULT:      -8.6      6.283      8.295
REMARK  7 active torsions:
REMARK  status: ('A' for Active; 'I' for Inactive)
REMARK    1  A    between atoms: C17_23  and  O1_3 
REMARK    2  A    between atoms: C4_10  and  O1_3 
REMARK    3  A    between atoms: C3_9  and  O2_4 
REMARK    4  A    between atoms: C1_7  and  C8_14 
REMARK    5  A    between atoms: C2_8  and  C7_13 
REMARK    6  A    between atoms: C12_18  and  C8_14 
REMARK    7  A    between atoms: C16_22  and  C17_23 
ROOT
HETATM    1  C1  UNK     1      18.399  -0.096  36.147  1.00  0.00     0.014 A 
HETATM    2  C4  UNK     1      18.728  -2.819  36.654  1.00  0.00     0.079 A 
HETATM    3  C5  UNK     1      19.119  -0.889  35.255  1.00  0.00     0.018 A 
HETATM    4  C6  UNK     1      17.843  -0.664  37.294  1.00  0.00     0.018 A 
HETATM    5  C9  UNK     1      19.283  -2.250  35.508  1.00  0.00     0.038 A 
HETATM    6  C10 UNK     1      18.007  -2.026  37.547  1.00  0.00     0.038 A 
ENDROOT
BRANCH   1   7
HETATM    7  C8  UNK     1      18.227   1.325  35.885  1.00  0.00     0.182 C 
HETATM    8  O3  UNK     1      17.907   2.105  36.794  1.00  0.00    -0.288 OA
BRANCH   7   9
HETATM    9  C12 UNK     1      18.411   1.826  34.480  1.00  0.00     0.056 C 
HETATM   10  C7  UNK     1      18.260   3.126  34.193  1.00  0.00     0.018 C 
BRANCH  10  11
HETATM   11  C2  UNK     1      18.407   3.707  32.847  1.00  0.00    -0.001 A 
HETATM   12  C11 UNK     1      18.265   2.872  31.749  1.00  0.00     0.033 A 
HETATM   13  C14 UNK     1      18.399   3.401  30.465  1.00  0.00     0.011 A 
HETATM   14 Br1  UNK     1      18.207   2.279  28.956  1.00  0.00    -0.051 Br
HETATM   15  C15 UNK     1      18.674   4.757  30.294  1.00  0.00     0.022 A 
HETATM   16  C13 UNK     1      18.815   5.586  31.407  1.00  0.00     0.039 A 
HETATM   17  C3  UNK     1      18.681   5.058  32.691  1.00  0.00     0.078 A 
BRANCH  17  18
HETATM   18  O2  UNK     1      18.822   5.890  33.763  1.00  0.00    -0.355 OA
HETATM   19  C23 UNK     1      17.715   6.727  34.083  1.00  0.00     0.210 C 
ENDBRANCH  17  18
ENDBRANCH  10  11
ENDBRANCH   7   9
ENDBRANCH   1   7
BRANCH   2  20
HETATM   20  O1  UNK     1      18.886  -4.148  36.900  1.00  0.00    -0.275 OA
BRANCH  20  21
HETATM   21  C17 UNK     1      20.189  -4.519  37.238  1.00  0.00     0.298 C 
HETATM   22  O4  UNK     1      20.967  -3.858  37.909  1.00  0.00    -0.259 OA
BRANCH  21  23
HETATM   23  C16 UNK     1      20.539  -5.841  36.659  1.00  0.00     0.040 A 
HETATM   24  C18 UNK     1      21.371  -6.682  37.368  1.00  0.00     0.019 A 
HETATM   25  C20 UNK     1      21.698  -7.924  36.822  1.00  0.00     0.025 A 
HETATM   26  C22 UNK     1      21.187  -8.296  35.579  1.00  0.00     0.034 A 
HETATM   27  C21 UNK     1      20.348  -7.428  34.882  1.00  0.00     0.025 A 
HETATM   28 Cl1  UNK     1      21.591  -9.828  34.907  1.00  0.00    -0.084 Cl
HETATM   29  C19 UNK     1      20.019  -6.187  35.427  1.00  0.00     0.019 A 
ENDBRANCH  21  23
ENDBRANCH  20  21
ENDBRANCH   2  20
TORSDOF 7
ENDMDL
MODEL 8
REMARK VINA RESULT:      -8.6      1.952      2.801
REMARK  7 active torsions:
REMARK  status: ('A' for Active; 'I' for Inactive)
REMARK    1  A    between atoms: C17_23  and  O1_3 
REMARK    2  A    between atoms: C4_10  and  O1_3 
REMARK    3  A    between atoms: C3_9  and  O2_4 
REMARK    4  A    between atoms: C1_7  and  C8_14 
REMARK    5  A    between atoms: C2_8  and  C7_13 
REMARK    6  A    between atoms: C12_18  and  C8_14 
REMARK    7  A    between atoms: C16_22  and  C17_23 
ROOT
HETATM    1  C1  UNK     1      18.704   6.591  33.064  1.00  0.00     0.014 A 
HETATM    2  C4  UNK     1      18.994   4.561  31.173  1.00  0.00     0.079 A 
HETATM    3  C5  UNK     1      18.214   5.314  33.332  1.00  0.00     0.018 A 
HETATM    4  C6  UNK     1      19.339   6.854  31.850  1.00  0.00     0.018 A 
HETATM    5  C9  UNK     1      18.359   4.298  32.387  1.00  0.00     0.038 A 
HETATM    6  C10 UNK     1      19.485   5.839  30.905  1.00  0.00     0.038 A 
ENDROOT
BRANCH   1   7
HETATM    7  C8  UNK     1      18.554   7.651  34.049  1.00  0.00     0.182 C 
HETATM    8  O3  UNK     1      18.958   7.500  35.212  1.00  0.00    -0.288 OA
BRANCH   7   9
HETATM    9  C12 UNK     1      17.869   8.924  33.639  1.00  0.00     0.056 C 
HETATM   10  C7  UNK     1      16.834   9.401  34.344  1.00  0.00     0.018 C 
BRANCH  10  11
HETATM   11  C2  UNK     1      16.092  10.630  34.014  1.00  0.00    -0.001 A 
HETATM   12  C11 UNK     1      14.763  10.515  33.633  1.00  0.00     0.033 A 
HETATM   13  C14 UNK     1      14.041  11.666  33.315  1.00  0.00     0.011 A 
HETATM   14 Br1  UNK     1      12.228  11.530  32.797  1.00  0.00    -0.051 Br
HETATM   15  C15 UNK     1      14.655  12.916  33.382  1.00  0.00     0.022 A 
HETATM   16  C13 UNK     1      15.992  13.017  33.766  1.00  0.00     0.039 A 
HETATM   17  C3  UNK     1      16.715  11.867  34.084  1.00  0.00     0.078 A 
BRANCH  17  18
HETATM   18  O2  UNK     1      18.021  11.993  34.457  1.00  0.00    -0.355 OA
HETATM   19  C23 UNK     1      18.351  13.100  35.291  1.00  0.00     0.210 C 
ENDBRANCH  17  18
ENDBRANCH  10  11
ENDBRANCH   7   9
ENDBRANCH   1   7
BRANCH   2  20
HETATM   20  O1  UNK     1      19.138   3.570  30.252  1.00  0.00    -0.275 OA
BRANCH  20  21
HETATM   21  C17 UNK     1      18.242   2.509  30.404  1.00  0.00     0.298 C 
HETATM   22  O4  UNK     1      17.040   2.614  30.601  1.00  0.00    -0.259 OA
BRANCH  21  23
HETATM   23  C16 UNK     1      18.938   1.201  30.312  1.00  0.00     0.040 A 
HETATM   24  C18 UNK     1      19.104   0.451  31.458  1.00  0.00     0.019 A 
HETATM   25  C20 UNK     1      19.759  -0.778  31.370  1.00  0.00     0.025 A 
HETATM   26  C22 UNK     1      20.234  -1.230  30.138  1.00  0.00     0.034 A 
HETATM   27  C21 UNK     1      20.053  -0.453  28.995  1.00  0.00     0.025 A 
HETATM   28 Cl1  UNK     1      21.041  -2.746  30.031  1.00  0.00    -0.084 Cl
HETATM   29  C19 UNK     1      19.398   0.775  29.081  1.00  0.00     0.019 A 
ENDBRANCH  21  23
ENDBRANCH  20  21
ENDBRANCH   2  20
TORSDOF 7
ENDMDL
MODEL 9
REMARK VINA RESULT:      -8.5      5.349      9.461
REMARK  7 active torsions:
REMARK  status: ('A' for Active; 'I' for Inactive)
REMARK    1  A    between atoms: C17_23  and  O1_3 
REMARK    2  A    between atoms: C4_10  and  O1_3 
REMARK    3  A    between atoms: C3_9  and  O2_4 
REMARK    4  A    between atoms: C1_7  and  C8_14 
REMARK    5  A    between atoms: C2_8  and  C7_13 
REMARK    6  A    between atoms: C12_18  and  C8_14 
REMARK    7  A    between atoms: C16_22  and  C17_23 
ROOT
HETATM    1  C1  UNK     1      20.273  -1.276  30.951  1.00  0.00     0.014 A 
HETATM    2  C4  UNK     1      19.411   1.233  30.088  1.00  0.00     0.079 A 
HETATM    3  C5  UNK     1      19.554  -0.451  31.814  1.00  0.00     0.018 A 
HETATM    4  C6  UNK     1      20.561  -0.847  29.655  1.00  0.00     0.018 A 
HETATM    5  C9  UNK     1      19.123   0.803  31.383  1.00  0.00     0.038 A 
HETATM    6  C10 UNK     1      20.130   0.407  29.223  1.00  0.00     0.038 A 
ENDROOT
BRANCH   1   7
HETATM    7  C8  UNK     1      20.723  -2.585  31.399  1.00  0.00     0.182 C 
HETATM    8  O3  UNK     1      21.141  -3.425  30.588  1.00  0.00    -0.288 OA
BRANCH   7   9
HETATM    9  C12 UNK     1      20.642  -2.912  32.863  1.00  0.00     0.056 C 
HETATM   10  C7  UNK     1      19.887  -2.173  33.688  1.00  0.00     0.018 C 
BRANCH  10  11
HETATM   11  C2  UNK     1      19.756  -2.408  35.137  1.00  0.00    -0.001 A 
HETATM   12  C11 UNK     1      20.439  -3.478  35.696  1.00  0.00     0.033 A 
HETATM   13  C14 UNK     1      20.330  -3.719  37.066  1.00  0.00     0.011 A 
HETATM   14 Br1  UNK     1      21.255  -5.171  37.846  1.00  0.00    -0.051 Br
HETATM   15  C15 UNK     1      19.540  -2.887  37.860  1.00  0.00     0.022 A 
HETATM   16  C13 UNK     1      18.858  -1.815  37.284  1.00  0.00     0.039 A 
HETATM   17  C3  UNK     1      18.968  -1.574  35.915  1.00  0.00     0.078 A 
BRANCH  17  18
HETATM   18  O2  UNK     1      18.291  -0.518  35.377  1.00  0.00    -0.355 OA
HETATM   19  C23 UNK     1      18.722   0.786  35.756  1.00  0.00     0.210 C 
ENDBRANCH  17  18
ENDBRANCH  10  11
ENDBRANCH   7   9
ENDBRANCH   1   7
BRANCH   2  20
HETATM   20  O1  UNK     1      18.988   2.455  29.666  1.00  0.00    -0.275 OA
BRANCH  20  21
HETATM   21  C17 UNK     1      18.024   3.045  30.487  1.00  0.00     0.298 C 
HETATM   22  O4  UNK     1      16.857   2.697  30.579  1.00  0.00    -0.259 OA
BRANCH  21  23
HETATM   23  C16 UNK     1      18.593   4.188  31.246  1.00  0.00     0.040 A 
HETATM   24  C18 UNK     1      19.495   5.022  30.620  1.00  0.00     0.019 A 
HETATM   25  C20 UNK     1      20.029   6.095  31.334  1.00  0.00     0.025 A 
HETATM   26  C22 UNK     1      19.649   6.310  32.659  1.00  0.00     0.034 A 
HETATM   27  C21 UNK     1      18.735   5.452  33.269  1.00  0.00     0.025 A 
HETATM   28 Cl1  UNK     1      20.308   7.634  33.539  1.00  0.00    -0.084 Cl
HETATM   29  C19 UNK     1      18.200   4.380  32.555  1.00  0.00     0.019 A 
ENDBRANCH  21  23
ENDBRANCH  20  21
ENDBRANCH   2  20
TORSDOF 7
ENDMDL
MODEL 10
REMARK VINA RESULT:      -8.5     23.463     25.306
REMARK  7 active torsions:
REMARK  status: ('A' for Active; 'I' for Inactive)
REMARK    1  A    between atoms: C17_23  and  O1_3 
REMARK    2  A    between atoms: C4_10  and  O1_3 
REMARK    3  A    between atoms: C3_9  and  O2_4 
REMARK    4  A    between atoms: C1_7  and  C8_14 
REMARK    5  A    between atoms: C2_8  and  C7_13 
REMARK    6  A    between atoms: C12_18  and  C8_14 
REMARK    7  A    between atoms: C16_22  and  C17_23 
ROOT
HETATM    1  C1  UNK     1      16.779   9.540   9.682  1.00  0.00     0.014 A 
HETATM    2  C4  UNK     1      15.008   7.452  10.214  1.00  0.00     0.079 A 
HETATM    3  C5  UNK     1      17.254   8.340  10.208  1.00  0.00     0.018 A 
HETATM    4  C6  UNK     1      15.417   9.697   9.421  1.00  0.00     0.018 A 
HETATM    5  C9  UNK     1      16.369   7.296  10.474  1.00  0.00     0.038 A 
HETATM    6  C10 UNK     1      14.532   8.653   9.686  1.00  0.00     0.038 A 
ENDROOT
BRANCH   1   7
HETATM    7  C8  UNK     1      17.701  10.630   9.403  1.00  0.00     0.182 C 
HETATM    8  O3  UNK     1      18.885  10.569   9.767  1.00  0.00    -0.288 OA
BRANCH   7   9
HETATM    9  C12 UNK     1      17.183  11.849   8.693  1.00  0.00     0.056 C 
HETATM   10  C7  UNK     1      17.825  12.343   7.626  1.00  0.00     0.018 C 
BRANCH  10  11
HETATM   11  C2  UNK     1      17.403  13.538   6.875  1.00  0.00    -0.001 A 
HETATM   12  C11 UNK     1      16.143  14.061   7.123  1.00  0.00     0.033 A 
HETATM   13  C14 UNK     1      15.721  15.193   6.424  1.00  0.00     0.011 A 
HETATM   14 Br1  UNK     1      14.008  15.922   6.751  1.00  0.00    -0.051 Br
HETATM   15  C15 UNK     1      16.564  15.787   5.485  1.00  0.00     0.022 A 
HETATM   16  C13 UNK     1      17.829  15.249   5.244  1.00  0.00     0.039 A 
HETATM   17  C3  UNK     1      18.250  14.118   5.944  1.00  0.00     0.078 A 
BRANCH  17  18
HETATM   18  O2  UNK     1      19.492  13.613   5.690  1.00  0.00    -0.355 OA
HETATM   19  C23 UNK     1      19.760  13.195   4.354  1.00  0.00     0.210 C 
ENDBRANCH  17  18
ENDBRANCH  10  11
ENDBRANCH   7   9
ENDBRANCH   1   7
BRANCH   2  20
HETATM   20  O1  UNK     1      14.144   6.432  10.471  1.00  0.00    -0.275 OA
BRANCH  20  21
HETATM   21  C17 UNK     1      14.059   5.480   9.452  1.00  0.00     0.298 C 
HETATM   22  O4  UNK     1      14.859   4.579   9.250  1.00  0.00    -0.259 OA
BRANCH  21  23
HETATM   23  C16 UNK     1      12.859   5.704   8.607  1.00  0.00     0.040 A 
HETATM   24  C18 UNK     1      11.610   5.468   9.145  1.00  0.00     0.019 A 
HETATM   25  C20 UNK     1      10.483   5.678   8.350  1.00  0.00     0.025 A 
HETATM   26  C22 UNK     1      10.629   6.120   7.035  1.00  0.00     0.034 A 
HETATM   27  C21 UNK     1      11.902   6.352   6.515  1.00  0.00     0.025 A 
HETATM   28 Cl1  UNK     1       9.239   6.380   6.055  1.00  0.00    -0.084 Cl
HETATM   29  C19 UNK     1      13.029   6.142   7.309  1.00  0.00     0.019 A 
ENDBRANCH  21  23
ENDBRANCH  20  21
ENDBRANCH   2  20
TORSDOF 7
ENDMDL
