MODEL 1
REMARK VINA RESULT:      -7.1      0.000      0.000
REMARK  9 active torsions:
REMARK  status: ('A' for Active; 'I' for Inactive)
REMARK    1  A    between atoms: C14_17  and  O2_2 
REMARK    2  A    between atoms: C15_18  and  O2_2 
REMARK    3  A    between atoms: C1_4  and  C2_5 
REMARK    4  A    between atoms: C1_4  and  C3_6 
REMARK    5  A    between atoms: C2_5  and  C4_7 
REMARK    6  A    between atoms: C4_7  and  C7_10 
REMARK    7  A    between atoms: C10_13  and  C11_14 
REMARK    8  A    between atoms: C10_13  and  C14_17 
REMARK    9  A    between atoms: C11_14  and  C17_20 
ROOT
HETATM    1  O1  UNK     1      18.030   3.257  33.565  1.00  0.00    -0.274 OA
HETATM    2  O3  UNK     1      18.052   1.018  33.191  1.00  0.00    -0.259 OA
HETATM    3  C3  UNK     1      18.485   2.407  31.304  1.00  0.00     0.024 A 
HETATM    4  C5  UNK     1      18.584   3.662  30.818  1.00  0.00    -0.037 A 
HETATM    5  C6  UNK     1      18.438   4.810  31.737  1.00  0.00     0.005 A 
HETATM    6  C8  UNK     1      18.164   4.566  33.079  1.00  0.00     0.092 A 
HETATM    7  C9  UNK     1      18.180   2.153  32.742  1.00  0.00     0.295 A 
HETATM    8  C12 UNK     1      18.822   3.979  29.363  1.00  0.00     0.050 C 
HETATM    9  C13 UNK     1      18.569   6.151  31.344  1.00  0.00     0.017 A 
HETATM   10  C15 UNK     1      18.140   6.915  33.602  1.00  0.00     0.071 A 
HETATM   11  C16 UNK     1      18.012   5.594  34.015  1.00  0.00     0.075 A 
HETATM   12  C18 UNK     1      18.420   7.194  32.267  1.00  0.00     0.038 A 
ENDROOT
BRANCH  10  13
HETATM   13  O2  UNK     1      17.996   7.929  34.496  1.00  0.00    -0.351 OA
BRANCH  13  14
HETATM   14  C14 UNK     1      17.253   9.071  34.070  1.00  0.00     0.175 C 
BRANCH  14  15
HETATM   15  C10 UNK     1      15.902   9.068  34.771  1.00  0.00     0.027 C 
BRANCH  15  16
HETATM   16  C11 UNK     1      14.750   8.939  33.776  1.00  0.00     0.002 C 
BRANCH  16  17
HETATM   17  C17 UNK     1      14.408   7.475  33.507  1.00  0.00    -0.004 C 
HETATM   18  C20 UNK     1      14.594   7.120  32.040  1.00  0.00     0.005 C 
ENDBRANCH  16  17
ENDBRANCH  15  16
ENDBRANCH  14  15
ENDBRANCH  13  14
ENDBRANCH  10  13
BRANCH   3  19
HETATM   19  C1  UNK     1      18.675   1.150  30.492  1.00  0.00     0.045 C 
BRANCH  19  20
HETATM   20  C2  UNK     1      20.080   0.573  30.609  1.00  0.00     0.005 C 
BRANCH  20  21
HETATM   21  C4  UNK     1      20.513  -0.220  29.372  1.00  0.00    -0.000 C 
BRANCH  21  22
HETATM   22  C7  UNK     1      20.404  -1.727  29.613  1.00  0.00    -0.005 C 
HETATM   23  C19 UNK     1      20.434  -2.056  31.097  1.00  0.00     0.005 C 
ENDBRANCH  21  22
ENDBRANCH  20  21
ENDBRANCH  19  20
ENDBRANCH   3  19
TORSDOF 9
ENDMDL
MODEL 2
REMARK VINA RESULT:      -7.0      1.497      2.133
REMARK  9 active torsions:
REMARK  status: ('A' for Active; 'I' for Inactive)
REMARK    1  A    between atoms: C14_17  and  O2_2 
REMARK    2  A    between atoms: C15_18  and  O2_2 
REMARK    3  A    between atoms: C1_4  and  C2_5 
REMARK    4  A    between atoms: C1_4  and  C3_6 
REMARK    5  A    between atoms: C2_5  and  C4_7 
REMARK    6  A    between atoms: C4_7  and  C7_10 
REMARK    7  A    between atoms: C10_13  and  C11_14 
REMARK    8  A    between atoms: C10_13  and  C14_17 
REMARK    9  A    between atoms: C11_14  and  C17_20 
ROOT
HETATM    1  O1  UNK     1      18.484   4.988  30.092  1.00  0.00    -0.274 OA
HETATM    2  O3  UNK     1      18.699   3.233  28.669  1.00  0.00    -0.259 OA
HETATM    3  C3  UNK     1      18.406   2.694  30.971  1.00  0.00     0.024 A 
HETATM    4  C5  UNK     1      18.268   3.149  32.234  1.00  0.00    -0.037 A 
HETATM    5  C6  UNK     1      18.193   4.605  32.476  1.00  0.00     0.005 A 
HETATM    6  C8  UNK     1      18.306   5.474  31.396  1.00  0.00     0.092 A 
HETATM    7  C9  UNK     1      18.538   3.631  29.818  1.00  0.00     0.295 A 
HETATM    8  C12 UNK     1      18.199   2.252  33.444  1.00  0.00     0.050 C 
HETATM    9  C13 UNK     1      18.003   5.180  33.743  1.00  0.00     0.017 A 
HETATM   10  C15 UNK     1      18.063   7.411  32.802  1.00  0.00     0.071 A 
HETATM   11  C16 UNK     1      18.246   6.864  31.538  1.00  0.00     0.075 A 
HETATM   12  C18 UNK     1      17.941   6.570  33.904  1.00  0.00     0.038 A 
ENDROOT
BRANCH  10  13
HETATM   13  O2  UNK     1      18.002   8.760  32.961  1.00  0.00    -0.351 OA
BRANCH  13  14
HETATM   14  C14 UNK     1      17.045   9.263  33.893  1.00  0.00     0.175 C 
BRANCH  14  15
HETATM   15  C10 UNK     1      15.710   9.433  33.182  1.00  0.00     0.027 C 
BRANCH  15  16
HETATM   16  C11 UNK     1      14.562   8.823  33.984  1.00  0.00     0.002 C 
BRANCH  16  17
HETATM   17  C17 UNK     1      14.315   7.370  33.584  1.00  0.00    -0.004 C 
HETATM   18  C20 UNK     1      14.431   7.178  32.080  1.00  0.00     0.005 C 
ENDBRANCH  16  17
ENDBRANCH  15  16
ENDBRANCH  14  15
ENDBRANCH  13  14
ENDBRANCH  10  13
BRANCH   3  19
HETATM   19  C1  UNK     1      18.432   1.239  30.577  1.00  0.00     0.045 C 
BRANCH  19  20
HETATM   20  C2  UNK     1      19.834   0.644  30.588  1.00  0.00     0.005 C 
BRANCH  20  21
HETATM   21  C4  UNK     1      20.242   0.031  29.245  1.00  0.00    -0.000 C 
BRANCH  21  22
HETATM   22  C7  UNK     1      20.726  -1.410  29.419  1.00  0.00    -0.005 C 
HETATM   23  C19 UNK     1      20.163  -2.038  30.684  1.00  0.00     0.005 C 
ENDBRANCH  21  22
ENDBRANCH  20  21
ENDBRANCH  19  20
ENDBRANCH   3  19
TORSDOF 9
ENDMDL
MODEL 3
REMARK VINA RESULT:      -6.7     16.024     18.132
REMARK  9 active torsions:
REMARK  status: ('A' for Active; 'I' for Inactive)
REMARK    1  A    between atoms: C14_17  and  O2_2 
REMARK    2  A    between atoms: C15_18  and  O2_2 
REMARK    3  A    between atoms: C1_4  and  C2_5 
REMARK    4  A    between atoms: C1_4  and  C3_6 
REMARK    5  A    between atoms: C2_5  and  C4_7 
REMARK    6  A    between atoms: C4_7  and  C7_10 
REMARK    7  A    between atoms: C10_13  and  C11_14 
REMARK    8  A    between atoms: C10_13  and  C14_17 
REMARK    9  A    between atoms: C11_14  and  C17_20 
ROOT
HETATM    1  O1  UNK     1      30.503  -4.224  38.090  1.00  0.00    -0.274 OA
HETATM    2  O3  UNK     1      29.026  -4.244  39.814  1.00  0.00    -0.259 OA
HETATM    3  C3  UNK     1      28.595  -5.773  38.038  1.00  0.00     0.024 A 
HETATM    4  C5  UNK     1      28.965  -6.238  36.826  1.00  0.00    -0.037 A 
HETATM    5  C6  UNK     1      30.194  -5.714  36.193  1.00  0.00     0.005 A 
HETATM    6  C8  UNK     1      30.919  -4.724  36.847  1.00  0.00     0.092 A 
HETATM    7  C9  UNK     1      29.370  -4.702  38.728  1.00  0.00     0.295 A 
HETATM    8  C12 UNK     1      28.183  -7.268  36.050  1.00  0.00     0.050 C 
HETATM    9  C13 UNK     1      30.692  -6.163  34.960  1.00  0.00     0.017 A 
HETATM   10  C15 UNK     1      32.563  -4.630  35.093  1.00  0.00     0.071 A 
HETATM   11  C16 UNK     1      32.091  -4.175  36.318  1.00  0.00     0.075 A 
HETATM   12  C18 UNK     1      31.864  -5.625  34.414  1.00  0.00     0.038 A 
ENDROOT
BRANCH  10  13
HETATM   13  O2  UNK     1      33.700  -4.109  34.561  1.00  0.00    -0.351 OA
BRANCH  13  14
HETATM   14  C14 UNK     1      34.830  -4.975  34.465  1.00  0.00     0.175 C 
BRANCH  14  15
HETATM   15  C10 UNK     1      35.239  -5.406  35.866  1.00  0.00     0.027 C 
BRANCH  15  16
HETATM   16  C11 UNK     1      34.878  -6.865  36.136  1.00  0.00     0.002 C 
BRANCH  16  17
HETATM   17  C17 UNK     1      34.163  -7.023  37.477  1.00  0.00    -0.004 C 
HETATM   18  C20 UNK     1      32.943  -7.924  37.357  1.00  0.00     0.005 C 
ENDBRANCH  16  17
ENDBRANCH  15  16
ENDBRANCH  14  15
ENDBRANCH  13  14
ENDBRANCH  10  13
BRANCH   3  19
HETATM   19  C1  UNK     1      27.404  -6.263  38.822  1.00  0.00     0.045 C 
BRANCH  19  20
HETATM   20  C2  UNK     1      27.729  -7.457  39.712  1.00  0.00     0.005 C 
BRANCH  20  21
HETATM   21  C4  UNK     1      26.963  -8.726  39.324  1.00  0.00    -0.000 C 
BRANCH  21  22
HETATM   22  C7  UNK     1      27.893  -9.940  39.274  1.00  0.00    -0.005 C 
HETATM   23  C19 UNK     1      29.250  -9.578  38.689  1.00  0.00     0.005 C 
ENDBRANCH  21  22
ENDBRANCH  20  21
ENDBRANCH  19  20
ENDBRANCH   3  19
TORSDOF 9
ENDMDL
MODEL 4
REMARK VINA RESULT:      -6.7     22.306     24.720
REMARK  9 active torsions:
REMARK  status: ('A' for Active; 'I' for Inactive)
REMARK    1  A    between atoms: C14_17  and  O2_2 
REMARK    2  A    between atoms: C15_18  and  O2_2 
REMARK    3  A    between atoms: C1_4  and  C2_5 
REMARK    4  A    between atoms: C1_4  and  C3_6 
REMARK    5  A    between atoms: C2_5  and  C4_7 
REMARK    6  A    between atoms: C4_7  and  C7_10 
REMARK    7  A    between atoms: C10_13  and  C11_14 
REMARK    8  A    between atoms: C10_13  and  C14_17 
REMARK    9  A    between atoms: C11_14  and  C17_20 
ROOT
HETATM    1  O1  UNK     1      11.249   5.008  10.030  1.00  0.00    -0.274 OA
HETATM    2  O3  UNK     1       8.997   4.871  10.284  1.00  0.00    -0.259 OA
HETATM    3  C3  UNK     1       9.772   5.853   8.256  1.00  0.00     0.024 A 
HETATM    4  C5  UNK     1      10.831   6.253   7.521  1.00  0.00    -0.037 A 
HETATM    5  C6  UNK     1      12.199   5.999   8.022  1.00  0.00     0.005 A 
HETATM    6  C8  UNK     1      12.359   5.387   9.261  1.00  0.00     0.092 A 
HETATM    7  C9  UNK     1       9.951   5.208   9.589  1.00  0.00     0.295 A 
HETATM    8  C12 UNK     1      10.711   6.972   6.201  1.00  0.00     0.050 C 
HETATM    9  C13 UNK     1      13.366   6.332   7.317  1.00  0.00     0.017 A 
HETATM   10  C15 UNK     1      14.758   5.455   9.094  1.00  0.00     0.071 A 
HETATM   11  C16 UNK     1      13.616   5.112   9.807  1.00  0.00     0.075 A 
HETATM   12  C18 UNK     1      14.634   6.064   7.848  1.00  0.00     0.038 A 
ENDROOT
BRANCH  10  13
HETATM   13  O2  UNK     1      15.990   5.195   9.608  1.00  0.00    -0.351 OA
BRANCH  13  14
HETATM   14  C14 UNK     1      16.990   6.200   9.439  1.00  0.00     0.175 C 
BRANCH  14  15
HETATM   15  C10 UNK     1      16.800   7.266  10.509  1.00  0.00     0.027 C 
BRANCH  15  16
HETATM   16  C11 UNK     1      16.772   8.670   9.908  1.00  0.00     0.002 C 
BRANCH  16  17
HETATM   17  C17 UNK     1      15.396   9.314  10.065  1.00  0.00    -0.004 C 
HETATM   18  C20 UNK     1      14.531   8.550  11.057  1.00  0.00     0.005 C 
ENDBRANCH  16  17
ENDBRANCH  15  16
ENDBRANCH  14  15
ENDBRANCH  13  14
ENDBRANCH  10  13
BRANCH   3  19
HETATM   19  C1  UNK     1       8.330   5.991   7.836  1.00  0.00     0.045 C 
BRANCH  19  20
HETATM   20  C2  UNK     1       7.770   7.386   8.083  1.00  0.00     0.005 C 
BRANCH  20  21
HETATM   21  C4  UNK     1       6.947   7.489   9.372  1.00  0.00    -0.000 C 
BRANCH  21  22
HETATM   22  C7  UNK     1       7.707   8.258  10.454  1.00  0.00    -0.005 C 
HETATM   23  C19 UNK     1       8.877   9.034   9.868  1.00  0.00     0.005 C 
ENDBRANCH  21  22
ENDBRANCH  20  21
ENDBRANCH  19  20
ENDBRANCH   3  19
TORSDOF 9
ENDMDL
MODEL 5
REMARK VINA RESULT:      -6.6      1.192      7.797
REMARK  9 active torsions:
REMARK  status: ('A' for Active; 'I' for Inactive)
REMARK    1  A    between atoms: C14_17  and  O2_2 
REMARK    2  A    between atoms: C15_18  and  O2_2 
REMARK    3  A    between atoms: C1_4  and  C2_5 
REMARK    4  A    between atoms: C1_4  and  C3_6 
REMARK    5  A    between atoms: C2_5  and  C4_7 
REMARK    6  A    between atoms: C4_7  and  C7_10 
REMARK    7  A    between atoms: C10_13  and  C11_14 
REMARK    8  A    between atoms: C10_13  and  C14_17 
REMARK    9  A    between atoms: C11_14  and  C17_20 
ROOT
HETATM    1  O1  UNK     1      17.707   4.335  33.773  1.00  0.00    -0.274 OA
HETATM    2  O3  UNK     1      17.211   6.381  34.620  1.00  0.00    -0.259 OA
HETATM    3  C3  UNK     1      17.932   6.327  32.350  1.00  0.00     0.024 A 
HETATM    4  C5  UNK     1      18.378   5.579  31.319  1.00  0.00    -0.037 A 
HETATM    5  C6  UNK     1      18.472   4.112  31.474  1.00  0.00     0.005 A 
HETATM    6  C8  UNK     1      18.135   3.542  32.698  1.00  0.00     0.092 A 
HETATM    7  C9  UNK     1      17.584   5.710  33.663  1.00  0.00     0.295 A 
HETATM    8  C12 UNK     1      18.810   6.154  29.993  1.00  0.00     0.050 C 
HETATM    9  C13 UNK     1      18.878   3.240  30.452  1.00  0.00     0.017 A 
HETATM   10  C15 UNK     1      18.606   1.320  31.903  1.00  0.00     0.071 A 
HETATM   11  C16 UNK     1      18.197   2.164  32.928  1.00  0.00     0.075 A 
HETATM   12  C18 UNK     1      18.945   1.857  30.665  1.00  0.00     0.038 A 
ENDROOT
BRANCH  10  13
HETATM   13  O2  UNK     1      18.673  -0.023  32.107  1.00  0.00    -0.351 OA
BRANCH  13  14
HETATM   14  C14 UNK     1      19.911  -0.666  31.805  1.00  0.00     0.175 C 
BRANCH  14  15
HETATM   15  C10 UNK     1      19.645  -1.818  30.847  1.00  0.00     0.027 C 
BRANCH  15  16
HETATM   16  C11 UNK     1      20.747  -1.944  29.797  1.00  0.00     0.002 C 
BRANCH  16  17
HETATM   17  C17 UNK     1      20.707  -0.783  28.806  1.00  0.00    -0.004 C 
HETATM   18  C20 UNK     1      19.324  -0.620  28.193  1.00  0.00     0.005 C 
ENDBRANCH  16  17
ENDBRANCH  15  16
ENDBRANCH  14  15
ENDBRANCH  13  14
ENDBRANCH  10  13
BRANCH   3  19
HETATM   19  C1  UNK     1      17.727   7.820  32.307  1.00  0.00     0.045 C 
BRANCH  19  20
HETATM   20  C2  UNK     1      16.447   8.224  31.587  1.00  0.00     0.005 C 
BRANCH  20  21
HETATM   21  C4  UNK     1      15.468   8.995  32.479  1.00  0.00    -0.000 C 
BRANCH  21  22
HETATM   22  C7  UNK     1      14.547   8.041  33.242  1.00  0.00    -0.005 C 
HETATM   23  C19 UNK     1      13.782   7.129  32.295  1.00  0.00     0.005 C 
ENDBRANCH  21  22
ENDBRANCH  20  21
ENDBRANCH  19  20
ENDBRANCH   3  19
TORSDOF 9
ENDMDL
MODEL 6
REMARK VINA RESULT:      -6.4     22.967     24.658
REMARK  9 active torsions:
REMARK  status: ('A' for Active; 'I' for Inactive)
REMARK    1  A    between atoms: C14_17  and  O2_2 
REMARK    2  A    between atoms: C15_18  and  O2_2 
REMARK    3  A    between atoms: C1_4  and  C2_5 
REMARK    4  A    between atoms: C1_4  and  C3_6 
REMARK    5  A    between atoms: C2_5  and  C4_7 
REMARK    6  A    between atoms: C4_7  and  C7_10 
REMARK    7  A    between atoms: C10_13  and  C11_14 
REMARK    8  A    between atoms: C10_13  and  C14_17 
REMARK    9  A    between atoms: C11_14  and  C17_20 
ROOT
HETATM    1  O1  UNK     1      16.403   6.413   9.775  1.00  0.00    -0.274 OA
HETATM    2  O3  UNK     1      15.453   4.352   9.724  1.00  0.00    -0.259 OA
HETATM    3  C3  UNK     1      13.962   6.204   9.578  1.00  0.00     0.024 A 
HETATM    4  C5  UNK     1      13.815   7.546   9.584  1.00  0.00    -0.037 A 
HETATM    5  C6  UNK     1      15.014   8.406   9.652  1.00  0.00     0.005 A 
HETATM    6  C8  UNK     1      16.267   7.808   9.747  1.00  0.00     0.092 A 
HETATM    7  C9  UNK     1      15.307   5.570   9.692  1.00  0.00     0.295 A 
HETATM    8  C12 UNK     1      12.477   8.241   9.542  1.00  0.00     0.050 C 
HETATM    9  C13 UNK     1      14.976   9.809   9.618  1.00  0.00     0.017 A 
HETATM   10  C15 UNK     1      17.389   9.937   9.785  1.00  0.00     0.071 A 
HETATM   11  C16 UNK     1      17.451   8.549   9.816  1.00  0.00     0.075 A 
HETATM   12  C18 UNK     1      16.151  10.567   9.685  1.00  0.00     0.038 A 
ENDROOT
BRANCH  10  13
HETATM   13  O2  UNK     1      18.529  10.675   9.851  1.00  0.00    -0.351 OA
BRANCH  13  14
HETATM   14  C14 UNK     1      18.514  11.952   9.215  1.00  0.00     0.175 C 
BRANCH  14  15
HETATM   15  C10 UNK     1      19.203  11.836   7.863  1.00  0.00     0.027 C 
BRANCH  15  16
HETATM   16  C11 UNK     1      18.265  12.213   6.718  1.00  0.00     0.002 C 
BRANCH  16  17
HETATM   17  C17 UNK     1      18.781  13.430   5.952  1.00  0.00    -0.004 C 
HETATM   18  C20 UNK     1      19.400  13.031   4.622  1.00  0.00     0.005 C 
ENDBRANCH  16  17
ENDBRANCH  15  16
ENDBRANCH  14  15
ENDBRANCH  13  14
ENDBRANCH  10  13
BRANCH   3  19
HETATM   19  C1  UNK     1      12.831   5.214   9.449  1.00  0.00     0.045 C 
BRANCH  19  20
HETATM   20  C2  UNK     1      12.432   4.952   8.003  1.00  0.00     0.005 C 
BRANCH  20  21
HETATM   21  C4  UNK     1      11.101   5.602   7.615  1.00  0.00    -0.000 C 
BRANCH  21  22
HETATM   22  C7  UNK     1      11.169   6.210   6.213  1.00  0.00    -0.005 C 
HETATM   23  C19 UNK     1       9.780   6.483   5.656  1.00  0.00     0.005 C 
ENDBRANCH  21  22
ENDBRANCH  20  21
ENDBRANCH  19  20
ENDBRANCH   3  19
TORSDOF 9
ENDMDL
MODEL 7
REMARK VINA RESULT:      -6.3     16.209     18.641
REMARK  9 active torsions:
REMARK  status: ('A' for Active; 'I' for Inactive)
REMARK    1  A    between atoms: C14_17  and  O2_2 
REMARK    2  A    between atoms: C15_18  and  O2_2 
REMARK    3  A    between atoms: C1_4  and  C2_5 
REMARK    4  A    between atoms: C1_4  and  C3_6 
REMARK    5  A    between atoms: C2_5  and  C4_7 
REMARK    6  A    between atoms: C4_7  and  C7_10 
REMARK    7  A    between atoms: C10_13  and  C11_14 
REMARK    8  A    between atoms: C10_13  and  C14_17 
REMARK    9  A    between atoms: C11_14  and  C17_20 
ROOT
HETATM    1  O1  UNK     1      30.474  -5.040  38.576  1.00  0.00    -0.274 OA
HETATM    2  O3  UNK     1      28.339  -4.672  39.256  1.00  0.00    -0.259 OA
HETATM    3  C3  UNK     1      28.958  -6.946  38.910  1.00  0.00     0.024 A 
HETATM    4  C5  UNK     1      29.914  -7.816  38.521  1.00  0.00    -0.037 A 
HETATM    5  C6  UNK     1      31.255  -7.307  38.164  1.00  0.00     0.005 A 
HETATM    6  C8  UNK     1      31.487  -5.936  38.203  1.00  0.00     0.092 A 
HETATM    7  C9  UNK     1      29.210  -5.476  38.938  1.00  0.00     0.295 A 
HETATM    8  C12 UNK     1      29.696  -9.304  38.406  1.00  0.00     0.050 C 
HETATM    9  C13 UNK     1      32.332  -8.128  37.793  1.00  0.00     0.017 A 
HETATM   10  C15 UNK     1      33.776  -6.204  37.511  1.00  0.00     0.071 A 
HETATM   11  C16 UNK     1      32.726  -5.372  37.881  1.00  0.00     0.075 A 
HETATM   12  C18 UNK     1      33.580  -7.581  37.467  1.00  0.00     0.038 A 
ENDROOT
BRANCH  10  13
HETATM   13  O2  UNK     1      34.988  -5.676  37.194  1.00  0.00    -0.351 OA
BRANCH  13  14
HETATM   14  C14 UNK     1      35.510  -5.975  35.900  1.00  0.00     0.175 C 
BRANCH  14  15
HETATM   15  C10 UNK     1      34.756  -5.153  34.864  1.00  0.00     0.027 C 
BRANCH  15  16
HETATM   16  C11 UNK     1      33.889  -6.033  33.967  1.00  0.00     0.002 C 
BRANCH  16  17
HETATM   17  C17 UNK     1      32.410  -5.671  34.092  1.00  0.00    -0.004 C 
HETATM   18  C20 UNK     1      31.556  -6.899  34.364  1.00  0.00     0.005 C 
ENDBRANCH  16  17
ENDBRANCH  15  16
ENDBRANCH  14  15
ENDBRANCH  13  14
ENDBRANCH  10  13
BRANCH   3  19
HETATM   19  C1  UNK     1      27.572  -7.334  39.360  1.00  0.00     0.045 C 
BRANCH  19  20
HETATM   20  C2  UNK     1      26.587  -7.469  38.205  1.00  0.00     0.005 C 
BRANCH  20  21
HETATM   21  C4  UNK     1      26.049  -8.893  38.032  1.00  0.00    -0.000 C 
BRANCH  21  22
HETATM   22  C7  UNK     1      26.526  -9.509  36.715  1.00  0.00    -0.005 C 
HETATM   23  C19 UNK     1      25.877 -10.862  36.466  1.00  0.00     0.005 C 
ENDBRANCH  21  22
ENDBRANCH  20  21
ENDBRANCH  19  20
ENDBRANCH   3  19
TORSDOF 9
ENDMDL
MODEL 8
REMARK VINA RESULT:      -6.3     14.330     16.900
REMARK  9 active torsions:
REMARK  status: ('A' for Active; 'I' for Inactive)
REMARK    1  A    between atoms: C14_17  and  O2_2 
REMARK    2  A    between atoms: C15_18  and  O2_2 
REMARK    3  A    between atoms: C1_4  and  C2_5 
REMARK    4  A    between atoms: C1_4  and  C3_6 
REMARK    5  A    between atoms: C2_5  and  C4_7 
REMARK    6  A    between atoms: C4_7  and  C7_10 
REMARK    7  A    between atoms: C10_13  and  C11_14 
REMARK    8  A    between atoms: C10_13  and  C14_17 
REMARK    9  A    between atoms: C11_14  and  C17_20 
ROOT
HETATM    1  O1  UNK     1      28.210  -5.221  39.267  1.00  0.00    -0.274 OA
HETATM    2  O3  UNK     1      29.803  -3.621  39.507  1.00  0.00    -0.259 OA
HETATM    3  C3  UNK     1      30.511  -5.676  38.530  1.00  0.00     0.024 A 
HETATM    4  C5  UNK     1      30.177  -6.930  38.159  1.00  0.00    -0.037 A 
HETATM    5  C6  UNK     1      28.777  -7.381  38.301  1.00  0.00     0.005 A 
HETATM    6  C8  UNK     1      27.843  -6.510  38.853  1.00  0.00     0.092 A 
HETATM    7  C9  UNK     1      29.506  -4.752  39.132  1.00  0.00     0.295 A 
HETATM    8  C12 UNK     1      31.163  -7.930  37.610  1.00  0.00     0.050 C 
HETATM    9  C13 UNK     1      28.316  -8.645  37.902  1.00  0.00     0.017 A 
HETATM   10  C15 UNK     1      26.066  -8.116  38.626  1.00  0.00     0.071 A 
HETATM   11  C16 UNK     1      26.499  -6.857  39.023  1.00  0.00     0.075 A 
HETATM   12  C18 UNK     1      26.974  -9.010  38.065  1.00  0.00     0.038 A 
ENDROOT
BRANCH  10  13
HETATM   13  O2  UNK     1      24.763  -8.473  38.783  1.00  0.00    -0.351 OA
BRANCH  13  14
HETATM   14  C14 UNK     1      23.817  -7.420  38.963  1.00  0.00     0.175 C 
BRANCH  14  15
HETATM   15  C10 UNK     1      22.581  -7.982  39.651  1.00  0.00     0.027 C 
BRANCH  15  16
HETATM   16  C11 UNK     1      21.349  -7.117  39.393  1.00  0.00     0.002 C 
BRANCH  16  17
HETATM   17  C17 UNK     1      20.066  -7.944  39.450  1.00  0.00    -0.004 C 
HETATM   18  C20 UNK     1      19.172  -7.672  38.250  1.00  0.00     0.005 C 
ENDBRANCH  16  17
ENDBRANCH  15  16
ENDBRANCH  14  15
ENDBRANCH  13  14
ENDBRANCH  10  13
BRANCH   3  19
HETATM   19  C1  UNK     1      31.883  -5.069  38.381  1.00  0.00     0.045 C 
BRANCH  19  20
HETATM   20  C2  UNK     1      32.049  -4.285  37.085  1.00  0.00     0.005 C 
BRANCH  20  21
HETATM   21  C4  UNK     1      33.090  -4.893  36.140  1.00  0.00    -0.000 C 
BRANCH  21  22
HETATM   22  C7  UNK     1      34.086  -5.768  36.902  1.00  0.00    -0.005 C 
HETATM   23  C19 UNK     1      35.412  -5.875  36.165  1.00  0.00     0.005 C 
ENDBRANCH  21  22
ENDBRANCH  20  21
ENDBRANCH  19  20
ENDBRANCH   3  19
TORSDOF 9
ENDMDL
MODEL 9
REMARK VINA RESULT:      -6.3     22.282     24.475
REMARK  9 active torsions:
REMARK  status: ('A' for Active; 'I' for Inactive)
REMARK    1  A    between atoms: C14_17  and  O2_2 
REMARK    2  A    between atoms: C15_18  and  O2_2 
REMARK    3  A    between atoms: C1_4  and  C2_5 
REMARK    4  A    between atoms: C1_4  and  C3_6 
REMARK    5  A    between atoms: C2_5  and  C4_7 
REMARK    6  A    between atoms: C4_7  and  C7_10 
REMARK    7  A    between atoms: C10_13  and  C11_14 
REMARK    8  A    between atoms: C10_13  and  C14_17 
REMARK    9  A    between atoms: C11_14  and  C17_20 
ROOT
HETATM    1  O1  UNK     1      13.940   5.296   8.717  1.00  0.00    -0.274 OA
HETATM    2  O3  UNK     1      16.092   5.045   9.395  1.00  0.00    -0.259 OA
HETATM    3  C3  UNK     1      14.993   7.041  10.090  1.00  0.00     0.024 A 
HETATM    4  C5  UNK     1      13.874   7.796  10.044  1.00  0.00    -0.037 A 
HETATM    5  C6  UNK     1      12.684   7.287   9.331  1.00  0.00     0.005 A 
HETATM    6  C8  UNK     1      12.760   6.054   8.691  1.00  0.00     0.092 A 
HETATM    7  C9  UNK     1      15.071   5.726   9.391  1.00  0.00     0.295 A 
HETATM    8  C12 UNK     1      13.761   9.163  10.673  1.00  0.00     0.050 C 
HETATM    9  C13 UNK     1      11.460   7.969   9.263  1.00  0.00     0.017 A 
HETATM   10  C15 UNK     1      10.480   6.196   7.935  1.00  0.00     0.071 A 
HETATM   11  C16 UNK     1      11.681   5.501   7.994  1.00  0.00     0.075 A 
HETATM   12  C18 UNK     1      10.368   7.430   8.571  1.00  0.00     0.038 A 
ENDROOT
BRANCH  10  13
HETATM   13  O2  UNK     1       9.419   5.675   7.263  1.00  0.00    -0.351 OA
BRANCH  13  14
HETATM   14  C14 UNK     1       8.118   5.997   7.752  1.00  0.00     0.175 C 
BRANCH  14  15
HETATM   15  C10 UNK     1       7.780   5.061   8.904  1.00  0.00     0.027 C 
BRANCH  15  16
HETATM   16  C11 UNK     1       7.064   5.795  10.036  1.00  0.00     0.002 C 
BRANCH  16  17
HETATM   17  C17 UNK     1       6.971   7.294   9.757  1.00  0.00    -0.004 C 
HETATM   18  C20 UNK     1       5.736   7.906  10.400  1.00  0.00     0.005 C 
ENDBRANCH  16  17
ENDBRANCH  15  16
ENDBRANCH  14  15
ENDBRANCH  13  14
ENDBRANCH  10  13
BRANCH   3  19
HETATM   19  C1  UNK     1      16.252   7.410  10.834  1.00  0.00     0.045 C 
BRANCH  19  20
HETATM   20  C2  UNK     1      17.250   8.172   9.971  1.00  0.00     0.005 C 
BRANCH  20  21
HETATM   21  C4  UNK     1      17.152   9.693  10.132  1.00  0.00    -0.000 C 
BRANCH  21  22
HETATM   22  C7  UNK     1      17.263  10.400   8.780  1.00  0.00    -0.005 C 
HETATM   23  C19 UNK     1      15.946  11.047   8.380  1.00  0.00     0.005 C 
ENDBRANCH  21  22
ENDBRANCH  20  21
ENDBRANCH  19  20
ENDBRANCH   3  19
TORSDOF 9
ENDMDL
MODEL 10
REMARK VINA RESULT:      -6.3      5.600     10.562
REMARK  9 active torsions:
REMARK  status: ('A' for Active; 'I' for Inactive)
REMARK    1  A    between atoms: C14_17  and  O2_2 
REMARK    2  A    between atoms: C15_18  and  O2_2 
REMARK    3  A    between atoms: C1_4  and  C2_5 
REMARK    4  A    between atoms: C1_4  and  C3_6 
REMARK    5  A    between atoms: C2_5  and  C4_7 
REMARK    6  A    between atoms: C4_7  and  C7_10 
REMARK    7  A    between atoms: C10_13  and  C11_14 
REMARK    8  A    between atoms: C10_13  and  C14_17 
REMARK    9  A    between atoms: C11_14  and  C17_20 
ROOT
HETATM    1  O1  UNK     1      19.480  -1.261  33.736  1.00  0.00    -0.274 OA
HETATM    2  O3  UNK     1      18.845   0.393  32.317  1.00  0.00    -0.259 OA
HETATM    3  C3  UNK     1      18.148   0.623  34.584  1.00  0.00     0.024 A 
HETATM    4  C5  UNK     1      18.120   0.087  35.823  1.00  0.00    -0.037 A 
HETATM    5  C6  UNK     1      18.835  -1.181  36.081  1.00  0.00     0.005 A 
HETATM    6  C8  UNK     1      19.488  -1.811  35.027  1.00  0.00     0.092 A 
HETATM    7  C9  UNK     1      18.841  -0.064  33.456  1.00  0.00     0.295 A 
HETATM    8  C12 UNK     1      17.379   0.701  36.984  1.00  0.00     0.050 C 
HETATM    9  C13 UNK     1      18.908  -1.797  37.339  1.00  0.00     0.017 A 
HETATM   10  C15 UNK     1      20.241  -3.608  36.439  1.00  0.00     0.071 A 
HETATM   11  C16 UNK     1      20.187  -3.012  35.185  1.00  0.00     0.075 A 
HETATM   12  C18 UNK     1      19.603  -3.000  37.517  1.00  0.00     0.038 A 
ENDROOT
BRANCH  10  13
HETATM   13  O2  UNK     1      20.916  -4.776  36.614  1.00  0.00    -0.351 OA
BRANCH  13  14
HETATM   14  C14 UNK     1      21.478  -5.015  37.903  1.00  0.00     0.175 C 
BRANCH  14  15
HETATM   15  C10 UNK     1      21.319  -6.490  38.243  1.00  0.00     0.027 C 
BRANCH  15  16
HETATM   16  C11 UNK     1      19.963  -6.779  38.883  1.00  0.00     0.002 C 
BRANCH  16  17
HETATM   17  C17 UNK     1      19.943  -8.154  39.548  1.00  0.00    -0.004 C 
HETATM   18  C20 UNK     1      21.250  -8.901  39.326  1.00  0.00     0.005 C 
ENDBRANCH  16  17
ENDBRANCH  15  16
ENDBRANCH  14  15
ENDBRANCH  13  14
ENDBRANCH  10  13
BRANCH   3  19
HETATM   19  C1  UNK     1      17.518   1.938  34.200  1.00  0.00     0.045 C 
BRANCH  19  20
HETATM   20  C2  UNK     1      18.472   3.118  34.338  1.00  0.00     0.005 C 
BRANCH  20  21
HETATM   21  C4  UNK     1      18.289   4.175  33.245  1.00  0.00    -0.000 C 
BRANCH  21  22
HETATM   22  C7  UNK     1      18.784   5.545  33.711  1.00  0.00    -0.005 C 
HETATM   23  C19 UNK     1      19.681   6.197  32.670  1.00  0.00     0.005 C 
ENDBRANCH  21  22
ENDBRANCH  20  21
ENDBRANCH  19  20
ENDBRANCH   3  19
TORSDOF 9
ENDMDL
