MODEL 1
REMARK VINA RESULT:      -8.5      0.000      0.000
REMARK  2 active torsions:
REMARK  status: ('A' for Active; 'I' for Inactive)
REMARK    1  A    between atoms: C7_10  and  N1_3 
REMARK    2  A    between atoms: C7_10  and  C8_11 
ROOT
HETATM    1  O1  UNK     1      18.880   0.445  33.496  1.00  0.00    -0.275 OA
HETATM    2  O2  UNK     1      18.228   1.380  35.478  1.00  0.00    -0.260 OA
HETATM    3  C8  UNK     1      18.223   2.894  32.240  1.00  0.00    -0.011 A 
HETATM    4  C9  UNK     1      18.747   1.771  31.449  1.00  0.00     0.012 A 
HETATM    5  C10 UNK     1      18.955   1.825  30.064  1.00  0.00    -0.048 A 
HETATM    6  C11 UNK     1      18.063   2.738  33.561  1.00  0.00     0.092 A 
HETATM    7  C12 UNK     1      19.059   0.580  32.105  1.00  0.00     0.091 A 
HETATM    8  C13 UNK     1      19.458   0.718  29.373  1.00  0.00     0.014 A 
HETATM    9  C14 UNK     1      19.562  -0.534  31.429  1.00  0.00     0.045 A 
HETATM   10  C15 UNK     1      19.761  -0.460  30.055  1.00  0.00    -0.059 A 
HETATM   11  C16 UNK     1      18.387   1.487  34.268  1.00  0.00     0.288 A 
HETATM   12  C17 UNK     1      18.678   3.018  29.206  1.00  0.00     0.049 C 
HETATM   13  C18 UNK     1      20.298  -1.637  29.313  1.00  0.00     0.048 C 
ENDROOT
BRANCH   3  14
HETATM   14  C7  UNK     1      17.853   4.207  31.641  1.00  0.00     0.312 C 
BRANCH  14  15
HETATM   15  N1  UNK     1      18.245   5.332  32.492  1.00  0.00     0.092 N 
HETATM   16  C1  UNK     1      17.079   6.175  32.773  1.00  0.00     0.272 C 
HETATM   17  C3  UNK     1      17.336   7.538  33.424  1.00  0.00     0.030 C 
HETATM   18  C5  UNK     1      18.436   7.543  34.481  1.00  0.00     0.002 C 
HETATM   19  C6  UNK     1      19.822   7.718  33.866  1.00  0.00     0.002 C 
HETATM   20  C4  UNK     1      20.322   6.536  33.041  1.00  0.00     0.030 C 
HETATM   21  C2  UNK     1      19.388   6.053  31.929  1.00  0.00     0.272 C 
ENDBRANCH  14  15
ENDBRANCH   3  14
TORSDOF 2
ENDMDL
MODEL 2
REMARK VINA RESULT:      -8.2     15.132     16.583
REMARK  2 active torsions:
REMARK  status: ('A' for Active; 'I' for Inactive)
REMARK    1  A    between atoms: C7_10  and  N1_3 
REMARK    2  A    between atoms: C7_10  and  C8_11 
ROOT
HETATM    1  O1  UNK     1      28.683  -5.547  39.775  1.00  0.00    -0.275 OA
HETATM    2  O2  UNK     1      29.471  -3.403  39.856  1.00  0.00    -0.260 OA
HETATM    3  C8  UNK     1      29.848  -5.772  37.206  1.00  0.00    -0.011 A 
HETATM    4  C9  UNK     1      29.124  -6.908  37.794  1.00  0.00     0.012 A 
HETATM    5  C10 UNK     1      28.961  -8.143  37.153  1.00  0.00    -0.048 A 
HETATM    6  C11 UNK     1      29.947  -4.633  37.906  1.00  0.00     0.092 A 
HETATM    7  C12 UNK     1      28.563  -6.758  39.063  1.00  0.00     0.091 A 
HETATM    8  C13 UNK     1      28.259  -9.183  37.772  1.00  0.00     0.014 A 
HETATM    9  C14 UNK     1      27.860  -7.787  39.694  1.00  0.00     0.045 A 
HETATM   10  C15 UNK     1      27.709  -9.005  39.040  1.00  0.00    -0.059 A 
HETATM   11  C16 UNK     1      29.360  -4.459  39.245  1.00  0.00     0.288 A 
HETATM   12  C17 UNK     1      29.496  -8.477  35.797  1.00  0.00     0.049 C 
HETATM   13  C18 UNK     1      26.963 -10.117  39.696  1.00  0.00     0.048 C 
ENDROOT
BRANCH   3  14
HETATM   14  C7  UNK     1      30.480  -5.822  35.858  1.00  0.00     0.312 C 
BRANCH  14  15
HETATM   15  N1  UNK     1      31.929  -5.616  35.919  1.00  0.00     0.092 N 
HETATM   16  C1  UNK     1      32.428  -5.195  34.606  1.00  0.00     0.272 C 
HETATM   17  C3  UNK     1      33.946  -5.187  34.401  1.00  0.00     0.030 C 
HETATM   18  C5  UNK     1      34.750  -4.711  35.607  1.00  0.00     0.002 C 
HETATM   19  C6  UNK     1      35.019  -5.840  36.598  1.00  0.00     0.002 C 
HETATM   20  C4  UNK     1      33.794  -6.355  37.346  1.00  0.00     0.030 C 
HETATM   21  C2  UNK     1      32.609  -6.785  36.477  1.00  0.00     0.272 C 
ENDBRANCH  14  15
ENDBRANCH   3  14
TORSDOF 2
ENDMDL
MODEL 3
REMARK VINA RESULT:      -7.9      1.552      2.667
REMARK  2 active torsions:
REMARK  status: ('A' for Active; 'I' for Inactive)
REMARK    1  A    between atoms: C7_10  and  N1_3 
REMARK    2  A    between atoms: C7_10  and  C8_11 
ROOT
HETATM    1  O1  UNK     1      18.290   1.952  33.293  1.00  0.00    -0.275 OA
HETATM    2  O2  UNK     1      18.081   2.389  35.527  1.00  0.00    -0.260 OA
HETATM    3  C8  UNK     1      18.466   4.744  32.864  1.00  0.00    -0.011 A 
HETATM    4  C9  UNK     1      18.539   3.813  31.729  1.00  0.00     0.012 A 
HETATM    5  C10 UNK     1      18.697   4.221  30.398  1.00  0.00    -0.048 A 
HETATM    6  C11 UNK     1      18.315   4.248  34.101  1.00  0.00     0.092 A 
HETATM    7  C12 UNK     1      18.449   2.444  31.981  1.00  0.00     0.091 A 
HETATM    8  C13 UNK     1      18.760   3.280  29.365  1.00  0.00     0.014 A 
HETATM    9  C14 UNK     1      18.510   1.492  30.961  1.00  0.00     0.045 A 
HETATM   10  C15 UNK     1      18.666   1.917  29.646  1.00  0.00    -0.059 A 
HETATM   11  C16 UNK     1      18.218   2.807  34.383  1.00  0.00     0.288 A 
HETATM   12  C17 UNK     1      18.812   5.642  29.950  1.00  0.00     0.049 C 
HETATM   13  C18 UNK     1      18.735   0.919  28.540  1.00  0.00     0.048 C 
ENDROOT
BRANCH   3  14
HETATM   14  C7  UNK     1      18.546   6.223  32.709  1.00  0.00     0.312 C 
BRANCH  14  15
HETATM   15  N1  UNK     1      17.324   6.893  33.159  1.00  0.00     0.092 N 
HETATM   16  C1  UNK     1      16.211   6.554  32.266  1.00  0.00     0.272 C 
HETATM   17  C3  UNK     1      14.919   7.362  32.415  1.00  0.00     0.030 C 
HETATM   18  C5  UNK     1      14.542   7.704  33.853  1.00  0.00     0.002 C 
HETATM   19  C6  UNK     1      15.240   8.971  34.343  1.00  0.00     0.002 C 
HETATM   20  C4  UNK     1      16.747   8.850  34.538  1.00  0.00     0.030 C 
HETATM   21  C2  UNK     1      17.539   8.330  33.335  1.00  0.00     0.272 C 
ENDBRANCH  14  15
ENDBRANCH   3  14
TORSDOF 2
ENDMDL
MODEL 4
REMARK VINA RESULT:      -7.8      3.413      8.010
REMARK  2 active torsions:
REMARK  status: ('A' for Active; 'I' for Inactive)
REMARK    1  A    between atoms: C7_10  and  N1_3 
REMARK    2  A    between atoms: C7_10  and  C8_11 
ROOT
HETATM    1  O1  UNK     1      14.589   8.756  32.681  1.00  0.00    -0.275 OA
HETATM    2  O2  UNK     1      13.644   6.863  31.817  1.00  0.00    -0.260 OA
HETATM    3  C8  UNK     1      16.990   7.294  33.000  1.00  0.00    -0.011 A 
HETATM    4  C9  UNK     1      16.923   8.706  33.402  1.00  0.00     0.012 A 
HETATM    5  C10 UNK     1      18.002   9.410  33.951  1.00  0.00    -0.048 A 
HETATM    6  C11 UNK     1      15.898   6.714  32.482  1.00  0.00     0.092 A 
HETATM    7  C12 UNK     1      15.721   9.393  33.229  1.00  0.00     0.091 A 
HETATM    8  C13 UNK     1      17.869  10.756  34.311  1.00  0.00     0.014 A 
HETATM    9  C14 UNK     1      15.573  10.736  33.583  1.00  0.00     0.045 A 
HETATM   10  C15 UNK     1      16.656  11.417  34.127  1.00  0.00    -0.059 A 
HETATM   11  C16 UNK     1      14.623   7.425  32.294  1.00  0.00     0.288 A 
HETATM   12  C17 UNK     1      19.358   8.833  34.203  1.00  0.00     0.049 C 
HETATM   13  C18 UNK     1      16.520  12.852  34.512  1.00  0.00     0.048 C 
ENDROOT
BRANCH   3  14
HETATM   14  C7  UNK     1      18.220   6.465  33.145  1.00  0.00     0.312 C 
BRANCH  14  15
HETATM   15  N1  UNK     1      18.254   5.355  32.190  1.00  0.00     0.092 N 
HETATM   16  C1  UNK     1      18.136   4.079  32.904  1.00  0.00     0.272 C 
HETATM   17  C3  UNK     1      18.416   2.801  32.109  1.00  0.00     0.030 C 
HETATM   18  C5  UNK     1      17.899   2.814  30.674  1.00  0.00     0.002 C 
HETATM   19  C6  UNK     1      18.886   3.474  29.715  1.00  0.00     0.002 C 
HETATM   20  C4  UNK     1      19.062   4.979  29.895  1.00  0.00     0.030 C 
HETATM   21  C2  UNK     1      19.418   5.447  31.308  1.00  0.00     0.272 C 
ENDBRANCH  14  15
ENDBRANCH   3  14
TORSDOF 2
ENDMDL
MODEL 5
REMARK VINA RESULT:      -7.6     23.020     24.653
REMARK  2 active torsions:
REMARK  status: ('A' for Active; 'I' for Inactive)
REMARK    1  A    between atoms: C7_10  and  N1_3 
REMARK    2  A    between atoms: C7_10  and  C8_11 
ROOT
HETATM    1  O1  UNK     1      16.285   6.176   9.785  1.00  0.00    -0.275 OA
HETATM    2  O2  UNK     1      15.547   4.012   9.733  1.00  0.00    -0.260 OA
HETATM    3  C8  UNK     1      13.579   6.991   9.912  1.00  0.00    -0.011 A 
HETATM    4  C9  UNK     1      14.656   7.992   9.909  1.00  0.00     0.012 A 
HETATM    5  C10 UNK     1      14.434   9.374   9.968  1.00  0.00    -0.048 A 
HETATM    6  C11 UNK     1      13.901   5.691   9.853  1.00  0.00     0.092 A 
HETATM    7  C12 UNK     1      15.978   7.549   9.845  1.00  0.00     0.091 A 
HETATM    8  C13 UNK     1      15.507  10.271   9.962  1.00  0.00     0.014 A 
HETATM    9  C14 UNK     1      17.060   8.433   9.839  1.00  0.00     0.045 A 
HETATM   10  C15 UNK     1      16.818   9.801   9.898  1.00  0.00    -0.059 A 
HETATM   11  C16 UNK     1      15.290   5.209   9.785  1.00  0.00     0.288 A 
HETATM   12  C17 UNK     1      13.087  10.019  10.043  1.00  0.00     0.049 C 
HETATM   13  C18 UNK     1      17.958  10.762   9.893  1.00  0.00     0.048 C 
ENDROOT
BRANCH   3  14
HETATM   14  C7  UNK     1      12.135   7.352   9.972  1.00  0.00     0.312 C 
BRANCH  14  15
HETATM   15  N1  UNK     1      11.401   6.892   8.791  1.00  0.00     0.092 N 
HETATM   16  C1  UNK     1      12.057   7.382   7.574  1.00  0.00     0.272 C 
HETATM   17  C3  UNK     1      11.294   7.230   6.254  1.00  0.00     0.030 C 
HETATM   18  C5  UNK     1      10.513   5.927   6.115  1.00  0.00     0.002 C 
HETATM   19  C6  UNK     1       9.131   6.016   6.756  1.00  0.00     0.002 C 
HETATM   20  C4  UNK     1       9.123   6.109   8.278  1.00  0.00     0.030 C 
HETATM   21  C2  UNK     1       9.979   7.225   8.885  1.00  0.00     0.272 C 
ENDBRANCH  14  15
ENDBRANCH   3  14
TORSDOF 2
ENDMDL
MODEL 6
REMARK VINA RESULT:      -7.6     14.844     16.260
REMARK  2 active torsions:
REMARK  status: ('A' for Active; 'I' for Inactive)
REMARK    1  A    between atoms: C7_10  and  N1_3 
REMARK    2  A    between atoms: C7_10  and  C8_11 
ROOT
HETATM    1  O1  UNK     1      30.943  -3.725  38.350  1.00  0.00    -0.275 OA
HETATM    2  O2  UNK     1      29.472  -3.562  40.093  1.00  0.00    -0.260 OA
HETATM    3  C8  UNK     1      29.293  -5.758  37.278  1.00  0.00    -0.011 A 
HETATM    4  C9  UNK     1      30.516  -5.348  36.574  1.00  0.00     0.012 A 
HETATM    5  C10 UNK     1      30.943  -5.909  35.364  1.00  0.00    -0.048 A 
HETATM    6  C11 UNK     1      28.974  -5.155  38.432  1.00  0.00     0.092 A 
HETATM    7  C12 UNK     1      31.303  -4.341  37.135  1.00  0.00     0.091 A 
HETATM    8  C13 UNK     1      32.119  -5.469  34.747  1.00  0.00     0.014 A 
HETATM    9  C14 UNK     1      32.480  -3.891  36.532  1.00  0.00     0.045 A 
HETATM   10  C15 UNK     1      32.886  -4.462  35.330  1.00  0.00    -0.059 A 
HETATM   11  C16 UNK     1      29.795  -4.092  39.036  1.00  0.00     0.288 A 
HETATM   12  C17 UNK     1      30.223  -6.991  34.625  1.00  0.00     0.049 C 
HETATM   13  C18 UNK     1      34.138  -3.996  34.667  1.00  0.00     0.048 C 
ENDROOT
BRANCH   3  14
HETATM   14  C7  UNK     1      28.384  -6.825  36.772  1.00  0.00     0.312 C 
BRANCH  14  15
HETATM   15  N1  UNK     1      27.994  -7.764  37.826  1.00  0.00     0.092 N 
HETATM   16  C1  UNK     1      29.087  -8.709  38.081  1.00  0.00     0.272 C 
HETATM   17  C3  UNK     1      28.774  -9.926  38.956  1.00  0.00     0.030 C 
HETATM   18  C5  UNK     1      27.846  -9.645  40.133  1.00  0.00     0.002 C 
HETATM   19  C6  UNK     1      26.375  -9.715  39.732  1.00  0.00     0.002 C 
HETATM   20  C4  UNK     1      25.897  -8.599  38.810  1.00  0.00     0.030 C 
HETATM   21  C2  UNK     1      26.708  -8.396  37.527  1.00  0.00     0.272 C 
ENDBRANCH  14  15
ENDBRANCH   3  14
TORSDOF 2
ENDMDL
MODEL 7
REMARK VINA RESULT:      -7.4     14.894     16.588
REMARK  2 active torsions:
REMARK  status: ('A' for Active; 'I' for Inactive)
REMARK    1  A    between atoms: C7_10  and  N1_3 
REMARK    2  A    between atoms: C7_10  and  C8_11 
ROOT
HETATM    1  O1  UNK     1      28.225  -5.175  39.203  1.00  0.00    -0.275 OA
HETATM    2  O2  UNK     1      29.550  -3.442  39.887  1.00  0.00    -0.260 OA
HETATM    3  C8  UNK     1      30.572  -6.497  38.337  1.00  0.00    -0.011 A 
HETATM    4  C9  UNK     1      29.258  -7.134  38.171  1.00  0.00     0.012 A 
HETATM    5  C10 UNK     1      29.073  -8.397  37.594  1.00  0.00    -0.048 A 
HETATM    6  C11 UNK     1      30.639  -5.284  38.904  1.00  0.00     0.092 A 
HETATM    7  C12 UNK     1      28.124  -6.449  38.610  1.00  0.00     0.091 A 
HETATM    8  C13 UNK     1      27.792  -8.944  37.467  1.00  0.00     0.014 A 
HETATM    9  C14 UNK     1      26.839  -6.983  38.490  1.00  0.00     0.045 A 
HETATM   10  C15 UNK     1      26.677  -8.238  37.914  1.00  0.00    -0.059 A 
HETATM   11  C16 UNK     1      29.451  -4.550  39.372  1.00  0.00     0.288 A 
HETATM   12  C17 UNK     1      30.173  -9.266  37.073  1.00  0.00     0.049 C 
HETATM   13  C18 UNK     1      25.314  -8.828  37.778  1.00  0.00     0.048 C 
ENDROOT
BRANCH   3  14
HETATM   14  C7  UNK     1      31.846  -7.134  37.899  1.00  0.00     0.312 C 
BRANCH  14  15
HETATM   15  N1  UNK     1      32.582  -6.300  36.947  1.00  0.00     0.092 N 
HETATM   16  C1  UNK     1      31.798  -6.137  35.718  1.00  0.00     0.272 C 
HETATM   17  C3  UNK     1      32.508  -5.522  34.508  1.00  0.00     0.030 C 
HETATM   18  C5  UNK     1      33.473  -4.389  34.842  1.00  0.00     0.002 C 
HETATM   19  C6  UNK     1      34.856  -4.909  35.228  1.00  0.00     0.002 C 
HETATM   20  C4  UNK     1      34.925  -5.649  36.560  1.00  0.00     0.030 C 
HETATM   21  C2  UNK     1      33.938  -6.807  36.734  1.00  0.00     0.272 C 
ENDBRANCH  14  15
ENDBRANCH   3  14
TORSDOF 2
ENDMDL
MODEL 8
REMARK VINA RESULT:      -7.4     22.529     24.129
REMARK  2 active torsions:
REMARK  status: ('A' for Active; 'I' for Inactive)
REMARK    1  A    between atoms: C7_10  and  N1_3 
REMARK    2  A    between atoms: C7_10  and  C8_11 
ROOT
HETATM    1  O1  UNK     1      14.366   5.129   8.357  1.00  0.00    -0.275 OA
HETATM    2  O2  UNK     1      16.312   4.642   9.453  1.00  0.00    -0.260 OA
HETATM    3  C8  UNK     1      14.089   7.376  10.053  1.00  0.00    -0.011 A 
HETATM    4  C9  UNK     1      13.077   7.093   9.026  1.00  0.00     0.012 A 
HETATM    5  C10 UNK     1      11.940   7.884   8.815  1.00  0.00    -0.048 A 
HETATM    6  C11 UNK     1      15.142   6.554  10.171  1.00  0.00     0.092 A 
HETATM    7  C12 UNK     1      13.249   5.975   8.209  1.00  0.00     0.091 A 
HETATM    8  C13 UNK     1      11.015   7.556   7.818  1.00  0.00     0.014 A 
HETATM    9  C14 UNK     1      12.335   5.634   7.210  1.00  0.00     0.045 A 
HETATM   10  C15 UNK     1      11.213   6.433   7.016  1.00  0.00    -0.059 A 
HETATM   11  C16 UNK     1      15.337   5.371   9.317  1.00  0.00     0.288 A 
HETATM   12  C17 UNK     1      11.601   9.115   9.594  1.00  0.00     0.049 C 
HETATM   13  C18 UNK     1      10.224   6.089   5.954  1.00  0.00     0.048 C 
ENDROOT
BRANCH   3  14
HETATM   14  C7  UNK     1      14.002   8.538  10.981  1.00  0.00     0.312 C 
BRANCH  14  15
HETATM   15  N1  UNK     1      15.068   9.515  10.744  1.00  0.00     0.092 N 
HETATM   16  C1  UNK     1      14.808  10.734  11.518  1.00  0.00     0.272 C 
HETATM   17  C3  UNK     1      15.663  11.964  11.200  1.00  0.00     0.030 C 
HETATM   18  C5  UNK     1      17.128  11.662  10.899  1.00  0.00     0.002 C 
HETATM   19  C6  UNK     1      17.347  11.290   9.435  1.00  0.00     0.002 C 
HETATM   20  C4  UNK     1      16.760   9.949   9.009  1.00  0.00     0.030 C 
HETATM   21  C2  UNK     1      15.274   9.742   9.313  1.00  0.00     0.272 C 
ENDBRANCH  14  15
ENDBRANCH   3  14
TORSDOF 2
ENDMDL
MODEL 9
REMARK VINA RESULT:      -7.4      4.589      6.972
REMARK  2 active torsions:
REMARK  status: ('A' for Active; 'I' for Inactive)
REMARK    1  A    between atoms: C7_10  and  N1_3 
REMARK    2  A    between atoms: C7_10  and  C8_11 
ROOT
HETATM    1  O1  UNK     1      15.804   6.479  31.553  1.00  0.00    -0.275 OA
HETATM    2  O2  UNK     1      13.553   6.844  31.721  1.00  0.00    -0.260 OA
HETATM    3  C8  UNK     1      16.155   8.265  33.719  1.00  0.00    -0.011 A 
HETATM    4  C9  UNK     1      17.318   7.622  33.092  1.00  0.00     0.012 A 
HETATM    5  C10 UNK     1      18.641   7.835  33.503  1.00  0.00    -0.048 A 
HETATM    6  C11 UNK     1      14.930   7.991  33.249  1.00  0.00     0.092 A 
HETATM    7  C12 UNK     1      17.104   6.748  32.025  1.00  0.00     0.091 A 
HETATM    8  C13 UNK     1      19.702   7.189  32.860  1.00  0.00     0.014 A 
HETATM    9  C14 UNK     1      18.153   6.096  31.374  1.00  0.00     0.045 A 
HETATM   10  C15 UNK     1      19.458   6.321  31.797  1.00  0.00    -0.059 A 
HETATM   11  C16 UNK     1      14.688   7.072  32.125  1.00  0.00     0.288 A 
HETATM   12  C17 UNK     1      19.050   8.734  34.625  1.00  0.00     0.049 C 
HETATM   13  C18 UNK     1      20.594   5.634  31.116  1.00  0.00     0.048 C 
ENDROOT
BRANCH   3  14
HETATM   14  C7  UNK     1      16.270   9.218  34.858  1.00  0.00     0.312 C 
BRANCH  14  15
HETATM   15  N1  UNK     1      15.622  10.500  34.573  1.00  0.00     0.092 N 
HETATM   16  C1  UNK     1      16.639  11.533  34.347  1.00  0.00     0.272 C 
HETATM   17  C3  UNK     1      16.164  12.988  34.297  1.00  0.00     0.030 C 
HETATM   18  C5  UNK     1      14.827  13.200  33.593  1.00  0.00     0.002 C 
HETATM   19  C6  UNK     1      13.643  12.979  34.531  1.00  0.00     0.002 C 
HETATM   20  C4  UNK     1      13.426  11.537  34.978  1.00  0.00     0.030 C 
HETATM   21  C2  UNK     1      14.637  10.839  35.602  1.00  0.00     0.272 C 
ENDBRANCH  14  15
ENDBRANCH   3  14
TORSDOF 2
ENDMDL
MODEL 10
REMARK VINA RESULT:      -7.3     14.877     17.187
REMARK  2 active torsions:
REMARK  status: ('A' for Active; 'I' for Inactive)
REMARK    1  A    between atoms: C7_10  and  N1_3 
REMARK    2  A    between atoms: C7_10  and  C8_11 
ROOT
HETATM    1  O1  UNK     1      29.537  -9.307  38.207  1.00  0.00    -0.275 OA
HETATM    2  O2  UNK     1      31.431 -10.550  37.901  1.00  0.00    -0.260 OA
HETATM    3  C8  UNK     1      31.184  -7.011  38.335  1.00  0.00    -0.011 A 
HETATM    4  C9  UNK     1      29.727  -6.886  38.473  1.00  0.00     0.012 A 
HETATM    5  C10 UNK     1      29.065  -5.667  38.670  1.00  0.00    -0.048 A 
HETATM    6  C11 UNK     1      31.717  -8.226  38.147  1.00  0.00     0.092 A 
HETATM    7  C12 UNK     1      28.948  -8.042  38.404  1.00  0.00     0.091 A 
HETATM    8  C13 UNK     1      27.672  -5.621  38.793  1.00  0.00     0.014 A 
HETATM    9  C14 UNK     1      27.557  -8.012  38.525  1.00  0.00     0.045 A 
HETATM   10  C15 UNK     1      26.920  -6.792  38.721  1.00  0.00    -0.059 A 
HETATM   11  C16 UNK     1      30.909  -9.455  38.073  1.00  0.00     0.288 A 
HETATM   12  C17 UNK     1      29.740  -4.336  38.765  1.00  0.00     0.049 C 
HETATM   13  C18 UNK     1      25.435  -6.737  38.851  1.00  0.00     0.048 C 
ENDROOT
BRANCH   3  14
HETATM   14  C7  UNK     1      32.109  -5.844  38.397  1.00  0.00     0.312 C 
BRANCH  14  15
HETATM   15  N1  UNK     1      32.926  -5.721  37.188  1.00  0.00     0.092 N 
HETATM   16  C1  UNK     1      34.329  -6.006  37.503  1.00  0.00     0.272 C 
HETATM   17  C3  UNK     1      35.372  -5.672  36.433  1.00  0.00     0.030 C 
HETATM   18  C5  UNK     1      34.935  -5.967  35.001  1.00  0.00     0.002 C 
HETATM   19  C6  UNK     1      34.134  -4.817  34.398  1.00  0.00     0.002 C 
HETATM   20  C4  UNK     1      32.752  -4.598  35.004  1.00  0.00     0.030 C 
HETATM   21  C2  UNK     1      32.706  -4.435  36.526  1.00  0.00     0.272 C 
ENDBRANCH  14  15
ENDBRANCH   3  14
TORSDOF 2
ENDMDL
