MODEL 1
REMARK VINA RESULT:      -9.1      0.000      0.000
REMARK  6 active torsions:
REMARK  status: ('A' for Active; 'I' for Inactive)
REMARK    1  A    between atoms: C2_8  and  O1_4 
REMARK    2  A    between atoms: C4_10  and  O1_4 
REMARK    3  A    between atoms: C3_9  and  O2_5 
REMARK    4  A    between atoms: C1_7  and  C9_15 
REMARK    5  A    between atoms: C4_10  and  C8_14 
REMARK    6  A    between atoms: C10_16  and  C11_17 
ROOT
HETATM    1  N1  UNK     1      22.030  -1.673  35.317  1.00  0.00    -0.191 NA
HETATM    2  C9  UNK     1      18.781  -2.577  36.033  1.00  0.00     0.036 C 
HETATM    3  C10 UNK     1      20.033  -3.084  36.199  1.00  0.00     0.055 C 
HETATM    4  C23 UNK     1      21.132  -2.295  35.707  1.00  0.00     0.100 C 
ENDROOT
BRANCH   3   5
HETATM    5  C11 UNK     1      20.312  -4.357  36.843  1.00  0.00    -0.014 A 
HETATM    6  C14 UNK     1      19.546  -5.481  36.530  1.00  0.00     0.032 A 
HETATM    7  C19 UNK     1      19.814  -6.702  37.148  1.00  0.00     0.011 A 
HETATM    8 Br2  UNK     1      18.779  -8.225  36.724  1.00  0.00    -0.051 Br
HETATM    9  C21 UNK     1      20.849  -6.801  38.078  1.00  0.00     0.019 A 
HETATM   10  C20 UNK     1      21.614  -5.677  38.391  1.00  0.00     0.002 A 
HETATM   11  C15 UNK     1      21.346  -4.456  37.774  1.00  0.00     0.013 A 
ENDBRANCH   3   5
BRANCH   2  12
HETATM   12  C1  UNK     1      18.453  -1.294  35.395  1.00  0.00    -0.015 A 
HETATM   13  C5  UNK     1      18.644  -1.202  34.022  1.00  0.00     0.052 A 
HETATM   14  C3  UNK     1      18.348  -0.008  33.364  1.00  0.00     0.102 A 
HETATM   15  C2  UNK     1      17.865   1.085  34.086  1.00  0.00     0.103 A 
HETATM   16  C7  UNK     1      17.677   0.981  35.465  1.00  0.00     0.059 A 
HETATM   17  C6  UNK     1      17.972  -0.212  36.122  1.00  0.00     0.024 A 
HETATM   18 Br1  UNK     1      17.694  -0.284  38.000  1.00  0.00    -0.050 Br
BRANCH  14  19
HETATM   19  O2  UNK     1      18.535   0.080  32.019  1.00  0.00    -0.353 OA
HETATM   20  C22 UNK     1      19.547  -0.748  31.450  1.00  0.00     0.210 C 
ENDBRANCH  14  19
BRANCH  15  21
HETATM   21  O1  UNK     1      17.572   2.256  33.455  1.00  0.00    -0.344 OA
BRANCH  21  22
HETATM   22  C4  UNK     1      18.263   3.422  33.901  1.00  0.00     0.214 C 
BRANCH  22  23
HETATM   23  C8  UNK     1      18.695   4.221  32.707  1.00  0.00    -0.034 A 
HETATM   24  C12 UNK     1      18.592   3.668  31.435  1.00  0.00     0.012 A 
HETATM   25  C16 UNK     1      18.994   4.410  30.325  1.00  0.00     0.043 A 
HETATM   26  C18 UNK     1      19.495   5.701  30.493  1.00  0.00     0.116 A 
HETATM   27  C17 UNK     1      19.596   6.249  31.772  1.00  0.00     0.043 A 
HETATM   28  F1  UNK     1      19.881   6.414  29.427  1.00  0.00    -0.206 F 
HETATM   29  C13 UNK     1      19.195   5.506  32.882  1.00  0.00     0.012 A 
ENDBRANCH  22  23
ENDBRANCH  21  22
ENDBRANCH  15  21
ENDBRANCH   2  12
TORSDOF 6
ENDMDL
MODEL 2
REMARK VINA RESULT:      -9.1      1.522      1.961
REMARK  6 active torsions:
REMARK  status: ('A' for Active; 'I' for Inactive)
REMARK    1  A    between atoms: C2_8  and  O1_4 
REMARK    2  A    between atoms: C4_10  and  O1_4 
REMARK    3  A    between atoms: C3_9  and  O2_5 
REMARK    4  A    between atoms: C1_7  and  C9_15 
REMARK    5  A    between atoms: C4_10  and  C8_14 
REMARK    6  A    between atoms: C10_16  and  C11_17 
ROOT
HETATM    1  N1  UNK     1      21.976  -1.755  35.366  1.00  0.00    -0.191 NA
HETATM    2  C9  UNK     1      18.638  -2.374  35.966  1.00  0.00     0.036 C 
HETATM    3  C10 UNK     1      19.835  -2.987  36.173  1.00  0.00     0.055 C 
HETATM    4  C23 UNK     1      21.015  -2.297  35.723  1.00  0.00     0.100 C 
ENDROOT
BRANCH   3   5
HETATM    5  C11 UNK     1      19.980  -4.280  36.822  1.00  0.00    -0.014 A 
HETATM    6  C14 UNK     1      21.135  -4.572  37.548  1.00  0.00     0.032 A 
HETATM    7  C19 UNK     1      21.274  -5.813  38.170  1.00  0.00     0.011 A 
HETATM    8 Br2  UNK     1      22.837  -6.209  39.154  1.00  0.00    -0.051 Br
HETATM    9  C21 UNK     1      20.256  -6.761  38.068  1.00  0.00     0.019 A 
HETATM   10  C20 UNK     1      19.101  -6.470  37.342  1.00  0.00     0.002 A 
HETATM   11  C15 UNK     1      18.962  -5.230  36.720  1.00  0.00     0.013 A 
ENDBRANCH   3   5
BRANCH   2  12
HETATM   12  C1  UNK     1      18.445  -1.067  35.323  1.00  0.00    -0.015 A 
HETATM   13  C5  UNK     1      18.653  -1.000  33.950  1.00  0.00     0.052 A 
HETATM   14  C3  UNK     1      18.482   0.215  33.287  1.00  0.00     0.102 A 
HETATM   15  C2  UNK     1      18.107   1.354  34.001  1.00  0.00     0.103 A 
HETATM   16  C7  UNK     1      17.900   1.275  35.379  1.00  0.00     0.059 A 
HETATM   17  C6  UNK     1      18.070   0.061  36.042  1.00  0.00     0.024 A 
HETATM   18 Br1  UNK     1      17.773   0.025  37.919  1.00  0.00    -0.050 Br
BRANCH  14  19
HETATM   19  O2  UNK     1      18.687   0.279  31.942  1.00  0.00    -0.353 OA
HETATM   20  C22 UNK     1      19.628  -0.636  31.385  1.00  0.00     0.210 C 
ENDBRANCH  14  19
BRANCH  15  21
HETATM   21  O1  UNK     1      17.937   2.546  33.365  1.00  0.00    -0.344 OA
BRANCH  21  22
HETATM   22  C4  UNK     1      18.473   3.704  34.004  1.00  0.00     0.214 C 
BRANCH  22  23
HETATM   23  C8  UNK     1      18.076   4.922  33.222  1.00  0.00    -0.034 A 
HETATM   24  C12 UNK     1      17.301   5.905  33.827  1.00  0.00     0.012 A 
HETATM   25  C16 UNK     1      16.932   7.036  33.101  1.00  0.00     0.043 A 
HETATM   26  C18 UNK     1      17.341   7.179  31.775  1.00  0.00     0.116 A 
HETATM   27  C17 UNK     1      18.118   6.188  31.175  1.00  0.00     0.043 A 
HETATM   28  F1  UNK     1      16.986   8.266  31.078  1.00  0.00    -0.206 F 
HETATM   29  C13 UNK     1      18.487   5.056  31.901  1.00  0.00     0.012 A 
ENDBRANCH  22  23
ENDBRANCH  21  22
ENDBRANCH  15  21
ENDBRANCH   2  12
TORSDOF 6
ENDMDL
MODEL 3
REMARK VINA RESULT:      -9.0      6.410      8.862
REMARK  6 active torsions:
REMARK  status: ('A' for Active; 'I' for Inactive)
REMARK    1  A    between atoms: C2_8  and  O1_4 
REMARK    2  A    between atoms: C4_10  and  O1_4 
REMARK    3  A    between atoms: C3_9  and  O2_5 
REMARK    4  A    between atoms: C1_7  and  C9_15 
REMARK    5  A    between atoms: C4_10  and  C8_14 
REMARK    6  A    between atoms: C10_16  and  C11_17 
ROOT
HETATM    1  N1  UNK     1      17.932   2.795  34.060  1.00  0.00    -0.191 NA
HETATM    2  C9  UNK     1      18.159   4.737  31.220  1.00  0.00     0.036 C 
HETATM    3  C10 UNK     1      18.269   3.424  31.561  1.00  0.00     0.055 C 
HETATM    4  C23 UNK     1      18.081   3.086  32.947  1.00  0.00     0.100 C 
ENDROOT
BRANCH   3   5
HETATM    5  C11 UNK     1      18.557   2.363  30.610  1.00  0.00    -0.014 A 
HETATM    6  C14 UNK     1      19.317   1.260  31.001  1.00  0.00     0.032 A 
HETATM    7  C19 UNK     1      19.593   0.242  30.089  1.00  0.00     0.011 A 
HETATM    8 Br2  UNK     1      20.621  -1.252  30.618  1.00  0.00    -0.051 Br
HETATM    9  C21 UNK     1      19.106   0.326  28.783  1.00  0.00     0.019 A 
HETATM   10  C20 UNK     1      18.347   1.428  28.391  1.00  0.00     0.002 A 
HETATM   11  C15 UNK     1      18.071   2.446  29.304  1.00  0.00     0.013 A 
ENDBRANCH   3   5
BRANCH   2  12
HETATM   12  C1  UNK     1      17.863   5.840  32.145  1.00  0.00    -0.015 A 
HETATM   13  C5  UNK     1      16.525   6.107  32.405  1.00  0.00     0.052 A 
HETATM   14  C3  UNK     1      16.186   7.143  33.276  1.00  0.00     0.102 A 
HETATM   15  C2  UNK     1      17.189   7.904  33.877  1.00  0.00     0.103 A 
HETATM   16  C7  UNK     1      18.530   7.628  33.609  1.00  0.00     0.059 A 
HETATM   17  C6  UNK     1      18.869   6.592  32.740  1.00  0.00     0.024 A 
HETATM   18 Br1  UNK     1      20.713   6.270  32.418  1.00  0.00    -0.050 Br
BRANCH  14  19
HETATM   19  O2  UNK     1      14.874   7.403  33.529  1.00  0.00    -0.353 OA
HETATM   20  C22 UNK     1      13.969   7.302  32.432  1.00  0.00     0.210 C 
ENDBRANCH  14  19
BRANCH  15  21
HETATM   21  O1  UNK     1      16.871   8.919  34.729  1.00  0.00    -0.344 OA
BRANCH  21  22
HETATM   22  C4  UNK     1      16.872  10.241  34.192  1.00  0.00     0.214 C 
BRANCH  22  23
HETATM   23  C8  UNK     1      15.479  10.794  34.249  1.00  0.00    -0.034 A 
HETATM   24  C12 UNK     1      14.990  11.304  35.447  1.00  0.00     0.012 A 
HETATM   25  C16 UNK     1      13.695  11.818  35.500  1.00  0.00     0.043 A 
HETATM   26  C18 UNK     1      12.897  11.820  34.357  1.00  0.00     0.116 A 
HETATM   27  C17 UNK     1      13.395  11.306  33.158  1.00  0.00     0.043 A 
HETATM   28  F1  UNK     1      11.653  12.314  34.408  1.00  0.00    -0.206 F 
HETATM   29  C13 UNK     1      14.690  10.791  33.105  1.00  0.00     0.012 A 
ENDBRANCH  22  23
ENDBRANCH  21  22
ENDBRANCH  15  21
ENDBRANCH   2  12
TORSDOF 6
ENDMDL
MODEL 4
REMARK VINA RESULT:      -8.8      5.442     10.260
REMARK  6 active torsions:
REMARK  status: ('A' for Active; 'I' for Inactive)
REMARK    1  A    between atoms: C2_8  and  O1_4 
REMARK    2  A    between atoms: C4_10  and  O1_4 
REMARK    3  A    between atoms: C3_9  and  O2_5 
REMARK    4  A    between atoms: C1_7  and  C9_15 
REMARK    5  A    between atoms: C4_10  and  C8_14 
REMARK    6  A    between atoms: C10_16  and  C11_17 
ROOT
HETATM    1  N1  UNK     1      21.627   6.141  32.831  1.00  0.00    -0.191 NA
HETATM    2  C9  UNK     1      18.180   6.223  32.879  1.00  0.00     0.036 C 
HETATM    3  C10 UNK     1      19.217   7.057  33.162  1.00  0.00     0.055 C 
HETATM    4  C23 UNK     1      20.547   6.540  32.976  1.00  0.00     0.100 C 
ENDROOT
BRANCH   3   5
HETATM    5  C11 UNK     1      19.051   8.424  33.630  1.00  0.00    -0.014 A 
HETATM    6  C14 UNK     1      17.792   9.025  33.600  1.00  0.00     0.032 A 
HETATM    7  C19 UNK     1      17.633  10.336  34.049  1.00  0.00     0.011 A 
HETATM    8 Br2  UNK     1      15.929  11.150  34.010  1.00  0.00    -0.051 Br
HETATM    9  C21 UNK     1      18.734  11.046  34.529  1.00  0.00     0.019 A 
HETATM   10  C20 UNK     1      19.993  10.446  34.558  1.00  0.00     0.002 A 
HETATM   11  C15 UNK     1      20.151   9.135  34.109  1.00  0.00     0.013 A 
ENDBRANCH   3   5
BRANCH   2  12
HETATM   12  C1  UNK     1      18.300   4.839  32.399  1.00  0.00    -0.015 A 
HETATM   13  C5  UNK     1      18.066   3.826  33.321  1.00  0.00     0.052 A 
HETATM   14  C3  UNK     1      18.165   2.494  32.920  1.00  0.00     0.102 A 
HETATM   15  C2  UNK     1      18.498   2.185  31.600  1.00  0.00     0.103 A 
HETATM   16  C7  UNK     1      18.732   3.210  30.682  1.00  0.00     0.059 A 
HETATM   17  C6  UNK     1      18.632   4.542  31.083  1.00  0.00     0.024 A 
HETATM   18 Br1  UNK     1      18.963   5.888  29.783  1.00  0.00    -0.050 Br
BRANCH  14  19
HETATM   19  O2  UNK     1      17.935   1.503  33.825  1.00  0.00    -0.353 OA
HETATM   20  C22 UNK     1      18.514   1.658  35.118  1.00  0.00     0.210 C 
ENDBRANCH  14  19
BRANCH  15  21
HETATM   21  O1  UNK     1      18.598   0.888  31.196  1.00  0.00    -0.344 OA
BRANCH  21  22
HETATM   22  C4  UNK     1      19.719   0.547  30.382  1.00  0.00     0.214 C 
BRANCH  22  23
HETATM   23  C8  UNK     1      20.190  -0.829  30.749  1.00  0.00    -0.034 A 
HETATM   24  C12 UNK     1      20.456  -1.755  29.746  1.00  0.00     0.012 A 
HETATM   25  C16 UNK     1      20.894  -3.034  30.087  1.00  0.00     0.043 A 
HETATM   26  C18 UNK     1      21.064  -3.379  31.428  1.00  0.00     0.116 A 
HETATM   27  C17 UNK     1      20.795  -2.444  32.428  1.00  0.00     0.043 A 
HETATM   28  F1  UNK     1      21.484  -4.609  31.755  1.00  0.00    -0.206 F 
HETATM   29  C13 UNK     1      20.357  -1.166  32.087  1.00  0.00     0.012 A 
ENDBRANCH  22  23
ENDBRANCH  21  22
ENDBRANCH  15  21
ENDBRANCH   2  12
TORSDOF 6
ENDMDL
MODEL 5
REMARK VINA RESULT:      -8.8     12.149     14.029
REMARK  6 active torsions:
REMARK  status: ('A' for Active; 'I' for Inactive)
REMARK    1  A    between atoms: C2_8  and  O1_4 
REMARK    2  A    between atoms: C4_10  and  O1_4 
REMARK    3  A    between atoms: C3_9  and  O2_5 
REMARK    4  A    between atoms: C1_7  and  C9_15 
REMARK    5  A    between atoms: C4_10  and  C8_14 
REMARK    6  A    between atoms: C10_16  and  C11_17 
ROOT
HETATM    1  N1  UNK     1      27.282 -10.327  39.795  1.00  0.00    -0.191 NA
HETATM    2  C9  UNK     1      27.480  -8.886  36.669  1.00  0.00     0.036 C 
HETATM    3  C10 UNK     1      26.655  -9.731  37.343  1.00  0.00     0.055 C 
HETATM    4  C23 UNK     1      27.011 -10.055  38.700  1.00  0.00     0.100 C 
ENDROOT
BRANCH   3   5
HETATM    5  C11 UNK     1      25.448 -10.310  36.775  1.00  0.00    -0.014 A 
HETATM    6  C14 UNK     1      24.286  -9.544  36.675  1.00  0.00     0.032 A 
HETATM    7  C19 UNK     1      23.129 -10.099  36.129  1.00  0.00     0.011 A 
HETATM    8 Br2  UNK     1      21.555  -9.062  35.991  1.00  0.00    -0.051 Br
HETATM    9  C21 UNK     1      23.133 -11.420  35.682  1.00  0.00     0.019 A 
HETATM   10  C20 UNK     1      24.294 -12.187  35.782  1.00  0.00     0.002 A 
HETATM   11  C15 UNK     1      25.451 -11.632  36.328  1.00  0.00     0.013 A 
ENDBRANCH   3   5
BRANCH   2  12
HETATM   12  C1  UNK     1      28.704  -8.273  37.204  1.00  0.00    -0.015 A 
HETATM   13  C5  UNK     1      29.912  -8.865  36.857  1.00  0.00     0.052 A 
HETATM   14  C3  UNK     1      31.106  -8.324  37.336  1.00  0.00     0.102 A 
HETATM   15  C2  UNK     1      31.080  -7.198  38.159  1.00  0.00     0.103 A 
HETATM   16  C7  UNK     1      29.862  -6.612  38.502  1.00  0.00     0.059 A 
HETATM   17  C6  UNK     1      28.668  -7.151  38.023  1.00  0.00     0.024 A 
HETATM   18 Br1  UNK     1      27.045  -6.305  38.528  1.00  0.00    -0.050 Br
BRANCH  14  19
HETATM   19  O2  UNK     1      32.289  -8.905  36.994  1.00  0.00    -0.353 OA
HETATM   20  C22 UNK     1      32.581  -9.011  35.603  1.00  0.00     0.210 C 
ENDBRANCH  14  19
BRANCH  15  21
HETATM   21  O1  UNK     1      32.239  -6.662  38.633  1.00  0.00    -0.344 OA
BRANCH  21  22
HETATM   22  C4  UNK     1      32.497  -5.294  38.318  1.00  0.00     0.214 C 
BRANCH  22  23
HETATM   23  C8  UNK     1      33.263  -5.225  37.030  1.00  0.00    -0.034 A 
HETATM   24  C12 UNK     1      34.458  -5.925  36.902  1.00  0.00     0.012 A 
HETATM   25  C16 UNK     1      35.170  -5.861  35.705  1.00  0.00     0.043 A 
HETATM   26  C18 UNK     1      34.684  -5.099  34.643  1.00  0.00     0.116 A 
HETATM   27  C17 UNK     1      33.484  -4.400  34.779  1.00  0.00     0.043 A 
HETATM   28  F1  UNK     1      35.368  -5.037  33.493  1.00  0.00    -0.206 F 
HETATM   29  C13 UNK     1      32.772  -4.463  35.976  1.00  0.00     0.012 A 
ENDBRANCH  22  23
ENDBRANCH  21  22
ENDBRANCH  15  21
ENDBRANCH   2  12
TORSDOF 6
ENDMDL
MODEL 6
REMARK VINA RESULT:      -8.4     11.716     14.085
REMARK  6 active torsions:
REMARK  status: ('A' for Active; 'I' for Inactive)
REMARK    1  A    between atoms: C2_8  and  O1_4 
REMARK    2  A    between atoms: C4_10  and  O1_4 
REMARK    3  A    between atoms: C3_9  and  O2_5 
REMARK    4  A    between atoms: C1_7  and  C9_15 
REMARK    5  A    between atoms: C4_10  and  C8_14 
REMARK    6  A    between atoms: C10_16  and  C11_17 
ROOT
HETATM    1  N1  UNK     1      27.535 -10.464  39.532  1.00  0.00    -0.191 NA
HETATM    2  C9  UNK     1      27.397  -8.806  36.512  1.00  0.00     0.036 C 
HETATM    3  C10 UNK     1      26.672  -9.736  37.191  1.00  0.00     0.055 C 
HETATM    4  C23 UNK     1      27.158 -10.133  38.486  1.00  0.00     0.100 C 
ENDROOT
BRANCH   3   5
HETATM    5  C11 UNK     1      25.448 -10.336  36.684  1.00  0.00    -0.014 A 
HETATM    6  C14 UNK     1      24.277  -9.580  36.612  1.00  0.00     0.032 A 
HETATM    7  C19 UNK     1      23.104 -10.155  36.126  1.00  0.00     0.011 A 
HETATM    8 Br2  UNK     1      21.518  -9.133  36.028  1.00  0.00    -0.051 Br
HETATM    9  C21 UNK     1      23.100 -11.487  35.710  1.00  0.00     0.019 A 
HETATM   10  C20 UNK     1      24.270 -12.243  35.782  1.00  0.00     0.002 A 
HETATM   11  C15 UNK     1      25.444 -11.668  36.268  1.00  0.00     0.013 A 
ENDBRANCH   3   5
BRANCH   2  12
HETATM   12  C1  UNK     1      28.633  -8.170  36.987  1.00  0.00    -0.015 A 
HETATM   13  C5  UNK     1      28.500  -7.118  37.885  1.00  0.00     0.052 A 
HETATM   14  C3  UNK     1      29.640  -6.477  38.370  1.00  0.00     0.102 A 
HETATM   15  C2  UNK     1      30.905  -6.893  37.951  1.00  0.00     0.103 A 
HETATM   16  C7  UNK     1      31.028  -7.950  37.048  1.00  0.00     0.059 A 
HETATM   17  C6  UNK     1      29.888  -8.591  36.564  1.00  0.00     0.024 A 
HETATM   18 Br1  UNK     1      30.127 -10.022  35.338  1.00  0.00    -0.050 Br
BRANCH  14  19
HETATM   19  O2  UNK     1      29.507  -5.447  39.250  1.00  0.00    -0.353 OA
HETATM   20  C22 UNK     1      28.789  -4.300  38.802  1.00  0.00     0.210 C 
ENDBRANCH  14  19
BRANCH  15  21
HETATM   21  O1  UNK     1      32.026  -6.275  38.416  1.00  0.00    -0.344 OA
BRANCH  21  22
HETATM   22  C4  UNK     1      32.400  -5.050  37.787  1.00  0.00     0.214 C 
BRANCH  22  23
HETATM   23  C8  UNK     1      33.363  -5.346  36.675  1.00  0.00    -0.034 A 
HETATM   24  C12 UNK     1      34.630  -5.836  36.974  1.00  0.00     0.012 A 
HETATM   25  C16 UNK     1      35.525  -6.111  35.941  1.00  0.00     0.043 A 
HETATM   26  C18 UNK     1      35.148  -5.894  34.616  1.00  0.00     0.116 A 
HETATM   27  C17 UNK     1      33.876  -5.403  34.323  1.00  0.00     0.043 A 
HETATM   28  F1  UNK     1      36.009  -6.158  33.623  1.00  0.00    -0.206 F 
HETATM   29  C13 UNK     1      32.981  -5.127  35.357  1.00  0.00     0.012 A 
ENDBRANCH  22  23
ENDBRANCH  21  22
ENDBRANCH  15  21
ENDBRANCH   2  12
TORSDOF 6
ENDMDL
MODEL 7
REMARK VINA RESULT:      -8.3      6.801      9.286
REMARK  6 active torsions:
REMARK  status: ('A' for Active; 'I' for Inactive)
REMARK    1  A    between atoms: C2_8  and  O1_4 
REMARK    2  A    between atoms: C4_10  and  O1_4 
REMARK    3  A    between atoms: C3_9  and  O2_5 
REMARK    4  A    between atoms: C1_7  and  C9_15 
REMARK    5  A    between atoms: C4_10  and  C8_14 
REMARK    6  A    between atoms: C10_16  and  C11_17 
ROOT
HETATM    1  N1  UNK     1      20.117   6.161  29.821  1.00  0.00    -0.191 NA
HETATM    2  C9  UNK     1      17.844   4.632  31.914  1.00  0.00     0.036 C 
HETATM    3  C10 UNK     1      18.606   4.305  30.836  1.00  0.00     0.055 C 
HETATM    4  C23 UNK     1      19.439   5.340  30.281  1.00  0.00     0.100 C 
ENDROOT
BRANCH   3   5
HETATM    5  C11 UNK     1      18.627   2.983  30.230  1.00  0.00    -0.014 A 
HETATM    6  C14 UNK     1      19.283   1.931  30.870  1.00  0.00     0.032 A 
HETATM    7  C19 UNK     1      19.302   0.664  30.288  1.00  0.00     0.011 A 
HETATM    8 Br2  UNK     1      20.189  -0.762  31.154  1.00  0.00    -0.051 Br
HETATM    9  C21 UNK     1      18.664   0.447  29.067  1.00  0.00     0.019 A 
HETATM   10  C20 UNK     1      18.008   1.499  28.427  1.00  0.00     0.002 A 
HETATM   11  C15 UNK     1      17.989   2.767  29.008  1.00  0.00     0.013 A 
ENDBRANCH   3   5
BRANCH   2  12
HETATM   12  C1  UNK     1      17.796   5.949  32.563  1.00  0.00    -0.015 A 
HETATM   13  C5  UNK     1      16.861   6.858  32.084  1.00  0.00     0.052 A 
HETATM   14  C3  UNK     1      16.770   8.124  32.663  1.00  0.00     0.102 A 
HETATM   15  C2  UNK     1      17.618   8.471  33.716  1.00  0.00     0.103 A 
HETATM   16  C7  UNK     1      18.554   7.551  34.190  1.00  0.00     0.059 A 
HETATM   17  C6  UNK     1      18.643   6.286  33.612  1.00  0.00     0.024 A 
HETATM   18 Br1  UNK     1      19.940   5.082  34.305  1.00  0.00    -0.050 Br
BRANCH  14  19
HETATM   19  O2  UNK     1      15.853   9.013  32.191  1.00  0.00    -0.353 OA
HETATM   20  C22 UNK     1      14.589   9.050  32.849  1.00  0.00     0.210 C 
ENDBRANCH  14  19
BRANCH  15  21
HETATM   21  O1  UNK     1      17.540   9.704  34.289  1.00  0.00    -0.344 OA
BRANCH  21  22
HETATM   22  C4  UNK     1      18.528  10.660  33.908  1.00  0.00     0.214 C 
BRANCH  22  23
HETATM   23  C8  UNK     1      17.964  12.040  34.076  1.00  0.00    -0.034 A 
HETATM   24  C12 UNK     1      16.847  12.234  34.882  1.00  0.00     0.012 A 
HETATM   25  C16 UNK     1      16.323  13.516  35.038  1.00  0.00     0.043 A 
HETATM   26  C18 UNK     1      16.919  14.597  34.389  1.00  0.00     0.116 A 
HETATM   27  C17 UNK     1      18.039  14.395  33.582  1.00  0.00     0.043 A 
HETATM   28  F1  UNK     1      16.414  15.829  34.539  1.00  0.00    -0.206 F 
HETATM   29  C13 UNK     1      18.563  13.113  33.425  1.00  0.00     0.012 A 
ENDBRANCH  22  23
ENDBRANCH  21  22
ENDBRANCH  15  21
ENDBRANCH   2  12
TORSDOF 6
ENDMDL
MODEL 8
REMARK VINA RESULT:      -8.3     26.611     28.499
REMARK  6 active torsions:
REMARK  status: ('A' for Active; 'I' for Inactive)
REMARK    1  A    between atoms: C2_8  and  O1_4 
REMARK    2  A    between atoms: C4_10  and  O1_4 
REMARK    3  A    between atoms: C3_9  and  O2_5 
REMARK    4  A    between atoms: C1_7  and  C9_15 
REMARK    5  A    between atoms: C4_10  and  C8_14 
REMARK    6  A    between atoms: C10_16  and  C11_17 
ROOT
HETATM    1  N1  UNK     1      15.395  10.989   7.629  1.00  0.00    -0.191 NA
HETATM    2  C9  UNK     1      16.586   9.858  10.661  1.00  0.00     0.036 C 
HETATM    3  C10 UNK     1      16.877  10.834   9.759  1.00  0.00     0.055 C 
HETATM    4  C23 UNK     1      16.051  10.912   8.583  1.00  0.00     0.100 C 
ENDROOT
BRANCH   3   5
HETATM    5  C11 UNK     1      17.959  11.792   9.924  1.00  0.00    -0.014 A 
HETATM    6  C14 UNK     1      18.980  11.864   8.976  1.00  0.00     0.032 A 
HETATM    7  C19 UNK     1      20.017  12.782   9.134  1.00  0.00     0.011 A 
HETATM    8 Br2  UNK     1      21.399  12.882   7.850  1.00  0.00    -0.051 Br
HETATM    9  C21 UNK     1      20.033  13.631  10.242  1.00  0.00     0.019 A 
HETATM   10  C20 UNK     1      19.014  13.559  11.191  1.00  0.00     0.002 A 
HETATM   11  C15 UNK     1      17.976  12.640  11.032  1.00  0.00     0.013 A 
ENDBRANCH   3   5
BRANCH   2  12
HETATM   12  C1  UNK     1      15.501   8.875  10.539  1.00  0.00    -0.015 A 
HETATM   13  C5  UNK     1      14.209   9.322  10.790  1.00  0.00     0.052 A 
HETATM   14  C3  UNK     1      13.140   8.433  10.689  1.00  0.00     0.102 A 
HETATM   15  C2  UNK     1      13.371   7.102  10.338  1.00  0.00     0.103 A 
HETATM   16  C7  UNK     1      14.672   6.662  10.088  1.00  0.00     0.059 A 
HETATM   17  C6  UNK     1      15.740   7.552  10.188  1.00  0.00     0.024 A 
HETATM   18 Br1  UNK     1      17.485   6.888   9.835  1.00  0.00    -0.050 Br
BRANCH  14  19
HETATM   19  O2  UNK     1      11.876   8.873  10.935  1.00  0.00    -0.353 OA
HETATM   20  C22 UNK     1      11.156   9.428   9.836  1.00  0.00     0.210 C 
ENDBRANCH  14  19
BRANCH  15  21
HETATM   21  O1  UNK     1      12.335   6.223  10.236  1.00  0.00    -0.344 OA
BRANCH  21  22
HETATM   22  C4  UNK     1      12.378   5.293   9.154  1.00  0.00     0.214 C 
BRANCH  22  23
HETATM   23  C8  UNK     1      11.390   5.715   8.107  1.00  0.00    -0.034 A 
HETATM   24  C12 UNK     1      11.820   5.933   6.803  1.00  0.00     0.012 A 
HETATM   25  C16 UNK     1      10.901   6.325   5.830  1.00  0.00     0.043 A 
HETATM   26  C18 UNK     1       9.559   6.496   6.166  1.00  0.00     0.116 A 
HETATM   27  C17 UNK     1       9.135   6.275   7.477  1.00  0.00     0.043 A 
HETATM   28  F1  UNK     1       8.676   6.872   5.231  1.00  0.00    -0.206 F 
HETATM   29  C13 UNK     1      10.053   5.884   8.450  1.00  0.00     0.012 A 
ENDBRANCH  22  23
ENDBRANCH  21  22
ENDBRANCH  15  21
ENDBRANCH   2  12
TORSDOF 6
ENDMDL
MODEL 9
REMARK VINA RESULT:      -8.2      1.741      2.314
REMARK  6 active torsions:
REMARK  status: ('A' for Active; 'I' for Inactive)
REMARK    1  A    between atoms: C2_8  and  O1_4 
REMARK    2  A    between atoms: C4_10  and  O1_4 
REMARK    3  A    between atoms: C3_9  and  O2_5 
REMARK    4  A    between atoms: C1_7  and  C9_15 
REMARK    5  A    between atoms: C4_10  and  C8_14 
REMARK    6  A    between atoms: C10_16  and  C11_17 
ROOT
HETATM    1  N1  UNK     1      17.652  -5.380  36.337  1.00  0.00    -0.191 NA
HETATM    2  C9  UNK     1      20.555  -3.560  36.715  1.00  0.00     0.036 C 
HETATM    3  C10 UNK     1      20.060  -4.767  37.100  1.00  0.00     0.055 C 
HETATM    4  C23 UNK     1      18.726  -5.098  36.672  1.00  0.00     0.100 C 
ENDROOT
BRANCH   3   5
HETATM    5  C11 UNK     1      20.801  -5.727  37.902  1.00  0.00    -0.014 A 
HETATM    6  C14 UNK     1      20.227  -6.957  38.227  1.00  0.00     0.032 A 
HETATM    7  C19 UNK     1      20.938  -7.877  38.997  1.00  0.00     0.011 A 
HETATM    8 Br2  UNK     1      20.163  -9.543  39.436  1.00  0.00    -0.051 Br
HETATM    9  C21 UNK     1      22.224  -7.569  39.441  1.00  0.00     0.019 A 
HETATM   10  C20 UNK     1      22.798  -6.340  39.117  1.00  0.00     0.002 A 
HETATM   11  C15 UNK     1      22.087  -5.419  38.347  1.00  0.00     0.013 A 
ENDBRANCH   3   5
BRANCH   2  12
HETATM   12  C1  UNK     1      19.847  -2.563  35.900  1.00  0.00    -0.015 A 
HETATM   13  C5  UNK     1      20.140  -2.531  34.542  1.00  0.00     0.052 A 
HETATM   14  C3  UNK     1      19.497  -1.605  33.720  1.00  0.00     0.102 A 
HETATM   15  C2  UNK     1      18.567  -0.718  34.264  1.00  0.00     0.103 A 
HETATM   16  C7  UNK     1      18.279  -0.759  35.629  1.00  0.00     0.059 A 
HETATM   17  C6  UNK     1      18.922  -1.684  36.450  1.00  0.00     0.024 A 
HETATM   18 Br1  UNK     1      18.485  -1.685  38.299  1.00  0.00    -0.050 Br
BRANCH  14  19
HETATM   19  O2  UNK     1      19.785  -1.576  32.390  1.00  0.00    -0.353 OA
HETATM   20  C22 UNK     1      20.889  -2.363  31.948  1.00  0.00     0.210 C 
ENDBRANCH  14  19
BRANCH  15  21
HETATM   21  O1  UNK     1      17.932   0.190  33.472  1.00  0.00    -0.344 OA
BRANCH  21  22
HETATM   22  C4  UNK     1      17.865   1.533  33.951  1.00  0.00     0.214 C 
BRANCH  22  23
HETATM   23  C8  UNK     1      18.184   2.470  32.823  1.00  0.00    -0.034 A 
HETATM   24  C12 UNK     1      18.482   1.958  31.566  1.00  0.00     0.012 A 
HETATM   25  C16 UNK     1      18.779   2.829  30.518  1.00  0.00     0.043 A 
HETATM   26  C18 UNK     1      18.776   4.207  30.734  1.00  0.00     0.116 A 
HETATM   27  C17 UNK     1      18.476   4.713  31.999  1.00  0.00     0.043 A 
HETATM   28  F1  UNK     1      19.061   5.043  29.728  1.00  0.00    -0.206 F 
HETATM   29  C13 UNK     1      18.180   3.842  33.047  1.00  0.00     0.012 A 
ENDBRANCH  22  23
ENDBRANCH  21  22
ENDBRANCH  15  21
ENDBRANCH   2  12
TORSDOF 6
ENDMDL
MODEL 10
REMARK VINA RESULT:      -8.1     10.578     13.002
REMARK  6 active torsions:
REMARK  status: ('A' for Active; 'I' for Inactive)
REMARK    1  A    between atoms: C2_8  and  O1_4 
REMARK    2  A    between atoms: C4_10  and  O1_4 
REMARK    3  A    between atoms: C3_9  and  O2_5 
REMARK    4  A    between atoms: C1_7  and  C9_15 
REMARK    5  A    between atoms: C4_10  and  C8_14 
REMARK    6  A    between atoms: C10_16  and  C11_17 
ROOT
HETATM    1  N1  UNK     1      26.634  -5.867  39.043  1.00  0.00    -0.191 NA
HETATM    2  C9  UNK     1      26.138  -8.997  37.686  1.00  0.00     0.036 C 
HETATM    3  C10 UNK     1      25.390  -7.999  38.229  1.00  0.00     0.055 C 
HETATM    4  C23 UNK     1      26.088  -6.822  38.677  1.00  0.00     0.100 C 
ENDROOT
BRANCH   3   5
HETATM    5  C11 UNK     1      23.944  -8.057  38.371  1.00  0.00    -0.014 A 
HETATM    6  C14 UNK     1      23.181  -8.789  37.461  1.00  0.00     0.032 A 
HETATM    7  C19 UNK     1      21.794  -8.844  37.597  1.00  0.00     0.011 A 
HETATM    8 Br2  UNK     1      20.760  -9.836  36.366  1.00  0.00    -0.051 Br
HETATM    9  C21 UNK     1      21.169  -8.168  38.646  1.00  0.00     0.019 A 
HETATM   10  C20 UNK     1      21.932  -7.435  39.555  1.00  0.00     0.002 A 
HETATM   11  C15 UNK     1      23.318  -7.380  39.419  1.00  0.00     0.013 A 
ENDBRANCH   3   5
BRANCH   2  12
HETATM   12  C1  UNK     1      27.598  -8.979  37.517  1.00  0.00    -0.015 A 
HETATM   13  C5  UNK     1      28.091  -8.460  36.326  1.00  0.00     0.052 A 
HETATM   14  C3  UNK     1      29.468  -8.418  36.111  1.00  0.00     0.102 A 
HETATM   15  C2  UNK     1      30.341  -8.897  37.089  1.00  0.00     0.103 A 
HETATM   16  C7  UNK     1      29.836  -9.416  38.282  1.00  0.00     0.059 A 
HETATM   17  C6  UNK     1      28.459  -9.457  38.496  1.00  0.00     0.024 A 
HETATM   18 Br1  UNK     1      27.838 -10.178  40.141  1.00  0.00    -0.050 Br
BRANCH  14  19
HETATM   19  O2  UNK     1      29.950  -7.909  34.944  1.00  0.00    -0.353 OA
HETATM   20  C22 UNK     1      29.643  -6.547  34.655  1.00  0.00     0.210 C 
ENDBRANCH  14  19
BRANCH  15  21
HETATM   21  O1  UNK     1      31.689  -8.861  36.892  1.00  0.00    -0.344 OA
BRANCH  21  22
HETATM   22  C4  UNK     1      32.454  -8.054  37.786  1.00  0.00     0.214 C 
BRANCH  22  23
HETATM   23  C8  UNK     1      32.182  -6.607  37.494  1.00  0.00    -0.034 A 
HETATM   24  C12 UNK     1      32.863  -5.975  36.459  1.00  0.00     0.012 A 
HETATM   25  C16 UNK     1      32.611  -4.631  36.188  1.00  0.00     0.043 A 
HETATM   26  C18 UNK     1      31.681  -3.927  36.951  1.00  0.00     0.116 A 
HETATM   27  C17 UNK     1      31.001  -4.569  37.988  1.00  0.00     0.043 A 
HETATM   28  F1  UNK     1      31.439  -2.636  36.690  1.00  0.00    -0.206 F 
HETATM   29  C13 UNK     1      31.254  -5.913  38.260  1.00  0.00     0.012 A 
ENDBRANCH  22  23
ENDBRANCH  21  22
ENDBRANCH  15  21
ENDBRANCH   2  12
TORSDOF 6
ENDMDL
