MODEL 1
REMARK VINA RESULT:      -7.2      0.000      0.000
REMARK  0 active torsions:
REMARK  status: ('A' for Active; 'I' for Inactive)
ROOT
HETATM    1  O1  UNK     1      19.025   1.257  17.275  1.00  0.00    -0.275 OA
HETATM    2  O2  UNK     1      19.083   2.475  15.336  1.00  0.00    -0.260 OA
HETATM    3  C1  UNK     1      19.654   2.332  19.366  1.00  0.00    -0.002 A 
HETATM    4  C2  UNK     1      19.222   1.207  18.670  1.00  0.00     0.089 A 
HETATM    5  C3  UNK     1      19.837   2.242  20.747  1.00  0.00     0.014 A 
HETATM    6  C4  UNK     1      19.899   3.560  18.630  1.00  0.00     0.020 A 
HETATM    7  C5  UNK     1      18.968  -0.003  19.315  1.00  0.00     0.038 A 
HETATM    8  C6  UNK     1      19.587   1.036  21.408  1.00  0.00     0.001 A 
HETATM    9  C7  UNK     1      19.154  -0.083  20.694  1.00  0.00     0.003 A 
HETATM   10  C8  UNK     1      19.710   3.600  17.308  1.00  0.00     0.083 A 
HETATM   11  C9  UNK     1      19.252   2.422  16.549  1.00  0.00     0.288 A 
ENDROOT
TORSDOF 0
ENDMDL
MODEL 2
REMARK VINA RESULT:      -6.6      2.017      4.322
REMARK  0 active torsions:
REMARK  status: ('A' for Active; 'I' for Inactive)
ROOT
HETATM    1  O1  UNK     1      19.492   2.934  20.129  1.00  0.00    -0.275 OA
HETATM    2  O2  UNK     1      19.457   2.575  22.391  1.00  0.00    -0.260 OA
HETATM    3  C1  UNK     1      19.164   1.049  18.626  1.00  0.00    -0.002 A 
HETATM    4  C2  UNK     1      19.391   2.407  18.825  1.00  0.00     0.089 A 
HETATM    5  C3  UNK     1      19.069   0.564  17.320  1.00  0.00     0.014 A 
HETATM    6  C4  UNK     1      19.033   0.182  19.785  1.00  0.00     0.020 A 
HETATM    7  C5  UNK     1      19.525   3.293  17.758  1.00  0.00     0.038 A 
HETATM    8  C6  UNK     1      19.202   1.440  16.239  1.00  0.00     0.001 A 
HETATM    9  C7  UNK     1      19.429   2.801  16.457  1.00  0.00     0.003 A 
HETATM   10  C8  UNK     1      19.131   0.689  21.017  1.00  0.00     0.083 A 
HETATM   11  C9  UNK     1      19.371   2.124  21.254  1.00  0.00     0.288 A 
ENDROOT
TORSDOF 0
ENDMDL
MODEL 3
REMARK VINA RESULT:      -6.5     11.400     12.461
REMARK  0 active torsions:
REMARK  status: ('A' for Active; 'I' for Inactive)
ROOT
HETATM    1  O1  UNK     1      18.724   1.086  32.081  1.00  0.00    -0.275 OA
HETATM    2  O2  UNK     1      17.796   3.130  32.534  1.00  0.00    -0.260 OA
HETATM    3  C1  UNK     1      19.417   0.579  29.804  1.00  0.00    -0.002 A 
HETATM    4  C2  UNK     1      19.285   0.202  31.138  1.00  0.00     0.089 A 
HETATM    5  C3  UNK     1      19.978  -0.324  28.899  1.00  0.00     0.014 A 
HETATM    6  C4  UNK     1      18.966   1.900  29.402  1.00  0.00     0.020 A 
HETATM    7  C5  UNK     1      19.698  -1.050  31.590  1.00  0.00     0.038 A 
HETATM    8  C6  UNK     1      20.397  -1.583  29.339  1.00  0.00     0.001 A 
HETATM    9  C7  UNK     1      20.257  -1.946  30.680  1.00  0.00     0.003 A 
HETATM   10  C8  UNK     1      18.434   2.732  30.302  1.00  0.00     0.083 A 
HETATM   11  C9  UNK     1      18.285   2.355  31.720  1.00  0.00     0.288 A 
ENDROOT
TORSDOF 0
ENDMDL
MODEL 4
REMARK VINA RESULT:      -6.3     10.908     12.423
REMARK  0 active torsions:
REMARK  status: ('A' for Active; 'I' for Inactive)
ROOT
HETATM    1  O1  UNK     1      20.045  -0.115  31.722  1.00  0.00    -0.275 OA
HETATM    2  O2  UNK     1      21.207  -1.998  32.315  1.00  0.00    -0.260 OA
HETATM    3  C1  UNK     1      19.327   0.155  29.413  1.00  0.00    -0.002 A 
HETATM    4  C2  UNK     1      19.394   0.631  30.719  1.00  0.00     0.089 A 
HETATM    5  C3  UNK     1      18.674   0.922  28.446  1.00  0.00     0.014 A 
HETATM    6  C4  UNK     1      19.942  -1.125  29.101  1.00  0.00     0.020 A 
HETATM    7  C5  UNK     1      18.825   1.849  31.085  1.00  0.00     0.038 A 
HETATM    8  C6  UNK     1      18.099   2.146  28.799  1.00  0.00     0.001 A 
HETATM    9  C7  UNK     1      18.174   2.609  30.115  1.00  0.00     0.003 A 
HETATM   10  C8  UNK     1      20.557  -1.826  30.057  1.00  0.00     0.083 A 
HETATM   11  C9  UNK     1      20.639  -1.342  31.448  1.00  0.00     0.288 A 
ENDROOT
TORSDOF 0
ENDMDL
MODEL 5
REMARK VINA RESULT:      -6.2      1.875      2.507
REMARK  0 active torsions:
REMARK  status: ('A' for Active; 'I' for Inactive)
ROOT
HETATM    1  O1  UNK     1      20.543   3.543  19.638  1.00  0.00    -0.275 OA
HETATM    2  O2  UNK     1      21.032   5.365  18.340  1.00  0.00    -0.260 OA
HETATM    3  C1  UNK     1      19.213   1.738  18.692  1.00  0.00    -0.002 A 
HETATM    4  C2  UNK     1      19.914   2.288  19.762  1.00  0.00     0.089 A 
HETATM    5  C3  UNK     1      18.604   0.492  18.853  1.00  0.00     0.014 A 
HETATM    6  C4  UNK     1      19.141   2.482  17.446  1.00  0.00     0.020 A 
HETATM    7  C5  UNK     1      20.023   1.627  20.984  1.00  0.00     0.038 A 
HETATM    8  C6  UNK     1      18.704  -0.182  20.073  1.00  0.00     0.001 A 
HETATM    9  C7  UNK     1      19.411   0.384  21.136  1.00  0.00     0.003 A 
HETATM   10  C8  UNK     1      19.739   3.671  17.337  1.00  0.00     0.083 A 
HETATM   11  C9  UNK     1      20.487   4.273  18.455  1.00  0.00     0.288 A 
ENDROOT
TORSDOF 0
ENDMDL
MODEL 6
REMARK VINA RESULT:      -6.1     11.457     13.586
REMARK  0 active torsions:
REMARK  status: ('A' for Active; 'I' for Inactive)
ROOT
HETATM    1  O1  UNK     1      18.714   1.207  31.764  1.00  0.00    -0.275 OA
HETATM    2  O2  UNK     1      17.677   1.884  33.691  1.00  0.00    -0.260 OA
HETATM    3  C1  UNK     1      19.533  -1.079  31.601  1.00  0.00    -0.002 A 
HETATM    4  C2  UNK     1      19.356   0.182  31.039  1.00  0.00     0.089 A 
HETATM    5  C3  UNK     1      20.173  -2.069  30.852  1.00  0.00     0.014 A 
HETATM    6  C4  UNK     1      19.044  -1.321  32.948  1.00  0.00     0.020 A 
HETATM    7  C5  UNK     1      19.800   0.481  29.752  1.00  0.00     0.038 A 
HETATM    8  C6  UNK     1      20.624  -1.783  29.560  1.00  0.00     0.001 A 
HETATM    9  C7  UNK     1      20.439  -0.513  29.012  1.00  0.00     0.003 A 
HETATM   10  C8  UNK     1      18.437  -0.345  33.628  1.00  0.00     0.083 A 
HETATM   11  C9  UNK     1      18.237   0.998  33.054  1.00  0.00     0.288 A 
ENDROOT
TORSDOF 0
ENDMDL
MODEL 7
REMARK VINA RESULT:      -6.1      0.992      2.145
REMARK  0 active torsions:
REMARK  status: ('A' for Active; 'I' for Inactive)
ROOT
HETATM    1  O1  UNK     1      19.501   2.771  17.752  1.00  0.00    -0.275 OA
HETATM    2  O2  UNK     1      19.308   2.826  15.471  1.00  0.00    -0.260 OA
HETATM    3  C1  UNK     1      19.213   0.652  18.914  1.00  0.00    -0.002 A 
HETATM    4  C2  UNK     1      19.468   2.020  18.945  1.00  0.00     0.089 A 
HETATM    5  C3  UNK     1      19.189  -0.058  20.116  1.00  0.00     0.014 A 
HETATM    6  C4  UNK     1      18.979   0.012  17.630  1.00  0.00     0.020 A 
HETATM    7  C5  UNK     1      19.702   2.696  20.141  1.00  0.00     0.038 A 
HETATM    8  C6  UNK     1      19.420   0.606  21.323  1.00  0.00     0.001 A 
HETATM    9  C7  UNK     1      19.676   1.979  21.336  1.00  0.00     0.003 A 
HETATM   10  C8  UNK     1      19.010   0.731  16.505  1.00  0.00     0.083 A 
HETATM   11  C9  UNK     1      19.281   2.180  16.513  1.00  0.00     0.288 A 
ENDROOT
TORSDOF 0
ENDMDL
MODEL 8
REMARK VINA RESULT:      -6.1     12.448     14.689
REMARK  0 active torsions:
REMARK  status: ('A' for Active; 'I' for Inactive)
ROOT
HETATM    1  O1  UNK     1      11.356   6.918   9.510  1.00  0.00    -0.275 OA
HETATM    2  O2  UNK     1      13.188   7.353  10.814  1.00  0.00    -0.260 OA
HETATM    3  C1  UNK     1      11.655   6.611   7.114  1.00  0.00    -0.002 A 
HETATM    4  C2  UNK     1      10.824   6.661   8.230  1.00  0.00     0.089 A 
HETATM    5  C3  UNK     1      11.091   6.354   5.863  1.00  0.00     0.014 A 
HETATM    6  C4  UNK     1      13.081   6.830   7.292  1.00  0.00     0.020 A 
HETATM    7  C5  UNK     1       9.449   6.461   8.130  1.00  0.00     0.038 A 
HETATM    8  C6  UNK     1       9.713   6.151   5.747  1.00  0.00     0.001 A 
HETATM    9  C7  UNK     1       8.894   6.204   6.877  1.00  0.00     0.003 A 
HETATM   10  C8  UNK     1      13.577   7.073   8.508  1.00  0.00     0.083 A 
HETATM   11  C9  UNK     1      12.717   7.129   9.704  1.00  0.00     0.288 A 
ENDROOT
TORSDOF 0
ENDMDL
MODEL 9
REMARK VINA RESULT:      -5.9     11.951     13.651
REMARK  0 active torsions:
REMARK  status: ('A' for Active; 'I' for Inactive)
ROOT
HETATM    1  O1  UNK     1      17.821   3.388  31.829  1.00  0.00    -0.275 OA
HETATM    2  O2  UNK     1      17.502   1.949  30.075  1.00  0.00    -0.260 OA
HETATM    3  C1  UNK     1      19.187   5.375  31.497  1.00  0.00    -0.002 A 
HETATM    4  C2  UNK     1      18.403   4.573  32.322  1.00  0.00     0.089 A 
HETATM    5  C3  UNK     1      19.746   6.541  32.021  1.00  0.00     0.014 A 
HETATM    6  C4  UNK     1      19.395   4.967  30.117  1.00  0.00     0.020 A 
HETATM    7  C5  UNK     1      18.163   4.906  33.654  1.00  0.00     0.038 A 
HETATM    8  C6  UNK     1      19.514   6.888  33.355  1.00  0.00     0.001 A 
HETATM    9  C7  UNK     1      18.725   6.073  34.170  1.00  0.00     0.003 A 
HETATM   10  C8  UNK     1      18.841   3.842  29.658  1.00  0.00     0.083 A 
HETATM   11  C9  UNK     1      18.006   2.978  30.512  1.00  0.00     0.288 A 
ENDROOT
TORSDOF 0
ENDMDL
MODEL 10
REMARK VINA RESULT:      -5.9     18.077     20.090
REMARK  0 active torsions:
REMARK  status: ('A' for Active; 'I' for Inactive)
ROOT
HETATM    1  O1  UNK     1      21.276  -8.490  34.476  1.00  0.00    -0.275 OA
HETATM    2  O2  UNK     1      21.083  -6.742  33.008  1.00  0.00    -0.260 OA
HETATM    3  C1  UNK     1      19.699  -8.666  36.321  1.00  0.00    -0.002 A 
HETATM    4  C2  UNK     1      20.798  -9.157  35.622  1.00  0.00     0.089 A 
HETATM    5  C3  UNK     1      19.255  -9.355  37.452  1.00  0.00     0.014 A 
HETATM    6  C4  UNK     1      19.052  -7.454  35.848  1.00  0.00     0.020 A 
HETATM    7  C5  UNK     1      21.464 -10.315  36.022  1.00  0.00     0.038 A 
HETATM    8  C6  UNK     1      19.913 -10.517  37.864  1.00  0.00     0.001 A 
HETATM    9  C7  UNK     1      21.014 -10.996  37.151  1.00  0.00     0.003 A 
HETATM   10  C8  UNK     1      19.512  -6.827  34.761  1.00  0.00     0.083 A 
HETATM   11  C9  UNK     1      20.674  -7.328  34.005  1.00  0.00     0.288 A 
ENDROOT
TORSDOF 0
ENDMDL
