MODEL 1
REMARK VINA RESULT:      -7.5      0.000      0.000
REMARK  3 active torsions:
REMARK  status: ('A' for Active; 'I' for Inactive)
REMARK    1  A    between atoms: C9_14  and  O2_2 
REMARK    2  A    between atoms: C5_10  and  N1_4 
REMARK    3  A    between atoms: C5_10  and  C6_11 
ROOT
HETATM    1  O1  UNK     1      18.633   0.567  32.690  1.00  0.00    -0.274 OA
HETATM    2  O3  UNK     1      18.708  -0.261  34.820  1.00  0.00    -0.260 OA
HETATM    3  C6  UNK     1      18.556   1.429  30.466  1.00  0.00     0.038 A 
HETATM    4  C8  UNK     1      18.969   0.418  31.330  1.00  0.00     0.101 A 
HETATM    5  C9  UNK     1      18.855   1.343  29.114  1.00  0.00     0.076 A 
HETATM    6  C10 UNK     1      19.683  -0.694  30.880  1.00  0.00     0.005 A 
HETATM    7  C11 UNK     1      19.567   0.243  28.636  1.00  0.00     0.038 A 
HETATM    8  C12 UNK     1      19.977  -0.768  29.512  1.00  0.00     0.017 A 
HETATM    9  C13 UNK     1      20.081  -1.717  31.858  1.00  0.00    -0.043 A 
HETATM   10  C14 UNK     1      19.747  -1.548  33.145  1.00  0.00     0.090 A 
HETATM   11  C15 UNK     1      18.994  -0.381  33.634  1.00  0.00     0.288 A 
HETATM   12  C16 UNK     1      20.849  -2.923  31.407  1.00  0.00     0.049 C 
ENDROOT
BRANCH   3  13
HETATM   13  C5  UNK     1      17.790   2.609  30.988  1.00  0.00     0.317 C 
BRANCH  13  14
HETATM   14  N1  UNK     1      18.664   3.589  31.630  1.00  0.00     0.096 N 
HETATM   15  C1  UNK     1      18.067   4.080  32.878  1.00  0.00     0.303 C 
HETATM   16  C3  UNK     1      18.982   5.108  33.552  1.00  0.00     0.302 C 
HETATM   17  N2  UNK     1      19.270   6.226  32.646  1.00  0.00     0.087 N 
HETATM   18  C4  UNK     1      19.866   5.735  31.398  1.00  0.00     0.302 C 
HETATM   19  C7  UNK     1      20.146   7.205  33.289  1.00  0.00     0.310 C 
HETATM   20  C2  UNK     1      18.951   4.706  30.723  1.00  0.00     0.303 C 
ENDBRANCH  13  14
ENDBRANCH   3  13
BRANCH   5  21
HETATM   21  O2  UNK     1      18.465   2.313  28.242  1.00  0.00    -0.360 OA
HETATM   22  H20 UNK     1      18.085   3.070  28.715  1.00  0.00     0.217 HD
ENDBRANCH   5  21
TORSDOF 3
ENDMDL
MODEL 2
REMARK VINA RESULT:      -7.5     22.605     23.950
REMARK  3 active torsions:
REMARK  status: ('A' for Active; 'I' for Inactive)
REMARK    1  A    between atoms: C9_14  and  O2_2 
REMARK    2  A    between atoms: C5_10  and  N1_4 
REMARK    3  A    between atoms: C5_10  and  C6_11 
ROOT
HETATM    1  O1  UNK     1      13.088   8.133  10.816  1.00  0.00    -0.274 OA
HETATM    2  O3  UNK     1      11.466   9.597  11.489  1.00  0.00    -0.260 OA
HETATM    3  C6  UNK     1      14.783   6.607  10.114  1.00  0.00     0.038 A 
HETATM    4  C8  UNK     1      14.451   7.882  10.567  1.00  0.00     0.101 A 
HETATM    5  C9  UNK     1      16.108   6.294   9.850  1.00  0.00     0.076 A 
HETATM    6  C10 UNK     1      15.417   8.870  10.767  1.00  0.00     0.005 A 
HETATM    7  C11 UNK     1      17.094   7.262  10.040  1.00  0.00     0.038 A 
HETATM    8  C12 UNK     1      16.751   8.540  10.496  1.00  0.00     0.017 A 
HETATM    9  C13 UNK     1      14.983  10.189  11.247  1.00  0.00    -0.043 A 
HETATM   10  C14 UNK     1      13.679  10.400  11.477  1.00  0.00     0.090 A 
HETATM   11  C15 UNK     1      12.649   9.367  11.270  1.00  0.00     0.288 A 
HETATM   12  C16 UNK     1      15.996  11.273  11.472  1.00  0.00     0.049 C 
ENDROOT
BRANCH   3  13
HETATM   13  C5  UNK     1      13.716   5.571   9.911  1.00  0.00     0.317 C 
BRANCH  13  14
HETATM   14  N1  UNK     1      12.659   6.041   9.018  1.00  0.00     0.096 N 
HETATM   15  C1  UNK     1      11.432   5.257   9.205  1.00  0.00     0.303 C 
HETATM   16  C3  UNK     1      10.323   5.749   8.269  1.00  0.00     0.302 C 
HETATM   17  N2  UNK     1      10.758   5.694   6.868  1.00  0.00     0.087 N 
HETATM   18  C4  UNK     1      11.985   6.477   6.681  1.00  0.00     0.302 C 
HETATM   19  C7  UNK     1       9.700   6.167   5.976  1.00  0.00     0.310 C 
HETATM   20  C2  UNK     1      13.095   5.986   7.618  1.00  0.00     0.303 C 
ENDBRANCH  13  14
ENDBRANCH   3  13
BRANCH   5  21
HETATM   21  O2  UNK     1      16.466   5.057   9.407  1.00  0.00    -0.360 OA
HETATM   22  H20 UNK     1      17.199   4.701   9.932  1.00  0.00     0.217 HD
ENDBRANCH   5  21
TORSDOF 3
ENDMDL
MODEL 3
REMARK VINA RESULT:      -7.2     13.172     16.224
REMARK  3 active torsions:
REMARK  status: ('A' for Active; 'I' for Inactive)
REMARK    1  A    between atoms: C9_14  and  O2_2 
REMARK    2  A    between atoms: C5_10  and  N1_4 
REMARK    3  A    between atoms: C5_10  and  C6_11 
ROOT
HETATM    1  O1  UNK     1      30.469  -6.460  29.735  1.00  0.00    -0.274 OA
HETATM    2  O3  UNK     1      30.344  -4.426  30.770  1.00  0.00    -0.260 OA
HETATM    3  C6  UNK     1      30.596  -8.585  28.656  1.00  0.00     0.038 A 
HETATM    4  C8  UNK     1      29.826  -7.651  29.343  1.00  0.00     0.101 A 
HETATM    5  C9  UNK     1      30.024  -9.779  28.241  1.00  0.00     0.076 A 
HETATM    6  C10 UNK     1      28.480  -7.875  29.637  1.00  0.00     0.005 A 
HETATM    7  C11 UNK     1      28.681 -10.030  28.521  1.00  0.00     0.038 A 
HETATM    8  C12 UNK     1      27.914  -9.085  29.212  1.00  0.00     0.017 A 
HETATM    9  C13 UNK     1      27.737  -6.838  30.367  1.00  0.00    -0.043 A 
HETATM   10  C14 UNK     1      28.375  -5.715  30.726  1.00  0.00     0.090 A 
HETATM   11  C15 UNK     1      29.794  -5.465  30.424  1.00  0.00     0.288 A 
HETATM   12  C16 UNK     1      26.289  -7.049  30.698  1.00  0.00     0.049 C 
ENDROOT
BRANCH   3  13
HETATM   13  C5  UNK     1      32.041  -8.308  28.359  1.00  0.00     0.317 C 
BRANCH  13  14
HETATM   14  N1  UNK     1      32.848  -8.243  29.576  1.00  0.00     0.096 N 
HETATM   15  C1  UNK     1      34.025  -7.389  29.376  1.00  0.00     0.303 C 
HETATM   16  C3  UNK     1      34.872  -7.321  30.652  1.00  0.00     0.302 C 
HETATM   17  N2  UNK     1      35.279  -8.665  31.081  1.00  0.00     0.087 N 
HETATM   18  C4  UNK     1      34.102  -9.519  31.280  1.00  0.00     0.302 C 
HETATM   19  C7  UNK     1      36.084  -8.599  32.301  1.00  0.00     0.310 C 
HETATM   20  C2  UNK     1      33.254  -9.586  30.004  1.00  0.00     0.303 C 
ENDBRANCH  13  14
ENDBRANCH   3  13
BRANCH   5  21
HETATM   21  O2  UNK     1      30.749 -10.712  27.566  1.00  0.00    -0.360 OA
HETATM   22  H20 UNK     1      31.122 -10.338  26.753  1.00  0.00     0.217 HD
ENDBRANCH   5  21
TORSDOF 3
ENDMDL
MODEL 4
REMARK VINA RESULT:      -7.1      3.837      7.896
REMARK  3 active torsions:
REMARK  status: ('A' for Active; 'I' for Inactive)
REMARK    1  A    between atoms: C9_14  and  O2_2 
REMARK    2  A    between atoms: C5_10  and  N1_4 
REMARK    3  A    between atoms: C5_10  and  C6_11 
ROOT
HETATM    1  O1  UNK     1      15.945   6.779  32.112  1.00  0.00    -0.274 OA
HETATM    2  O3  UNK     1      13.699   6.737  31.684  1.00  0.00    -0.260 OA
HETATM    3  C6  UNK     1      18.288   6.825  32.561  1.00  0.00     0.038 A 
HETATM    4  C8  UNK     1      17.024   7.349  32.816  1.00  0.00     0.101 A 
HETATM    5  C9  UNK     1      19.394   7.341  33.222  1.00  0.00     0.076 A 
HETATM    6  C10 UNK     1      16.824   8.390  33.724  1.00  0.00     0.005 A 
HETATM    7  C11 UNK     1      19.224   8.382  34.134  1.00  0.00     0.038 A 
HETATM    8  C12 UNK     1      17.949   8.902  34.384  1.00  0.00     0.017 A 
HETATM    9  C13 UNK     1      15.457   8.886  33.936  1.00  0.00    -0.043 A 
HETATM   10  C14 UNK     1      14.450   8.324  33.252  1.00  0.00     0.090 A 
HETATM   11  C15 UNK     1      14.645   7.225  32.291  1.00  0.00     0.288 A 
HETATM   12  C16 UNK     1      15.209  10.005  34.904  1.00  0.00     0.049 C 
ENDROOT
BRANCH   3  13
HETATM   13  C5  UNK     1      18.462   5.704  31.578  1.00  0.00     0.317 C 
BRANCH  13  14
HETATM   14  N1  UNK     1      18.736   4.431  32.241  1.00  0.00     0.096 N 
HETATM   15  C1  UNK     1      18.227   3.308  31.444  1.00  0.00     0.303 C 
HETATM   16  C3  UNK     1      18.513   1.973  32.140  1.00  0.00     0.302 C 
HETATM   17  N2  UNK     1      17.932   1.950  33.487  1.00  0.00     0.087 N 
HETATM   18  C4  UNK     1      18.439   3.073  34.284  1.00  0.00     0.302 C 
HETATM   19  C7  UNK     1      18.209   0.676  34.151  1.00  0.00     0.310 C 
HETATM   20  C2  UNK     1      18.154   4.409  33.588  1.00  0.00     0.303 C 
ENDBRANCH  13  14
ENDBRANCH   3  13
BRANCH   5  21
HETATM   21  O2  UNK     1      20.643   6.850  32.996  1.00  0.00    -0.360 OA
HETATM   22  H20 UNK     1      20.821   6.085  33.564  1.00  0.00     0.217 HD
ENDBRANCH   5  21
TORSDOF 3
ENDMDL
MODEL 5
REMARK VINA RESULT:      -7.1      6.849      9.481
REMARK  3 active torsions:
REMARK  status: ('A' for Active; 'I' for Inactive)
REMARK    1  A    between atoms: C9_14  and  O2_2 
REMARK    2  A    between atoms: C5_10  and  N1_4 
REMARK    3  A    between atoms: C5_10  and  C6_11 
ROOT
HETATM    1  O1  UNK     1      22.345  -5.324  38.097  1.00  0.00    -0.274 OA
HETATM    2  O3  UNK     1      24.474  -5.343  38.930  1.00  0.00    -0.260 OA
HETATM    3  C6  UNK     1      20.122  -5.306  37.227  1.00  0.00     0.038 A 
HETATM    4  C8  UNK     1      21.082  -5.942  38.011  1.00  0.00     0.101 A 
HETATM    5  C9  UNK     1      18.858  -5.862  37.101  1.00  0.00     0.076 A 
HETATM    6  C10 UNK     1      20.815  -7.135  38.683  1.00  0.00     0.005 A 
HETATM    7  C11 UNK     1      18.563  -7.054  37.762  1.00  0.00     0.038 A 
HETATM    8  C12 UNK     1      19.534  -7.686  38.548  1.00  0.00     0.017 A 
HETATM    9  C13 UNK     1      21.883  -7.742  39.490  1.00  0.00    -0.043 A 
HETATM   10  C14 UNK     1      23.075  -7.131  39.554  1.00  0.00     0.090 A 
HETATM   11  C15 UNK     1      23.371  -5.872  38.849  1.00  0.00     0.288 A 
HETATM   12  C16 UNK     1      21.628  -9.025  40.225  1.00  0.00     0.049 C 
ENDROOT
BRANCH   3  13
HETATM   13  C5  UNK     1      20.448  -4.023  36.519  1.00  0.00     0.317 C 
BRANCH  13  14
HETATM   14  N1  UNK     1      19.333  -3.079  36.557  1.00  0.00     0.096 N 
HETATM   15  C1  UNK     1      19.443  -2.098  35.470  1.00  0.00     0.303 C 
HETATM   16  C3  UNK     1      18.275  -1.107  35.509  1.00  0.00     0.302 C 
HETATM   17  N2  UNK     1      18.209  -0.428  36.809  1.00  0.00     0.087 N 
HETATM   18  C4  UNK     1      18.099  -1.408  37.895  1.00  0.00     0.302 C 
HETATM   19  C7  UNK     1      17.091   0.515  36.846  1.00  0.00     0.310 C 
HETATM   20  C2  UNK     1      19.268  -2.400  37.856  1.00  0.00     0.303 C 
ENDBRANCH  13  14
ENDBRANCH   3  13
BRANCH   5  21
HETATM   21  O2  UNK     1      17.897  -5.265  36.343  1.00  0.00    -0.360 OA
HETATM   22  H20 UNK     1      17.123  -5.040  36.882  1.00  0.00     0.217 HD
ENDBRANCH   5  21
TORSDOF 3
ENDMDL
MODEL 6
REMARK VINA RESULT:      -7.0     22.593     24.609
REMARK  3 active torsions:
REMARK  status: ('A' for Active; 'I' for Inactive)
REMARK    1  A    between atoms: C9_14  and  O2_2 
REMARK    2  A    between atoms: C5_10  and  N1_4 
REMARK    3  A    between atoms: C5_10  and  C6_11 
ROOT
HETATM    1  O1  UNK     1      14.103   8.641   8.384  1.00  0.00    -0.274 OA
HETATM    2  O3  UNK     1      14.865  10.796   8.341  1.00  0.00    -0.260 OA
HETATM    3  C6  UNK     1      13.310   6.390   8.429  1.00  0.00     0.038 A 
HETATM    4  C8  UNK     1      14.278   7.312   8.818  1.00  0.00     0.101 A 
HETATM    5  C9  UNK     1      13.423   5.065   8.823  1.00  0.00     0.076 A 
HETATM    6  C10 UNK     1      15.374   6.947   9.601  1.00  0.00     0.005 A 
HETATM    7  C11 UNK     1      14.508   4.672   9.606  1.00  0.00     0.038 A 
HETATM    8  C12 UNK     1      15.476   5.606   9.993  1.00  0.00     0.017 A 
HETATM    9  C13 UNK     1      16.352   7.982   9.968  1.00  0.00    -0.043 A 
HETATM   10  C14 UNK     1      16.159   9.237   9.541  1.00  0.00     0.090 A 
HETATM   11  C15 UNK     1      15.007   9.637   8.715  1.00  0.00     0.288 A 
HETATM   12  C16 UNK     1      17.541   7.621  10.809  1.00  0.00     0.049 C 
ENDROOT
BRANCH   3  13
HETATM   13  C5  UNK     1      12.145   6.822   7.587  1.00  0.00     0.317 C 
BRANCH  13  14
HETATM   14  N1  UNK     1      10.893   6.821   8.341  1.00  0.00     0.096 N 
HETATM   15  C1  UNK     1       9.802   6.253   7.541  1.00  0.00     0.303 C 
HETATM   16  C3  UNK     1       8.489   6.252   8.331  1.00  0.00     0.302 C 
HETATM   17  N2  UNK     1       8.146   7.608   8.777  1.00  0.00     0.087 N 
HETATM   18  C4  UNK     1       9.238   8.177   9.576  1.00  0.00     0.302 C 
HETATM   19  C7  UNK     1       6.895   7.606   9.534  1.00  0.00     0.310 C 
HETATM   20  C2  UNK     1      10.552   8.177   8.786  1.00  0.00     0.303 C 
ENDBRANCH  13  14
ENDBRANCH   3  13
BRANCH   5  21
HETATM   21  O2  UNK     1      12.493   4.140   8.461  1.00  0.00    -0.360 OA
HETATM   22  H20 UNK     1      11.705   4.568   8.092  1.00  0.00     0.217 HD
ENDBRANCH   5  21
TORSDOF 3
ENDMDL
MODEL 7
REMARK VINA RESULT:      -7.0      4.703      9.006
REMARK  3 active torsions:
REMARK  status: ('A' for Active; 'I' for Inactive)
REMARK    1  A    between atoms: C9_14  and  O2_2 
REMARK    2  A    between atoms: C5_10  and  N1_4 
REMARK    3  A    between atoms: C5_10  and  C6_11 
ROOT
HETATM    1  O1  UNK     1      16.117   7.878  34.078  1.00  0.00    -0.274 OA
HETATM    2  O3  UNK     1      13.938   7.205  33.924  1.00  0.00    -0.260 OA
HETATM    3  C6  UNK     1      18.392   8.584  34.238  1.00  0.00     0.038 A 
HETATM    4  C8  UNK     1      17.050   8.934  34.111  1.00  0.00     0.101 A 
HETATM    5  C9  UNK     1      19.361   9.576  34.278  1.00  0.00     0.076 A 
HETATM    6  C10 UNK     1      16.638  10.264  34.019  1.00  0.00     0.005 A 
HETATM    7  C11 UNK     1      18.978  10.914  34.188  1.00  0.00     0.038 A 
HETATM    8  C12 UNK     1      17.627  11.256  34.061  1.00  0.00     0.017 A 
HETATM    9  C13 UNK     1      15.202  10.548  33.887  1.00  0.00    -0.043 A 
HETATM   10  C14 UNK     1      14.338   9.524  33.859  1.00  0.00     0.090 A 
HETATM   11  C15 UNK     1      14.758   8.115  33.955  1.00  0.00     0.288 A 
HETATM   12  C16 UNK     1      14.727  11.968  33.786  1.00  0.00     0.049 C 
ENDROOT
BRANCH   3  13
HETATM   13  C5  UNK     1      18.795   7.142  34.335  1.00  0.00     0.317 C 
BRANCH  13  14
HETATM   14  N1  UNK     1      18.536   6.416  33.092  1.00  0.00     0.096 N 
HETATM   15  C1  UNK     1      18.275   4.997  33.362  1.00  0.00     0.303 C 
HETATM   16  C3  UNK     1      18.004   4.236  32.060  1.00  0.00     0.302 C 
HETATM   17  N2  UNK     1      19.126   4.383  31.125  1.00  0.00     0.087 N 
HETATM   18  C4  UNK     1      19.387   5.802  30.856  1.00  0.00     0.302 C 
HETATM   19  C7  UNK     1      18.864   3.659  29.881  1.00  0.00     0.310 C 
HETATM   20  C2  UNK     1      19.658   6.564  32.158  1.00  0.00     0.303 C 
ENDBRANCH  13  14
ENDBRANCH   3  13
BRANCH   5  21
HETATM   21  O2  UNK     1      20.681   9.267  34.403  1.00  0.00    -0.360 OA
HETATM   22  H20 UNK     1      20.824   8.653  35.139  1.00  0.00     0.217 HD
ENDBRANCH   5  21
TORSDOF 3
ENDMDL
MODEL 8
REMARK VINA RESULT:      -6.9     14.565     16.158
REMARK  3 active torsions:
REMARK  status: ('A' for Active; 'I' for Inactive)
REMARK    1  A    between atoms: C9_14  and  O2_2 
REMARK    2  A    between atoms: C5_10  and  N1_4 
REMARK    3  A    between atoms: C5_10  and  C6_11 
ROOT
HETATM    1  O1  UNK     1      30.044  -7.770  36.153  1.00  0.00    -0.274 OA
HETATM    2  O3  UNK     1      29.699  -9.973  35.646  1.00  0.00    -0.260 OA
HETATM    3  C6  UNK     1      30.401  -5.471  36.685  1.00  0.00     0.038 A 
HETATM    4  C8  UNK     1      29.823  -6.690  37.030  1.00  0.00     0.101 A 
HETATM    5  C9  UNK     1      30.222  -4.367  37.506  1.00  0.00     0.076 A 
HETATM    6  C10 UNK     1      29.057  -6.844  38.187  1.00  0.00     0.005 A 
HETATM    7  C11 UNK     1      29.462  -4.492  38.668  1.00  0.00     0.038 A 
HETATM    8  C12 UNK     1      28.884  -5.721  39.007  1.00  0.00     0.017 A 
HETATM    9  C13 UNK     1      28.481  -8.164  38.478  1.00  0.00    -0.043 A 
HETATM   10  C14 UNK     1      28.709  -9.174  37.626  1.00  0.00     0.090 A 
HETATM   11  C15 UNK     1      29.514  -9.026  36.402  1.00  0.00     0.288 A 
HETATM   12  C16 UNK     1      27.653  -8.362  39.713  1.00  0.00     0.049 C 
ENDROOT
BRANCH   3  13
HETATM   13  C5  UNK     1      31.218  -5.345  35.432  1.00  0.00     0.317 C 
BRANCH  13  14
HETATM   14  N1  UNK     1      32.553  -5.918  35.589  1.00  0.00     0.096 N 
HETATM   15  C1  UNK     1      33.565  -4.861  35.705  1.00  0.00     0.303 C 
HETATM   16  C3  UNK     1      34.965  -5.461  35.869  1.00  0.00     0.302 C 
HETATM   17  N2  UNK     1      35.285  -6.356  34.750  1.00  0.00     0.087 N 
HETATM   18  C4  UNK     1      34.273  -7.413  34.633  1.00  0.00     0.302 C 
HETATM   19  C7  UNK     1      36.620  -6.930  34.909  1.00  0.00     0.310 C 
HETATM   20  C2  UNK     1      32.872  -6.812  34.470  1.00  0.00     0.303 C 
ENDBRANCH  13  14
ENDBRANCH   3  13
BRANCH   5  21
HETATM   21  O2  UNK     1      30.775  -3.162  37.198  1.00  0.00    -0.360 OA
HETATM   22  H20 UNK     1      30.110  -2.457  37.235  1.00  0.00     0.217 HD
ENDBRANCH   5  21
TORSDOF 3
ENDMDL
MODEL 9
REMARK VINA RESULT:      -6.9     22.669     24.178
REMARK  3 active torsions:
REMARK  status: ('A' for Active; 'I' for Inactive)
REMARK    1  A    between atoms: C9_14  and  O2_2 
REMARK    2  A    between atoms: C5_10  and  N1_4 
REMARK    3  A    between atoms: C5_10  and  C6_11 
ROOT
HETATM    1  O1  UNK     1      13.367   8.564   9.494  1.00  0.00    -0.274 OA
HETATM    2  O3  UNK     1      11.209   9.212   9.104  1.00  0.00    -0.260 OA
HETATM    3  C6  UNK     1      15.619   7.885   9.902  1.00  0.00     0.038 A 
HETATM    4  C8  UNK     1      14.325   7.532   9.525  1.00  0.00     0.101 A 
HETATM    5  C9  UNK     1      16.610   6.917   9.953  1.00  0.00     0.076 A 
HETATM    6  C10 UNK     1      13.985   6.220   9.193  1.00  0.00     0.005 A 
HETATM    7  C11 UNK     1      16.298   5.597   9.626  1.00  0.00     0.038 A 
HETATM    8  C12 UNK     1      14.995   5.252   9.248  1.00  0.00     0.017 A 
HETATM    9  C13 UNK     1      12.597   5.931   8.806  1.00  0.00    -0.043 A 
HETATM   10  C14 UNK     1      11.706   6.933   8.785  1.00  0.00     0.090 A 
HETATM   11  C15 UNK     1      12.051   8.322   9.133  1.00  0.00     0.288 A 
HETATM   12  C16 UNK     1      12.198   4.531   8.443  1.00  0.00     0.049 C 
ENDROOT
BRANCH   3  13
HETATM   13  C5  UNK     1      15.946   9.308  10.252  1.00  0.00     0.317 C 
BRANCH  13  14
HETATM   14  N1  UNK     1      16.454  10.052   9.102  1.00  0.00     0.096 N 
HETATM   15  C1  UNK     1      17.744  10.680   9.415  1.00  0.00     0.303 C 
HETATM   16  C3  UNK     1      18.277  11.461   8.209  1.00  0.00     0.302 C 
HETATM   17  N2  UNK     1      17.307  12.472   7.771  1.00  0.00     0.087 N 
HETATM   18  C4  UNK     1      16.017  11.845   7.459  1.00  0.00     0.302 C 
HETATM   19  C7  UNK     1      17.815  13.215   6.618  1.00  0.00     0.310 C 
HETATM   20  C2  UNK     1      15.484  11.063   8.665  1.00  0.00     0.303 C 
ENDBRANCH  13  14
ENDBRANCH   3  13
BRANCH   5  21
HETATM   21  O2  UNK     1      17.884   7.230  10.316  1.00  0.00    -0.360 OA
HETATM   22  H20 UNK     1      18.495   7.107   9.573  1.00  0.00     0.217 HD
ENDBRANCH   5  21
TORSDOF 3
ENDMDL
MODEL 10
REMARK VINA RESULT:      -6.8      2.627      4.576
REMARK  3 active torsions:
REMARK  status: ('A' for Active; 'I' for Inactive)
REMARK    1  A    between atoms: C9_14  and  O2_2 
REMARK    2  A    between atoms: C5_10  and  N1_4 
REMARK    3  A    between atoms: C5_10  and  C6_11 
ROOT
HETATM    1  O1  UNK     1      19.307  -0.105  32.720  1.00  0.00    -0.274 OA
HETATM    2  O3  UNK     1      20.145  -2.175  33.210  1.00  0.00    -0.260 OA
HETATM    3  C6  UNK     1      18.433   2.055  32.206  1.00  0.00     0.038 A 
HETATM    4  C8  UNK     1      19.027   0.880  31.753  1.00  0.00     0.101 A 
HETATM    5  C9  UNK     1      18.131   3.066  31.305  1.00  0.00     0.076 A 
HETATM    6  C10 UNK     1      19.336   0.679  30.407  1.00  0.00     0.005 A 
HETATM    7  C11 UNK     1      18.429   2.892  29.953  1.00  0.00     0.038 A 
HETATM    8  C12 UNK     1      19.026   1.708  29.507  1.00  0.00     0.017 A 
HETATM    9  C13 UNK     1      19.963  -0.590  30.011  1.00  0.00    -0.043 A 
HETATM   10  C14 UNK     1      20.217  -1.510  30.953  1.00  0.00     0.090 A 
HETATM   11  C15 UNK     1      19.897  -1.311  32.377  1.00  0.00     0.288 A 
HETATM   12  C16 UNK     1      20.308  -0.837  28.572  1.00  0.00     0.049 C 
ENDROOT
BRANCH   3  13
HETATM   13  C5  UNK     1      18.116   2.234  33.662  1.00  0.00     0.317 C 
BRANCH  13  14
HETATM   14  N1  UNK     1      18.125   0.964  34.385  1.00  0.00     0.096 N 
HETATM   15  C1  UNK     1      16.757   0.531  34.694  1.00  0.00     0.303 C 
HETATM   16  C3  UNK     1      16.765  -0.801  35.452  1.00  0.00     0.302 C 
HETATM   17  N2  UNK     1      17.561  -0.698  36.681  1.00  0.00     0.087 N 
HETATM   18  C4  UNK     1      18.928  -0.264  36.373  1.00  0.00     0.302 C 
HETATM   19  C7  UNK     1      17.571  -1.970  37.402  1.00  0.00     0.310 C 
HETATM   20  C2  UNK     1      18.921   1.068  35.613  1.00  0.00     0.303 C 
ENDBRANCH  13  14
ENDBRANCH   3  13
BRANCH   5  21
HETATM   21  O2  UNK     1      17.549   4.226  31.715  1.00  0.00    -0.360 OA
HETATM   22  H20 UNK     1      17.511   4.270  32.683  1.00  0.00     0.217 HD
ENDBRANCH   5  21
TORSDOF 3
ENDMDL
