MODEL 1
REMARK VINA RESULT:     -11.1      0.000      0.000
REMARK  6 active torsions:
REMARK  status: ('A' for Active; 'I' for Inactive)
REMARK    1  A    between atoms: C10_18  and  O2_3 
REMARK    2  A    between atoms: C22_30  and  O2_3 
REMARK    3  A    between atoms: C4_12  and  N1_7 
REMARK       I    between atoms: C8_16  and  N1_7 
REMARK    4  A    between atoms: C7_15  and  N2_8 
REMARK       I    between atoms: C9_17  and  N2_8 
REMARK    5  A    between atoms: C2_10  and  C9_17 
REMARK    6  A    between atoms: C3_11  and  C8_16 
ROOT
HETATM    1  S1  UNK     1      17.867  -1.288  37.709  1.00  0.00    -0.083 SA
HETATM    2  C2  UNK     1      18.849  -1.068  35.345  1.00  0.00     0.066 A 
HETATM    3  C4  UNK     1      18.641  -1.956  36.352  1.00  0.00     0.092 A 
HETATM    4  C13 UNK     1      18.357   0.224  35.690  1.00  0.00     0.027 A 
HETATM    5  C17 UNK     1      17.798   0.245  36.948  1.00  0.00     0.053 A 
ENDROOT
BRANCH   3   6
HETATM    6  N1  UNK     1      18.960  -3.314  36.442  1.00  0.00    -0.316 N 
HETATM    7  C8  UNK     1      20.033  -3.858  37.133  1.00  0.00     0.262 C 
HETATM    8  O3  UNK     1      20.897  -3.278  37.788  1.00  0.00    -0.267 OA
HETATM    9  H2  UNK     1      18.310  -3.929  35.959  1.00  0.00     0.169 HD
BRANCH   7  10
HETATM   10  C3  UNK     1      20.072  -5.321  37.021  1.00  0.00     0.108 A 
HETATM   11  C12 UNK     1      20.203  -6.004  35.714  1.00  0.00     0.304 A 
HETATM   12  O1  UNK     1      20.230  -7.396  35.736  1.00  0.00    -0.274 OA
HETATM   13  O5  UNK     1      20.286  -5.380  34.661  1.00  0.00    -0.259 OA
HETATM   14  C5  UNK     1      20.137  -8.122  36.939  1.00  0.00     0.089 A 
HETATM   15  C1  UNK     1      20.013  -7.460  38.156  1.00  0.00    -0.001 A 
HETATM   16  C14 UNK     1      20.173  -9.512  36.860  1.00  0.00     0.038 A 
HETATM   17  C6  UNK     1      19.984  -6.005  38.167  1.00  0.00     0.037 A 
HETATM   18  C11 UNK     1      19.923  -8.215  39.328  1.00  0.00     0.014 A 
HETATM   19  C16 UNK     1      19.958  -9.611  39.266  1.00  0.00     0.001 A 
HETATM   20  C19 UNK     1      20.082 -10.258  38.034  1.00  0.00     0.003 A 
ENDBRANCH   7  10
ENDBRANCH   3   6
BRANCH   2  21
HETATM   21  C9  UNK     1      19.487  -1.401  34.098  1.00  0.00     0.259 C 
HETATM   22  O4  UNK     1      20.400  -2.244  34.043  1.00  0.00    -0.267 OA
HETATM   23  N2  UNK     1      19.032  -0.686  32.976  1.00  0.00    -0.320 N 
HETATM   24  H3  UNK     1      18.305   0.010  33.125  1.00  0.00     0.169 HD
BRANCH  23  25
HETATM   25  C7  UNK     1      19.481  -0.760  31.634  1.00  0.00     0.068 A 
HETATM   26  C10 UNK     1      19.349   0.336  30.799  1.00  0.00     0.095 A 
HETATM   27  C18 UNK     1      19.795   0.248  29.480  1.00  0.00     0.039 A 
HETATM   28  C21 UNK     1      20.367  -0.938  29.015  1.00  0.00     0.003 A 
HETATM   29  C20 UNK     1      20.492  -2.033  29.869  1.00  0.00     0.002 A 
HETATM   30  C15 UNK     1      20.046  -1.943  31.188  1.00  0.00     0.032 A 
BRANCH  26  31
HETATM   31  O2  UNK     1      18.793   1.503  31.233  1.00  0.00    -0.349 OA
BRANCH  31  32
HETATM   32  C22 UNK     1      18.518   2.495  30.247  1.00  0.00     0.171 C 
HETATM   33  C23 UNK     1      18.681   3.866  30.867  1.00  0.00     0.034 C 
ENDBRANCH  31  32
ENDBRANCH  26  31
ENDBRANCH  23  25
ENDBRANCH   2  21
TORSDOF 6
ENDMDL
MODEL 2
REMARK VINA RESULT:     -10.5      1.224      1.548
REMARK  6 active torsions:
REMARK  status: ('A' for Active; 'I' for Inactive)
REMARK    1  A    between atoms: C10_18  and  O2_3 
REMARK    2  A    between atoms: C22_30  and  O2_3 
REMARK    3  A    between atoms: C4_12  and  N1_7 
REMARK       I    between atoms: C8_16  and  N1_7 
REMARK    4  A    between atoms: C7_15  and  N2_8 
REMARK       I    between atoms: C9_17  and  N2_8 
REMARK    5  A    between atoms: C2_10  and  C9_17 
REMARK    6  A    between atoms: C3_11  and  C8_16 
ROOT
HETATM    1  S1  UNK     1      17.894   0.136  37.423  1.00  0.00    -0.083 SA
HETATM    2  C2  UNK     1      17.927   0.062  34.855  1.00  0.00     0.066 A 
HETATM    3  C4  UNK     1      18.187  -0.681  35.962  1.00  0.00     0.092 A 
HETATM    4  C13 UNK     1      17.465   1.363  35.208  1.00  0.00     0.027 A 
HETATM    5  C17 UNK     1      17.400   1.537  36.572  1.00  0.00     0.053 A 
ENDROOT
BRANCH   3   6
HETATM    6  N1  UNK     1      18.651  -1.994  36.083  1.00  0.00    -0.316 N 
HETATM    7  C8  UNK     1      19.973  -2.406  35.994  1.00  0.00     0.262 C 
HETATM    8  O3  UNK     1      20.977  -1.724  35.795  1.00  0.00    -0.267 OA
HETATM    9  H2  UNK     1      17.924  -2.679  36.274  1.00  0.00     0.169 HD
BRANCH   7  10
HETATM   10  C3  UNK     1      20.108  -3.857  36.169  1.00  0.00     0.108 A 
HETATM   11  C12 UNK     1      20.337  -4.767  35.024  1.00  0.00     0.304 A 
HETATM   12  O1  UNK     1      20.450  -6.124  35.318  1.00  0.00    -0.274 OA
HETATM   13  O5  UNK     1      20.426  -4.353  33.874  1.00  0.00    -0.259 OA
HETATM   14  C5  UNK     1      20.350  -6.610  36.636  1.00  0.00     0.089 A 
HETATM   15  C1  UNK     1      20.134  -5.736  37.697  1.00  0.00    -0.001 A 
HETATM   16  C14 UNK     1      20.476  -7.983  36.830  1.00  0.00     0.038 A 
HETATM   17  C6  UNK     1      20.014  -4.313  37.423  1.00  0.00     0.037 A 
HETATM   18  C11 UNK     1      20.041  -6.257  38.990  1.00  0.00     0.014 A 
HETATM   19  C16 UNK     1      20.165  -7.633  39.201  1.00  0.00     0.001 A 
HETATM   20  C19 UNK     1      20.382  -8.494  38.124  1.00  0.00     0.003 A 
ENDBRANCH   7  10
ENDBRANCH   3   6
BRANCH   2  21
HETATM   21  C9  UNK     1      18.100  -0.415  33.507  1.00  0.00     0.259 C 
HETATM   22  O4  UNK     1      17.478  -1.407  33.087  1.00  0.00    -0.267 OA
HETATM   23  N2  UNK     1      19.037   0.291  32.732  1.00  0.00    -0.320 N 
HETATM   24  H3  UNK     1      19.524   1.068  33.174  1.00  0.00     0.169 HD
BRANCH  23  25
HETATM   25  C7  UNK     1      19.451   0.046  31.399  1.00  0.00     0.068 A 
HETATM   26  C10 UNK     1      18.977   0.843  30.372  1.00  0.00     0.095 A 
HETATM   27  C18 UNK     1      19.394   0.590  29.064  1.00  0.00     0.039 A 
HETATM   28  C21 UNK     1      20.276  -0.460  28.804  1.00  0.00     0.003 A 
HETATM   29  C20 UNK     1      20.743  -1.253  29.851  1.00  0.00     0.002 A 
HETATM   30  C15 UNK     1      20.327  -0.999  31.158  1.00  0.00     0.032 A 
BRANCH  26  31
HETATM   31  O2  UNK     1      18.114   1.873  30.603  1.00  0.00    -0.349 OA
BRANCH  31  32
HETATM   32  C22 UNK     1      18.651   3.192  30.554  1.00  0.00     0.171 C 
HETATM   33  C23 UNK     1      18.261   3.931  31.816  1.00  0.00     0.034 C 
ENDBRANCH  31  32
ENDBRANCH  26  31
ENDBRANCH  23  25
ENDBRANCH   2  21
TORSDOF 6
ENDMDL
MODEL 3
REMARK VINA RESULT:     -10.4      3.308     10.394
REMARK  6 active torsions:
REMARK  status: ('A' for Active; 'I' for Inactive)
REMARK    1  A    between atoms: C10_18  and  O2_3 
REMARK    2  A    between atoms: C22_30  and  O2_3 
REMARK    3  A    between atoms: C4_12  and  N1_7 
REMARK       I    between atoms: C8_16  and  N1_7 
REMARK    4  A    between atoms: C7_15  and  N2_8 
REMARK       I    between atoms: C9_17  and  N2_8 
REMARK    5  A    between atoms: C2_10  and  C9_17 
REMARK    6  A    between atoms: C3_11  and  C8_16 
ROOT
HETATM    1  S1  UNK     1      20.596  -0.317  29.676  1.00  0.00    -0.083 SA
HETATM    2  C2  UNK     1      19.286  -0.949  31.793  1.00  0.00     0.066 A 
HETATM    3  C4  UNK     1      19.658   0.109  31.027  1.00  0.00     0.092 A 
HETATM    4  C13 UNK     1      19.787  -2.171  31.259  1.00  0.00     0.027 A 
HETATM    5  C17 UNK     1      20.517  -1.972  30.109  1.00  0.00     0.053 A 
ENDROOT
BRANCH   3   6
HETATM    6  N1  UNK     1      19.392   1.474  31.176  1.00  0.00    -0.316 N 
HETATM    7  C8  UNK     1      18.382   2.184  30.545  1.00  0.00     0.262 C 
HETATM    8  O3  UNK     1      17.537   1.775  29.750  1.00  0.00    -0.267 OA
HETATM    9  H2  UNK     1      20.007   1.949  31.832  1.00  0.00     0.169 HD
BRANCH   7  10
HETATM   10  C3  UNK     1      18.386   3.601  30.928  1.00  0.00     0.108 A 
HETATM   11  C12 UNK     1      18.676   4.676  29.953  1.00  0.00     0.304 A 
HETATM   12  O1  UNK     1      18.650   5.982  30.437  1.00  0.00    -0.274 OA
HETATM   13  O5  UNK     1      18.926   4.436  28.778  1.00  0.00    -0.259 OA
HETATM   14  C5  UNK     1      18.363   6.269  31.785  1.00  0.00     0.089 A 
HETATM   15  C1  UNK     1      18.094   5.242  32.685  1.00  0.00    -0.001 A 
HETATM   16  C14 UNK     1      18.360   7.606  32.176  1.00  0.00     0.038 A 
HETATM   17  C6  UNK     1      18.112   3.868  32.211  1.00  0.00     0.037 A 
HETATM   18  C11 UNK     1      17.814   5.568  34.015  1.00  0.00     0.014 A 
HETATM   19  C16 UNK     1      17.807   6.905  34.422  1.00  0.00     0.001 A 
HETATM   20  C19 UNK     1      18.080   7.922  33.504  1.00  0.00     0.003 A 
ENDBRANCH   7  10
ENDBRANCH   3   6
BRANCH   2  21
HETATM   21  C9  UNK     1      18.490  -0.836  32.988  1.00  0.00     0.259 C 
HETATM   22  O4  UNK     1      17.321  -1.259  33.028  1.00  0.00    -0.267 OA
HETATM   23  N2  UNK     1      19.113  -0.190  34.071  1.00  0.00    -0.320 N 
HETATM   24  H3  UNK     1      20.061   0.154  33.932  1.00  0.00     0.169 HD
BRANCH  23  25
HETATM   25  C7  UNK     1      18.584   0.103  35.353  1.00  0.00     0.068 A 
HETATM   26  C10 UNK     1      18.496  -0.895  36.308  1.00  0.00     0.095 A 
HETATM   27  C18 UNK     1      17.973  -0.592  37.566  1.00  0.00     0.039 A 
HETATM   28  C21 UNK     1      17.545   0.705  37.848  1.00  0.00     0.003 A 
HETATM   29  C20 UNK     1      17.640   1.699  36.874  1.00  0.00     0.002 A 
HETATM   30  C15 UNK     1      18.164   1.395  35.617  1.00  0.00     0.032 A 
BRANCH  26  31
HETATM   31  O2  UNK     1      18.908  -2.170  36.052  1.00  0.00    -0.349 OA
BRANCH  31  32
HETATM   32  C22 UNK     1      20.210  -2.533  36.504  1.00  0.00     0.171 C 
HETATM   33  C23 UNK     1      20.181  -3.965  36.992  1.00  0.00     0.034 C 
ENDBRANCH  31  32
ENDBRANCH  26  31
ENDBRANCH  23  25
ENDBRANCH   2  21
TORSDOF 6
ENDMDL
MODEL 4
REMARK VINA RESULT:      -9.8      4.158     10.016
REMARK  6 active torsions:
REMARK  status: ('A' for Active; 'I' for Inactive)
REMARK    1  A    between atoms: C10_18  and  O2_3 
REMARK    2  A    between atoms: C22_30  and  O2_3 
REMARK    3  A    between atoms: C4_12  and  N1_7 
REMARK       I    between atoms: C8_16  and  N1_7 
REMARK    4  A    between atoms: C7_15  and  N2_8 
REMARK       I    between atoms: C9_17  and  N2_8 
REMARK    5  A    between atoms: C2_10  and  C9_17 
REMARK    6  A    between atoms: C3_11  and  C8_16 
ROOT
HETATM    1  S1  UNK     1      20.764  -0.468  29.313  1.00  0.00    -0.083 SA
HETATM    2  C2  UNK     1      19.594  -1.213  31.475  1.00  0.00     0.066 A 
HETATM    3  C4  UNK     1      19.881  -0.120  30.723  1.00  0.00     0.092 A 
HETATM    4  C13 UNK     1      20.115  -2.398  30.879  1.00  0.00     0.027 A 
HETATM    5  C17 UNK     1      20.775  -2.136  29.699  1.00  0.00     0.053 A 
ENDROOT
BRANCH   3   6
HETATM    6  N1  UNK     1      19.569   1.228  30.927  1.00  0.00    -0.316 N 
HETATM    7  C8  UNK     1      18.466   1.898  30.419  1.00  0.00     0.262 C 
HETATM    8  O3  UNK     1      17.563   1.460  29.708  1.00  0.00    -0.267 OA
HETATM    9  H2  UNK     1      20.227   1.723  31.524  1.00  0.00     0.169 HD
BRANCH   7  10
HETATM   10  C3  UNK     1      18.444   3.307  30.828  1.00  0.00     0.108 A 
HETATM   11  C12 UNK     1      18.681   4.407  29.866  1.00  0.00     0.304 A 
HETATM   12  O1  UNK     1      18.634   5.702  30.375  1.00  0.00    -0.274 OA
HETATM   13  O5  UNK     1      18.906   4.194  28.680  1.00  0.00    -0.259 OA
HETATM   14  C5  UNK     1      18.375   5.958  31.735  1.00  0.00     0.089 A 
HETATM   15  C1  UNK     1      18.156   4.909  32.622  1.00  0.00    -0.001 A 
HETATM   16  C14 UNK     1      18.348   7.287  32.150  1.00  0.00     0.038 A 
HETATM   17  C6  UNK     1      18.197   3.544  32.122  1.00  0.00     0.037 A 
HETATM   18  C11 UNK     1      17.902   5.203  33.964  1.00  0.00     0.014 A 
HETATM   19  C16 UNK     1      17.872   6.532  34.396  1.00  0.00     0.001 A 
HETATM   20  C19 UNK     1      18.094   7.572  33.490  1.00  0.00     0.003 A 
ENDBRANCH   7  10
ENDBRANCH   3   6
BRANCH   2  21
HETATM   21  C9  UNK     1      18.857  -1.168  32.712  1.00  0.00     0.259 C 
HETATM   22  O4  UNK     1      17.642  -0.907  32.732  1.00  0.00    -0.267 OA
HETATM   23  N2  UNK     1      19.614  -1.398  33.875  1.00  0.00    -0.320 N 
HETATM   24  H3  UNK     1      20.612  -1.569  33.761  1.00  0.00     0.169 HD
BRANCH  23  25
HETATM   25  C7  UNK     1      19.191  -1.384  35.227  1.00  0.00     0.068 A 
HETATM   26  C10 UNK     1      18.817  -0.191  35.821  1.00  0.00     0.095 A 
HETATM   27  C18 UNK     1      18.402  -0.193  37.154  1.00  0.00     0.039 A 
HETATM   28  C21 UNK     1      18.369  -1.389  37.872  1.00  0.00     0.003 A 
HETATM   29  C20 UNK     1      18.749  -2.582  37.258  1.00  0.00     0.002 A 
HETATM   30  C15 UNK     1      19.163  -2.580  35.926  1.00  0.00     0.032 A 
BRANCH  26  31
HETATM   31  O2  UNK     1      18.842   0.988  35.138  1.00  0.00    -0.349 OA
BRANCH  31  32
HETATM   32  C22 UNK     1      18.557   2.172  35.878  1.00  0.00     0.171 C 
HETATM   33  C23 UNK     1      19.844   2.935  36.105  1.00  0.00     0.034 C 
ENDBRANCH  31  32
ENDBRANCH  26  31
ENDBRANCH  23  25
ENDBRANCH   2  21
TORSDOF 6
ENDMDL
MODEL 5
REMARK VINA RESULT:      -9.4      1.837      3.005
REMARK  6 active torsions:
REMARK  status: ('A' for Active; 'I' for Inactive)
REMARK    1  A    between atoms: C10_18  and  O2_3 
REMARK    2  A    between atoms: C22_30  and  O2_3 
REMARK    3  A    between atoms: C4_12  and  N1_7 
REMARK       I    between atoms: C8_16  and  N1_7 
REMARK    4  A    between atoms: C7_15  and  N2_8 
REMARK       I    between atoms: C9_17  and  N2_8 
REMARK    5  A    between atoms: C2_10  and  C9_17 
REMARK    6  A    between atoms: C3_11  and  C8_16 
ROOT
HETATM    1  S1  UNK     1      18.289   0.920  37.092  1.00  0.00    -0.083 SA
HETATM    2  C2  UNK     1      18.184   0.602  34.544  1.00  0.00     0.066 A 
HETATM    3  C4  UNK     1      18.494  -0.037  35.703  1.00  0.00     0.092 A 
HETATM    4  C13 UNK     1      17.758   1.939  34.794  1.00  0.00     0.027 A 
HETATM    5  C17 UNK     1      17.768   2.243  36.137  1.00  0.00     0.053 A 
ENDROOT
BRANCH   3   6
HETATM    6  N1  UNK     1      18.948  -1.340  35.925  1.00  0.00    -0.316 N 
HETATM    7  C8  UNK     1      18.363  -2.279  36.762  1.00  0.00     0.262 C 
HETATM    8  O3  UNK     1      17.357  -2.164  37.459  1.00  0.00    -0.267 OA
HETATM    9  H2  UNK     1      19.776  -1.590  35.390  1.00  0.00     0.169 HD
BRANCH   7  10
HETATM   10  C3  UNK     1      19.100  -3.549  36.760  1.00  0.00     0.108 A 
HETATM   11  C12 UNK     1      20.564  -3.607  36.972  1.00  0.00     0.304 A 
HETATM   12  O1  UNK     1      21.148  -4.870  36.949  1.00  0.00    -0.274 OA
HETATM   13  O5  UNK     1      21.232  -2.597  37.160  1.00  0.00    -0.259 OA
HETATM   14  C5  UNK     1      20.390  -6.037  36.735  1.00  0.00     0.089 A 
HETATM   15  C1  UNK     1      19.014  -5.959  36.537  1.00  0.00    -0.001 A 
HETATM   16  C14 UNK     1      21.064  -7.256  36.729  1.00  0.00     0.038 A 
HETATM   17  C6  UNK     1      18.373  -4.654  36.556  1.00  0.00     0.037 A 
HETATM   18  C11 UNK     1      18.296  -7.139  36.328  1.00  0.00     0.014 A 
HETATM   19  C16 UNK     1      18.958  -8.370  36.319  1.00  0.00     0.001 A 
HETATM   20  C19 UNK     1      20.339  -8.428  36.520  1.00  0.00     0.003 A 
ENDBRANCH   7  10
ENDBRANCH   3   6
BRANCH   2  21
HETATM   21  C9  UNK     1      18.280  -0.004  33.241  1.00  0.00     0.259 C 
HETATM   22  O4  UNK     1      17.719  -1.085  32.988  1.00  0.00    -0.267 OA
HETATM   23  N2  UNK     1      19.072   0.690  32.309  1.00  0.00    -0.320 N 
HETATM   24  H3  UNK     1      19.521   1.549  32.620  1.00  0.00     0.169 HD
BRANCH  23  25
HETATM   25  C7  UNK     1      19.386   0.335  30.973  1.00  0.00     0.068 A 
HETATM   26  C10 UNK     1      20.407  -0.564  30.719  1.00  0.00     0.095 A 
HETATM   27  C18 UNK     1      20.704  -0.903  29.398  1.00  0.00     0.039 A 
HETATM   28  C21 UNK     1      19.975  -0.336  28.352  1.00  0.00     0.003 A 
HETATM   29  C20 UNK     1      18.950   0.569  28.626  1.00  0.00     0.002 A 
HETATM   30  C15 UNK     1      18.653   0.907  29.947  1.00  0.00     0.032 A 
BRANCH  26  31
HETATM   31  O2  UNK     1      21.132  -1.128  31.726  1.00  0.00    -0.349 OA
BRANCH  31  32
HETATM   32  C22 UNK     1      20.925  -2.517  31.972  1.00  0.00     0.171 C 
HETATM   33  C23 UNK     1      20.739  -2.732  33.459  1.00  0.00     0.034 C 
ENDBRANCH  31  32
ENDBRANCH  26  31
ENDBRANCH  23  25
ENDBRANCH   2  21
TORSDOF 6
ENDMDL
MODEL 6
REMARK VINA RESULT:      -9.3      4.448     11.058
REMARK  6 active torsions:
REMARK  status: ('A' for Active; 'I' for Inactive)
REMARK    1  A    between atoms: C10_18  and  O2_3 
REMARK    2  A    between atoms: C22_30  and  O2_3 
REMARK    3  A    between atoms: C4_12  and  N1_7 
REMARK       I    between atoms: C8_16  and  N1_7 
REMARK    4  A    between atoms: C7_15  and  N2_8 
REMARK       I    between atoms: C9_17  and  N2_8 
REMARK    5  A    between atoms: C2_10  and  C9_17 
REMARK    6  A    between atoms: C3_11  and  C8_16 
ROOT
HETATM    1  S1  UNK     1      18.522   2.524  29.496  1.00  0.00    -0.083 SA
HETATM    2  C2  UNK     1      18.761   1.213  31.693  1.00  0.00     0.066 A 
HETATM    3  C4  UNK     1      18.425   2.430  31.190  1.00  0.00     0.092 A 
HETATM    4  C13 UNK     1      19.117   0.308  30.652  1.00  0.00     0.027 A 
HETATM    5  C17 UNK     1      19.030   0.890  29.407  1.00  0.00     0.053 A 
ENDROOT
BRANCH   3   6
HETATM    6  N1  UNK     1      18.019   3.598  31.841  1.00  0.00    -0.316 N 
HETATM    7  C8  UNK     1      18.671   4.822  31.808  1.00  0.00     0.262 C 
HETATM    8  O3  UNK     1      19.709   5.123  31.219  1.00  0.00    -0.267 OA
HETATM    9  H2  UNK     1      17.150   3.506  32.360  1.00  0.00     0.169 HD
BRANCH   7  10
HETATM   10  C3  UNK     1      17.971   5.838  32.603  1.00  0.00     0.108 A 
HETATM   11  C12 UNK     1      18.557   6.410  33.836  1.00  0.00     0.304 A 
HETATM   12  O1  UNK     1      17.797   7.367  34.503  1.00  0.00    -0.274 OA
HETATM   13  O5  UNK     1      19.657   6.063  34.253  1.00  0.00    -0.259 OA
HETATM   14  C5  UNK     1      16.533   7.773  34.033  1.00  0.00     0.089 A 
HETATM   15  C1  UNK     1      16.001   7.221  32.871  1.00  0.00    -0.001 A 
HETATM   16  C14 UNK     1      15.848   8.737  34.768  1.00  0.00     0.038 A 
HETATM   17  C6  UNK     1      16.771   6.220  32.150  1.00  0.00     0.037 A 
HETATM   18  C11 UNK     1      14.745   7.650  32.436  1.00  0.00     0.014 A 
HETATM   19  C16 UNK     1      14.044   8.616  33.164  1.00  0.00     0.001 A 
HETATM   20  C19 UNK     1      14.595   9.158  34.327  1.00  0.00     0.003 A 
ENDBRANCH   7  10
ENDBRANCH   3   6
BRANCH   2  21
HETATM   21  C9  UNK     1      18.756   0.895  33.097  1.00  0.00     0.259 C 
HETATM   22  O4  UNK     1      18.809   1.786  33.963  1.00  0.00    -0.267 OA
HETATM   23  N2  UNK     1      18.726  -0.477  33.406  1.00  0.00    -0.320 N 
HETATM   24  H3  UNK     1      18.720  -1.134  32.628  1.00  0.00     0.169 HD
BRANCH  23  25
HETATM   25  C7  UNK     1      18.749  -1.102  34.678  1.00  0.00     0.068 A 
HETATM   26  C10 UNK     1      17.670  -0.963  35.534  1.00  0.00     0.095 A 
HETATM   27  C18 UNK     1      17.707  -1.584  36.784  1.00  0.00     0.039 A 
HETATM   28  C21 UNK     1      18.824  -2.332  37.158  1.00  0.00     0.003 A 
HETATM   29  C20 UNK     1      19.902  -2.461  36.283  1.00  0.00     0.002 A 
HETATM   30  C15 UNK     1      19.864  -1.841  35.034  1.00  0.00     0.032 A 
BRANCH  26  31
HETATM   31  O2  UNK     1      16.570  -0.236  35.189  1.00  0.00    -0.349 OA
BRANCH  31  32
HETATM   32  C22 UNK     1      15.902   0.464  36.235  1.00  0.00     0.171 C 
HETATM   33  C23 UNK     1      16.840   1.503  36.811  1.00  0.00     0.034 C 
ENDBRANCH  31  32
ENDBRANCH  26  31
ENDBRANCH  23  25
ENDBRANCH   2  21
TORSDOF 6
ENDMDL
MODEL 7
REMARK VINA RESULT:      -9.0      7.747     11.583
REMARK  6 active torsions:
REMARK  status: ('A' for Active; 'I' for Inactive)
REMARK    1  A    between atoms: C10_18  and  O2_3 
REMARK    2  A    between atoms: C22_30  and  O2_3 
REMARK    3  A    between atoms: C4_12  and  N1_7 
REMARK       I    between atoms: C8_16  and  N1_7 
REMARK    4  A    between atoms: C7_15  and  N2_8 
REMARK       I    between atoms: C9_17  and  N2_8 
REMARK    5  A    between atoms: C2_10  and  C9_17 
REMARK    6  A    between atoms: C3_11  and  C8_16 
ROOT
HETATM    1  S1  UNK     1      29.162  -9.855  38.977  1.00  0.00    -0.083 SA
HETATM    2  C2  UNK     1      26.823  -8.793  39.003  1.00  0.00     0.066 A 
HETATM    3  C4  UNK     1      27.988  -8.827  38.305  1.00  0.00     0.092 A 
HETATM    4  C13 UNK     1      26.884  -9.644  40.144  1.00  0.00     0.027 A 
HETATM    5  C17 UNK     1      28.099 -10.282  40.250  1.00  0.00     0.053 A 
ENDROOT
BRANCH   3   6
HETATM    6  N1  UNK     1      28.364  -8.157  37.137  1.00  0.00    -0.316 N 
HETATM    7  C8  UNK     1      28.467  -8.715  35.871  1.00  0.00     0.262 C 
HETATM    8  O3  UNK     1      28.255  -9.876  35.525  1.00  0.00    -0.267 OA
HETATM    9  H2  UNK     1      28.553  -7.166  37.266  1.00  0.00     0.169 HD
BRANCH   7  10
HETATM   10  C3  UNK     1      28.887  -7.728  34.870  1.00  0.00     0.108 A 
HETATM   11  C12 UNK     1      29.958  -6.742  35.141  1.00  0.00     0.304 A 
HETATM   12  O1  UNK     1      30.268  -5.857  34.112  1.00  0.00    -0.274 OA
HETATM   13  O5  UNK     1      30.546  -6.703  36.216  1.00  0.00    -0.259 OA
HETATM   14  C5  UNK     1      29.599  -5.894  32.873  1.00  0.00     0.089 A 
HETATM   15  C1  UNK     1      28.595  -6.829  32.639  1.00  0.00    -0.001 A 
HETATM   16  C14 UNK     1      29.979  -4.968  31.904  1.00  0.00     0.038 A 
HETATM   17  C6  UNK     1      28.248  -7.768  33.694  1.00  0.00     0.037 A 
HETATM   18  C11 UNK     1      27.955  -6.834  31.397  1.00  0.00     0.014 A 
HETATM   19  C16 UNK     1      28.325  -5.911  30.415  1.00  0.00     0.001 A 
HETATM   20  C19 UNK     1      29.336  -4.981  30.668  1.00  0.00     0.003 A 
ENDBRANCH   7  10
ENDBRANCH   3   6
BRANCH   2  21
HETATM   21  C9  UNK     1      25.685  -7.995  38.629  1.00  0.00     0.259 C 
HETATM   22  O4  UNK     1      25.820  -6.833  38.205  1.00  0.00    -0.267 OA
HETATM   23  N2  UNK     1      24.431  -8.606  38.812  1.00  0.00    -0.320 N 
HETATM   24  H3  UNK     1      24.419  -9.548  39.199  1.00  0.00     0.169 HD
BRANCH  23  25
HETATM   25  C7  UNK     1      23.140  -8.072  38.574  1.00  0.00     0.068 A 
HETATM   26  C10 UNK     1      22.487  -8.349  37.385  1.00  0.00     0.095 A 
HETATM   27  C18 UNK     1      21.216  -7.817  37.165  1.00  0.00     0.039 A 
HETATM   28  C21 UNK     1      20.619  -7.013  38.137  1.00  0.00     0.003 A 
HETATM   29  C20 UNK     1      21.291  -6.744  39.328  1.00  0.00     0.002 A 
HETATM   30  C15 UNK     1      22.561  -7.277  39.549  1.00  0.00     0.032 A 
BRANCH  26  31
HETATM   31  O2  UNK     1      23.053  -9.131  36.423  1.00  0.00    -0.349 OA
BRANCH  31  32
HETATM   32  C22 UNK     1      22.255 -10.187  35.893  1.00  0.00     0.171 C 
HETATM   33  C23 UNK     1      23.112 -11.426  35.744  1.00  0.00     0.034 C 
ENDBRANCH  31  32
ENDBRANCH  26  31
ENDBRANCH  23  25
ENDBRANCH   2  21
TORSDOF 6
ENDMDL
MODEL 8
REMARK VINA RESULT:      -9.0     26.900     28.690
REMARK  6 active torsions:
REMARK  status: ('A' for Active; 'I' for Inactive)
REMARK    1  A    between atoms: C10_18  and  O2_3 
REMARK    2  A    between atoms: C22_30  and  O2_3 
REMARK    3  A    between atoms: C4_12  and  N1_7 
REMARK       I    between atoms: C8_16  and  N1_7 
REMARK    4  A    between atoms: C7_15  and  N2_8 
REMARK       I    between atoms: C9_17  and  N2_8 
REMARK    5  A    between atoms: C2_10  and  C9_17 
REMARK    6  A    between atoms: C3_11  and  C8_16 
ROOT
HETATM    1  S1  UNK     1       9.234   6.112   6.198  1.00  0.00    -0.083 SA
HETATM    2  C2  UNK     1      11.114   6.630   7.870  1.00  0.00     0.066 A 
HETATM    3  C4  UNK     1       9.840   6.168   7.784  1.00  0.00     0.092 A 
HETATM    4  C13 UNK     1      11.630   6.956   6.582  1.00  0.00     0.027 A 
HETATM    5  C17 UNK     1      10.711   6.722   5.583  1.00  0.00     0.053 A 
ENDROOT
BRANCH   3   6
HETATM    6  N1  UNK     1       8.962   5.739   8.785  1.00  0.00    -0.316 N 
HETATM    7  C8  UNK     1       7.736   6.308   9.096  1.00  0.00     0.262 C 
HETATM    8  O3  UNK     1       7.184   7.276   8.575  1.00  0.00    -0.267 OA
HETATM    9  H2  UNK     1       9.281   4.920   9.296  1.00  0.00     0.169 HD
BRANCH   7  10
HETATM   10  C3  UNK     1       7.073   5.608  10.202  1.00  0.00     0.108 A 
HETATM   11  C12 UNK     1       6.762   4.162  10.142  1.00  0.00     0.304 A 
HETATM   12  O1  UNK     1       6.131   3.611  11.254  1.00  0.00    -0.274 OA
HETATM   13  O5  UNK     1       7.045   3.478   9.165  1.00  0.00    -0.259 OA
HETATM   14  C5  UNK     1       5.802   4.387  12.382  1.00  0.00     0.089 A 
HETATM   15  C1  UNK     1       6.103   5.745  12.418  1.00  0.00    -0.001 A 
HETATM   16  C14 UNK     1       5.172   3.747  13.447  1.00  0.00     0.038 A 
HETATM   17  C6  UNK     1       6.763   6.350  11.272  1.00  0.00     0.037 A 
HETATM   18  C11 UNK     1       5.761   6.481  13.555  1.00  0.00     0.014 A 
HETATM   19  C16 UNK     1       5.128   5.853  14.632  1.00  0.00     0.001 A 
HETATM   20  C19 UNK     1       4.835   4.489  14.578  1.00  0.00     0.003 A 
ENDBRANCH   7  10
ENDBRANCH   3   6
BRANCH   2  21
HETATM   21  C9  UNK     1      11.838   6.768   9.107  1.00  0.00     0.259 C 
HETATM   22  O4  UNK     1      11.725   5.931  10.020  1.00  0.00    -0.267 OA
HETATM   23  N2  UNK     1      12.638   7.920   9.214  1.00  0.00    -0.320 N 
HETATM   24  H3  UNK     1      12.640   8.566   8.428  1.00  0.00     0.169 HD
BRANCH  23  25
HETATM   25  C7  UNK     1      13.431   8.351  10.307  1.00  0.00     0.068 A 
HETATM   26  C10 UNK     1      14.752   7.950  10.401  1.00  0.00     0.095 A 
HETATM   27  C18 UNK     1      15.521   8.382  11.483  1.00  0.00     0.039 A 
HETATM   28  C21 UNK     1      14.955   9.209  12.454  1.00  0.00     0.003 A 
HETATM   29  C20 UNK     1      13.623   9.603  12.344  1.00  0.00     0.002 A 
HETATM   30  C15 UNK     1      12.855   9.171  11.262  1.00  0.00     0.032 A 
BRANCH  26  31
HETATM   31  O2  UNK     1      15.324   7.142   9.464  1.00  0.00    -0.349 OA
BRANCH  31  32
HETATM   32  C22 UNK     1      16.006   5.982   9.936  1.00  0.00     0.171 C 
HETATM   33  C23 UNK     1      15.052   4.807   9.916  1.00  0.00     0.034 C 
ENDBRANCH  31  32
ENDBRANCH  26  31
ENDBRANCH  23  25
ENDBRANCH   2  21
TORSDOF 6
ENDMDL
MODEL 9
REMARK VINA RESULT:      -8.9      3.490      8.389
REMARK  6 active torsions:
REMARK  status: ('A' for Active; 'I' for Inactive)
REMARK    1  A    between atoms: C10_18  and  O2_3 
REMARK    2  A    between atoms: C22_30  and  O2_3 
REMARK    3  A    between atoms: C4_12  and  N1_7 
REMARK       I    between atoms: C8_16  and  N1_7 
REMARK    4  A    between atoms: C7_15  and  N2_8 
REMARK       I    between atoms: C9_17  and  N2_8 
REMARK    5  A    between atoms: C2_10  and  C9_17 
REMARK    6  A    between atoms: C3_11  and  C8_16 
ROOT
HETATM    1  S1  UNK     1      18.054  -0.977  37.337  1.00  0.00    -0.083 SA
HETATM    2  C2  UNK     1      19.344  -1.809  35.277  1.00  0.00     0.066 A 
HETATM    3  C4  UNK     1      18.893  -0.683  35.889  1.00  0.00     0.092 A 
HETATM    4  C13 UNK     1      18.991  -2.973  36.020  1.00  0.00     0.027 A 
HETATM    5  C17 UNK     1      18.287  -2.664  37.162  1.00  0.00     0.053 A 
ENDROOT
BRANCH   3   6
HETATM    6  N1  UNK     1      19.011   0.659  35.516  1.00  0.00    -0.316 N 
HETATM    7  C8  UNK     1      18.088   1.388  34.782  1.00  0.00     0.262 C 
HETATM    8  O3  UNK     1      17.010   1.018  34.320  1.00  0.00    -0.267 OA
HETATM    9  H2  UNK     1      19.858   1.112  35.851  1.00  0.00     0.169 HD
BRANCH   7  10
HETATM   10  C3  UNK     1      18.527   2.772  34.569  1.00  0.00     0.108 A 
HETATM   11  C12 UNK     1      19.581   3.398  35.400  1.00  0.00     0.304 A 
HETATM   12  O1  UNK     1      19.911   4.717  35.102  1.00  0.00    -0.274 OA
HETATM   13  O5  UNK     1      20.139   2.789  36.306  1.00  0.00    -0.259 OA
HETATM   14  C5  UNK     1      19.277   5.425  34.063  1.00  0.00     0.089 A 
HETATM   15  C1  UNK     1      18.288   4.818  33.295  1.00  0.00    -0.001 A 
HETATM   16  C14 UNK     1      19.675   6.741  33.839  1.00  0.00     0.038 A 
HETATM   17  C6  UNK     1      17.921   3.440  33.580  1.00  0.00     0.037 A 
HETATM   18  C11 UNK     1      17.682   5.554  32.273  1.00  0.00     0.014 A 
HETATM   19  C16 UNK     1      18.071   6.876  32.037  1.00  0.00     0.001 A 
HETATM   20  C19 UNK     1      19.066   7.468  32.818  1.00  0.00     0.003 A 
ENDBRANCH   7  10
ENDBRANCH   3   6
BRANCH   2  21
HETATM   21  C9  UNK     1      20.080  -1.812  34.039  1.00  0.00     0.259 C 
HETATM   22  O4  UNK     1      21.289  -2.104  34.006  1.00  0.00    -0.267 OA
HETATM   23  N2  UNK     1      19.349  -1.430  32.900  1.00  0.00    -0.320 N 
HETATM   24  H3  UNK     1      18.373  -1.174  33.032  1.00  0.00     0.169 HD
BRANCH  23  25
HETATM   25  C7  UNK     1      19.795  -1.301  31.561  1.00  0.00     0.068 A 
HETATM   26  C10 UNK     1      19.573  -0.122  30.870  1.00  0.00     0.095 A 
HETATM   27  C18 UNK     1      20.018  -0.010  29.552  1.00  0.00     0.039 A 
HETATM   28  C21 UNK     1      20.677  -1.079  28.945  1.00  0.00     0.003 A 
HETATM   29  C20 UNK     1      20.893  -2.259  29.656  1.00  0.00     0.002 A 
HETATM   30  C15 UNK     1      20.448  -2.371  30.974  1.00  0.00     0.032 A 
BRANCH  26  31
HETATM   31  O2  UNK     1      18.929   0.934  31.444  1.00  0.00    -0.349 OA
BRANCH  31  32
HETATM   32  C22 UNK     1      19.058   2.199  30.798  1.00  0.00     0.171 C 
HETATM   33  C23 UNK     1      17.799   2.479  30.006  1.00  0.00     0.034 C 
ENDBRANCH  31  32
ENDBRANCH  26  31
ENDBRANCH  23  25
ENDBRANCH   2  21
TORSDOF 6
ENDMDL
MODEL 10
REMARK VINA RESULT:      -8.9      4.415     11.838
REMARK  6 active torsions:
REMARK  status: ('A' for Active; 'I' for Inactive)
REMARK    1  A    between atoms: C10_18  and  O2_3 
REMARK    2  A    between atoms: C22_30  and  O2_3 
REMARK    3  A    between atoms: C4_12  and  N1_7 
REMARK       I    between atoms: C8_16  and  N1_7 
REMARK    4  A    between atoms: C7_15  and  N2_8 
REMARK       I    between atoms: C9_17  and  N2_8 
REMARK    5  A    between atoms: C2_10  and  C9_17 
REMARK    6  A    between atoms: C3_11  and  C8_16 
ROOT
HETATM    1  S1  UNK     1      18.554   2.684  29.652  1.00  0.00    -0.083 SA
HETATM    2  C2  UNK     1      18.514   2.003  32.129  1.00  0.00     0.066 A 
HETATM    3  C4  UNK     1      18.218   3.024  31.282  1.00  0.00     0.092 A 
HETATM    4  C13 UNK     1      19.041   0.885  31.420  1.00  0.00     0.027 A 
HETATM    5  C17 UNK     1      19.117   1.120  30.066  1.00  0.00     0.053 A 
ENDROOT
BRANCH   3   6
HETATM    6  N1  UNK     1      17.689   4.292  31.542  1.00  0.00    -0.316 N 
HETATM    7  C8  UNK     1      18.408   5.418  31.912  1.00  0.00     0.262 C 
HETATM    8  O3  UNK     1      19.621   5.532  32.084  1.00  0.00    -0.267 OA
HETATM    9  H2  UNK     1      16.682   4.357  31.417  1.00  0.00     0.169 HD
BRANCH   7  10
HETATM   10  C3  UNK     1      17.539   6.585  32.105  1.00  0.00     0.108 A 
HETATM   11  C12 UNK     1      17.017   7.372  30.965  1.00  0.00     0.304 A 
HETATM   12  O1  UNK     1      16.201   8.456  31.276  1.00  0.00    -0.274 OA
HETATM   13  O5  UNK     1      17.286   7.088  29.803  1.00  0.00    -0.259 OA
HETATM   14  C5  UNK     1      15.885   8.792  32.606  1.00  0.00     0.089 A 
HETATM   15  C1  UNK     1      16.387   8.038  33.663  1.00  0.00    -0.001 A 
HETATM   16  C14 UNK     1      15.061   9.894  32.818  1.00  0.00     0.038 A 
HETATM   17  C6  UNK     1      17.241   6.898  33.372  1.00  0.00     0.037 A 
HETATM   18  C11 UNK     1      16.051   8.403  34.969  1.00  0.00     0.014 A 
HETATM   19  C16 UNK     1      15.224   9.507  35.198  1.00  0.00     0.001 A 
HETATM   20  C19 UNK     1      14.730  10.250  34.124  1.00  0.00     0.003 A 
ENDBRANCH   7  10
ENDBRANCH   3   6
BRANCH   2  21
HETATM   21  C9  UNK     1      18.316   2.058  33.554  1.00  0.00     0.259 C 
HETATM   22  O4  UNK     1      18.294   3.143  34.163  1.00  0.00    -0.267 OA
HETATM   23  N2  UNK     1      18.191   0.813  34.196  1.00  0.00    -0.320 N 
HETATM   24  H3  UNK     1      18.257  -0.023  33.618  1.00  0.00     0.169 HD
BRANCH  23  25
HETATM   25  C7  UNK     1      18.026   0.538  35.576  1.00  0.00     0.068 A 
HETATM   26  C10 UNK     1      18.528  -0.635  36.112  1.00  0.00     0.095 A 
HETATM   27  C18 UNK     1      18.358  -0.892  37.473  1.00  0.00     0.039 A 
HETATM   28  C21 UNK     1      17.686   0.029  38.277  1.00  0.00     0.003 A 
HETATM   29  C20 UNK     1      17.185   1.206  37.721  1.00  0.00     0.002 A 
HETATM   30  C15 UNK     1      17.357   1.462  36.361  1.00  0.00     0.032 A 
BRANCH  26  31
HETATM   31  O2  UNK     1      19.187  -1.549  35.343  1.00  0.00    -0.349 OA
BRANCH  31  32
HETATM   32  C22 UNK     1      20.255  -2.264  35.960  1.00  0.00     0.171 C 
HETATM   33  C23 UNK     1      19.874  -3.725  36.064  1.00  0.00     0.034 C 
ENDBRANCH  31  32
ENDBRANCH  26  31
ENDBRANCH  23  25
ENDBRANCH   2  21
TORSDOF 6
ENDMDL
