MODEL 1
REMARK VINA RESULT:      -8.2      0.000      0.000
REMARK  2 active torsions:
REMARK  status: ('A' for Active; 'I' for Inactive)
REMARK    1  A    between atoms: C7_11  and  O3_3 
REMARK    2  A    between atoms: C3_7  and  C7_11 
ROOT
HETATM    1  O1  UNK     1      19.776  -2.418  34.877  1.00  0.00    -0.311 OA
HETATM    2  O2  UNK     1      18.382   0.832  31.807  1.00  0.00    -0.274 OA
HETATM    3  O4  UNK     1      17.674   2.437  30.341  1.00  0.00    -0.260 OA
HETATM    4  C1  UNK     1      19.143  -0.876  33.353  1.00  0.00     0.041 A 
HETATM    5  C2  UNK     1      18.448  -0.629  34.567  1.00  0.00    -0.014 A 
HETATM    6  C3  UNK     1      18.868  -1.591  35.457  1.00  0.00     0.088 A 
HETATM    7  C4  UNK     1      19.944  -1.984  33.597  1.00  0.00     0.089 A 
HETATM    8  C5  UNK     1      19.190  -0.295  32.073  1.00  0.00     0.103 A 
HETATM    9  C6  UNK     1      20.026  -0.825  31.077  1.00  0.00     0.005 A 
HETATM   10  C8  UNK     1      20.791  -2.552  32.650  1.00  0.00     0.039 A 
HETATM   11  C9  UNK     1      20.813  -1.948  31.385  1.00  0.00     0.017 A 
HETATM   12  C10 UNK     1      20.038  -0.177  29.755  1.00  0.00    -0.043 A 
HETATM   13  C11 UNK     1      17.468   0.442  34.831  1.00  0.00     0.052 C 
HETATM   14  C13 UNK     1      19.257   0.890  29.541  1.00  0.00     0.090 A 
HETATM   15  C14 UNK     1      20.920  -0.716  28.664  1.00  0.00     0.049 C 
HETATM   16  C15 UNK     1      18.375   1.459  30.572  1.00  0.00     0.288 A 
ENDROOT
BRANCH   6  17
HETATM   17  C7  UNK     1      18.534  -1.881  36.859  1.00  0.00     0.171 C 
HETATM   18  C12 UNK     1      17.893  -0.692  37.597  1.00  0.00     0.046 C 
BRANCH  17  19
HETATM   19  O3  UNK     1      17.620  -2.990  36.949  1.00  0.00    -0.389 OA
HETATM   20  H14 UNK     1      18.047  -3.677  37.487  1.00  0.00     0.210 HD
ENDBRANCH  17  19
ENDBRANCH   6  17
TORSDOF 2
ENDMDL
MODEL 2
REMARK VINA RESULT:      -8.2      1.461      6.422
REMARK  2 active torsions:
REMARK  status: ('A' for Active; 'I' for Inactive)
REMARK    1  A    between atoms: C7_11  and  O3_3 
REMARK    2  A    between atoms: C3_7  and  C7_11 
ROOT
HETATM    1  O1  UNK     1      18.567   1.730  31.872  1.00  0.00    -0.311 OA
HETATM    2  O2  UNK     1      18.804  -1.597  35.160  1.00  0.00    -0.274 OA
HETATM    3  O4  UNK     1      18.933  -3.252  36.732  1.00  0.00    -0.260 OA
HETATM    4  C1  UNK     1      18.664   0.168  33.501  1.00  0.00     0.041 A 
HETATM    5  C2  UNK     1      19.024  -0.437  32.267  1.00  0.00    -0.014 A 
HETATM    6  C3  UNK     1      18.950   0.552  31.314  1.00  0.00     0.088 A 
HETATM    7  C4  UNK     1      18.394   1.498  33.203  1.00  0.00     0.089 A 
HETATM    8  C5  UNK     1      18.534  -0.249  34.838  1.00  0.00     0.103 A 
HETATM    9  C6  UNK     1      18.142   0.658  35.836  1.00  0.00     0.005 A 
HETATM   10  C8  UNK     1      18.002   2.440  34.149  1.00  0.00     0.039 A 
HETATM   11  C9  UNK     1      17.882   1.990  35.471  1.00  0.00     0.017 A 
HETATM   12  C10 UNK     1      18.022   0.169  37.219  1.00  0.00    -0.043 A 
HETATM   13  C11 UNK     1      19.402  -1.846  32.042  1.00  0.00     0.052 C 
HETATM   14  C13 UNK     1      18.287  -1.118  37.485  1.00  0.00     0.090 A 
HETATM   15  C14 UNK     1      17.606   1.109  38.314  1.00  0.00     0.049 C 
HETATM   16  C15 UNK     1      18.698  -2.082  36.453  1.00  0.00     0.288 A 
ENDROOT
BRANCH   6  17
HETATM   17  C7  UNK     1      19.195   0.574  29.864  1.00  0.00     0.171 C 
HETATM   18  C12 UNK     1      18.647   1.832  29.167  1.00  0.00     0.046 C 
BRANCH  17  19
HETATM   19  O3  UNK     1      20.604   0.502  29.582  1.00  0.00    -0.389 OA
HETATM   20  H14 UNK     1      20.771   1.040  28.790  1.00  0.00     0.210 HD
ENDBRANCH  17  19
ENDBRANCH   6  17
TORSDOF 2
ENDMDL
MODEL 3
REMARK VINA RESULT:      -8.1      2.763      5.395
REMARK  2 active torsions:
REMARK  status: ('A' for Active; 'I' for Inactive)
REMARK    1  A    between atoms: C7_11  and  O3_3 
REMARK    2  A    between atoms: C3_7  and  C7_11 
ROOT
HETATM    1  O1  UNK     1      18.037   4.595  31.465  1.00  0.00    -0.311 OA
HETATM    2  O2  UNK     1      19.179   0.234  32.732  1.00  0.00    -0.274 OA
HETATM    3  O4  UNK     1      19.729  -1.883  33.396  1.00  0.00    -0.260 OA
HETATM    4  C1  UNK     1      18.597   2.478  32.015  1.00  0.00     0.041 A 
HETATM    5  C2  UNK     1      18.274   3.187  33.203  1.00  0.00    -0.014 A 
HETATM    6  C3  UNK     1      17.941   4.464  32.814  1.00  0.00     0.088 A 
HETATM    7  C4  UNK     1      18.435   3.387  30.978  1.00  0.00     0.089 A 
HETATM    8  C5  UNK     1      19.009   1.173  31.691  1.00  0.00     0.103 A 
HETATM    9  C6  UNK     1      19.246   0.808  30.356  1.00  0.00     0.005 A 
HETATM   10  C8  UNK     1      18.656   3.083  29.638  1.00  0.00     0.039 A 
HETATM   11  C9  UNK     1      19.065   1.774  29.351  1.00  0.00     0.017 A 
HETATM   12  C10 UNK     1      19.674  -0.572  30.072  1.00  0.00    -0.043 A 
HETATM   13  C11 UNK     1      18.290   2.667  34.584  1.00  0.00     0.052 C 
HETATM   14  C13 UNK     1      19.824  -1.434  31.088  1.00  0.00     0.090 A 
HETATM   15  C14 UNK     1      19.937  -1.000  28.657  1.00  0.00     0.049 C 
HETATM   16  C15 UNK     1      19.581  -1.069  32.492  1.00  0.00     0.288 A 
ENDROOT
BRANCH   6  17
HETATM   17  C7  UNK     1      17.520   5.664  33.551  1.00  0.00     0.171 C 
HETATM   18  C12 UNK     1      18.683   6.608  33.905  1.00  0.00     0.046 C 
BRANCH  17  19
HETATM   19  O3  UNK     1      16.563   6.424  32.789  1.00  0.00    -0.389 OA
HETATM   20  H14 UNK     1      17.036   7.173  32.390  1.00  0.00     0.210 HD
ENDBRANCH  17  19
ENDBRANCH   6  17
TORSDOF 2
ENDMDL
MODEL 4
REMARK VINA RESULT:      -8.0      7.276      9.165
REMARK  2 active torsions:
REMARK  status: ('A' for Active; 'I' for Inactive)
REMARK    1  A    between atoms: C7_11  and  O3_3 
REMARK    2  A    between atoms: C3_7  and  C7_11 
ROOT
HETATM    1  O1  UNK     1      16.614   8.951  34.642  1.00  0.00    -0.311 OA
HETATM    2  O2  UNK     1      18.003   6.172  31.138  1.00  0.00    -0.274 OA
HETATM    3  O4  UNK     1      18.637   4.814  29.412  1.00  0.00    -0.260 OA
HETATM    4  C1  UNK     1      17.343   7.613  32.975  1.00  0.00     0.041 A 
HETATM    5  C2  UNK     1      15.947   7.824  32.814  1.00  0.00    -0.014 A 
HETATM    6  C3  UNK     1      15.556   8.641  33.849  1.00  0.00     0.088 A 
HETATM    7  C4  UNK     1      17.702   8.327  34.112  1.00  0.00     0.089 A 
HETATM    8  C5  UNK     1      18.349   6.903  32.296  1.00  0.00     0.103 A 
HETATM    9  C6  UNK     1      19.675   6.921  32.759  1.00  0.00     0.005 A 
HETATM   10  C8  UNK     1      18.997   8.380  34.617  1.00  0.00     0.039 A 
HETATM   11  C9  UNK     1      19.975   7.661  33.915  1.00  0.00     0.017 A 
HETATM   12  C10 UNK     1      20.689   6.161  32.009  1.00  0.00    -0.043 A 
HETATM   13  C11 UNK     1      15.081   7.278  31.751  1.00  0.00     0.052 C 
HETATM   14  C13 UNK     1      20.321   5.479  30.916  1.00  0.00     0.090 A 
HETATM   15  C14 UNK     1      22.117   6.155  32.474  1.00  0.00     0.049 C 
HETATM   16  C15 UNK     1      18.938   5.449  30.416  1.00  0.00     0.288 A 
ENDROOT
BRANCH   6  17
HETATM   17  C7  UNK     1      14.262   9.217  34.243  1.00  0.00     0.171 C 
HETATM   18  C12 UNK     1      14.387  10.384  35.240  1.00  0.00     0.046 C 
BRANCH  17  19
HETATM   19  O3  UNK     1      13.547   9.705  33.093  1.00  0.00    -0.389 OA
HETATM   20  H14 UNK     1      12.776  10.200  33.418  1.00  0.00     0.210 HD
ENDBRANCH  17  19
ENDBRANCH   6  17
TORSDOF 2
ENDMDL
MODEL 5
REMARK VINA RESULT:      -8.0      3.350      4.704
REMARK  2 active torsions:
REMARK  status: ('A' for Active; 'I' for Inactive)
REMARK    1  A    between atoms: C7_11  and  O3_3 
REMARK    2  A    between atoms: C3_7  and  C7_11 
ROOT
HETATM    1  O1  UNK     1      18.443   0.359  32.781  1.00  0.00    -0.311 OA
HETATM    2  O2  UNK     1      18.136   4.887  33.938  1.00  0.00    -0.274 OA
HETATM    3  O4  UNK     1      17.979   7.084  34.548  1.00  0.00    -0.260 OA
HETATM    4  C1  UNK     1      18.304   2.558  33.278  1.00  0.00     0.041 A 
HETATM    5  C2  UNK     1      18.136   1.808  34.473  1.00  0.00    -0.014 A 
HETATM    6  C3  UNK     1      18.229   0.483  34.116  1.00  0.00     0.088 A 
HETATM    7  C4  UNK     1      18.489   1.621  32.270  1.00  0.00     0.089 A 
HETATM    8  C5  UNK     1      18.322   3.919  32.926  1.00  0.00     0.103 A 
HETATM    9  C6  UNK     1      18.522   4.311  31.593  1.00  0.00     0.005 A 
HETATM   10  C8  UNK     1      18.691   1.950  30.933  1.00  0.00     0.039 A 
HETATM   11  C9  UNK     1      18.702   3.315  30.617  1.00  0.00     0.017 A 
HETATM   12  C10 UNK     1      18.532   5.750  31.280  1.00  0.00    -0.043 A 
HETATM   13  C11 UNK     1      17.906   2.337  35.832  1.00  0.00     0.052 C 
HETATM   14  C13 UNK     1      18.351   6.637  32.268  1.00  0.00     0.090 A 
HETATM   15  C14 UNK     1      18.743   6.208  29.865  1.00  0.00     0.049 C 
HETATM   16  C15 UNK     1      18.141   6.245  33.669  1.00  0.00     0.288 A 
ENDROOT
BRANCH   6  17
HETATM   17  C7  UNK     1      18.144  -0.773  34.876  1.00  0.00     0.171 C 
HETATM   18  C12 UNK     1      16.702  -1.196  35.205  1.00  0.00     0.046 C 
BRANCH  17  19
HETATM   19  O3  UNK     1      18.757  -1.854  34.149  1.00  0.00    -0.389 OA
HETATM   20  H14 UNK     1      19.593  -1.521  33.780  1.00  0.00     0.210 HD
ENDBRANCH  17  19
ENDBRANCH   6  17
TORSDOF 2
ENDMDL
MODEL 6
REMARK VINA RESULT:      -8.0      1.470      6.323
REMARK  2 active torsions:
REMARK  status: ('A' for Active; 'I' for Inactive)
REMARK    1  A    between atoms: C7_11  and  O3_3 
REMARK    2  A    between atoms: C3_7  and  C7_11 
ROOT
HETATM    1  O1  UNK     1      18.278   1.953  31.916  1.00  0.00    -0.311 OA
HETATM    2  O2  UNK     1      19.708  -1.981  34.018  1.00  0.00    -0.274 OA
HETATM    3  O4  UNK     1      20.425  -3.915  35.003  1.00  0.00    -0.260 OA
HETATM    4  C1  UNK     1      18.941   0.076  32.983  1.00  0.00     0.041 A 
HETATM    5  C2  UNK     1      19.382   0.013  31.634  1.00  0.00    -0.014 A 
HETATM    6  C3  UNK     1      18.955   1.174  31.032  1.00  0.00     0.088 A 
HETATM    7  C4  UNK     1      18.270   1.286  33.103  1.00  0.00     0.089 A 
HETATM    8  C5  UNK     1      19.029  -0.746  34.121  1.00  0.00     0.103 A 
HETATM    9  C6  UNK     1      18.453  -0.349  35.338  1.00  0.00     0.005 A 
HETATM   10  C8  UNK     1      17.679   1.732  34.282  1.00  0.00     0.039 A 
HETATM   11  C9  UNK     1      17.786   0.887  35.396  1.00  0.00     0.017 A 
HETATM   12  C10 UNK     1      18.575  -1.248  36.498  1.00  0.00    -0.043 A 
HETATM   13  C11 UNK     1      20.145  -1.077  30.996  1.00  0.00     0.052 C 
HETATM   14  C13 UNK     1      19.227  -2.411  36.360  1.00  0.00     0.090 A 
HETATM   15  C14 UNK     1      17.972  -0.857  37.816  1.00  0.00     0.049 C 
HETATM   16  C15 UNK     1      19.836  -2.843  35.093  1.00  0.00     0.288 A 
ENDROOT
BRANCH   6  17
HETATM   17  C7  UNK     1      19.086   1.708  29.669  1.00  0.00     0.171 C 
HETATM   18  C12 UNK     1      17.943   1.284  28.729  1.00  0.00     0.046 C 
BRANCH  17  19
HETATM   19  O3  UNK     1      19.121   3.148  29.684  1.00  0.00    -0.389 OA
HETATM   20  H14 UNK     1      20.026   3.414  29.920  1.00  0.00     0.210 HD
ENDBRANCH  17  19
ENDBRANCH   6  17
TORSDOF 2
ENDMDL
MODEL 7
REMARK VINA RESULT:      -8.0      2.347      3.819
REMARK  2 active torsions:
REMARK  status: ('A' for Active; 'I' for Inactive)
REMARK    1  A    between atoms: C7_11  and  O3_3 
REMARK    2  A    between atoms: C3_7  and  C7_11 
ROOT
HETATM    1  O1  UNK     1      18.124   1.619  35.463  1.00  0.00    -0.311 OA
HETATM    2  O2  UNK     1      18.631   1.339  30.816  1.00  0.00    -0.274 OA
HETATM    3  O4  UNK     1      18.880   1.155  28.551  1.00  0.00    -0.260 OA
HETATM    4  C1  UNK     1      18.368   1.547  33.220  1.00  0.00     0.041 A 
HETATM    5  C2  UNK     1      18.334   0.217  33.717  1.00  0.00    -0.014 A 
HETATM    6  C3  UNK     1      18.185   0.317  35.081  1.00  0.00     0.088 A 
HETATM    7  C4  UNK     1      18.235   2.368  34.332  1.00  0.00     0.089 A 
HETATM    8  C5  UNK     1      18.496   2.158  31.959  1.00  0.00     0.103 A 
HETATM    9  C6  UNK     1      18.488   3.556  31.837  1.00  0.00     0.005 A 
HETATM   10  C8  UNK     1      18.221   3.758  34.272  1.00  0.00     0.039 A 
HETATM   11  C9  UNK     1      18.351   4.334  33.001  1.00  0.00     0.017 A 
HETATM   12  C10 UNK     1      18.624   4.144  30.494  1.00  0.00    -0.043 A 
HETATM   13  C11 UNK     1      18.439  -1.030  32.935  1.00  0.00     0.052 C 
HETATM   14  C13 UNK     1      18.751   3.333  29.434  1.00  0.00     0.090 A 
HETATM   15  C14 UNK     1      18.620   5.636  30.324  1.00  0.00     0.049 C 
HETATM   16  C15 UNK     1      18.761   1.866  29.543  1.00  0.00     0.288 A 
ENDROOT
BRANCH   6  17
HETATM   17  C7  UNK     1      18.083  -0.678  36.158  1.00  0.00     0.171 C 
HETATM   18  C12 UNK     1      17.700  -0.073  37.521  1.00  0.00     0.046 C 
BRANCH  17  19
HETATM   19  O3  UNK     1      17.100  -1.681  35.839  1.00  0.00    -0.389 OA
HETATM   20  H14 UNK     1      16.469  -1.716  36.577  1.00  0.00     0.210 HD
ENDBRANCH  17  19
ENDBRANCH   6  17
TORSDOF 2
ENDMDL
MODEL 8
REMARK VINA RESULT:      -7.8      7.896     10.303
REMARK  2 active torsions:
REMARK  status: ('A' for Active; 'I' for Inactive)
REMARK    1  A    between atoms: C7_11  and  O3_3 
REMARK    2  A    between atoms: C3_7  and  C7_11 
ROOT
HETATM    1  O1  UNK     1      19.611  -8.834  35.928  1.00  0.00    -0.311 OA
HETATM    2  O2  UNK     1      23.968  -8.087  37.473  1.00  0.00    -0.274 OA
HETATM    3  O4  UNK     1      26.082  -7.680  38.243  1.00  0.00    -0.260 OA
HETATM    4  C1  UNK     1      21.728  -8.531  36.651  1.00  0.00     0.041 A 
HETATM    5  C2  UNK     1      20.966  -7.378  36.978  1.00  0.00    -0.014 A 
HETATM    6  C3  UNK     1      19.691  -7.613  36.518  1.00  0.00     0.088 A 
HETATM    7  C4  UNK     1      20.850  -9.394  36.008  1.00  0.00     0.089 A 
HETATM    8  C5  UNK     1      23.060  -8.951  36.821  1.00  0.00     0.103 A 
HETATM    9  C6  UNK     1      23.480 -10.206  36.353  1.00  0.00     0.005 A 
HETATM   10  C8  UNK     1      21.209 -10.648  35.524  1.00  0.00     0.039 A 
HETATM   11  C9  UNK     1      22.544 -11.034  35.710  1.00  0.00     0.017 A 
HETATM   12  C10 UNK     1      24.885 -10.596  36.559  1.00  0.00    -0.043 A 
HETATM   13  C11 UNK     1      21.438  -6.164  37.671  1.00  0.00     0.052 C 
HETATM   14  C13 UNK     1      25.716  -9.749  37.181  1.00  0.00     0.090 A 
HETATM   15  C14 UNK     1      25.372 -11.931  36.072  1.00  0.00     0.049 C 
HETATM   16  C15 UNK     1      25.294  -8.430  37.678  1.00  0.00     0.288 A 
ENDROOT
BRANCH   6  17
HETATM   17  C7  UNK     1      18.450  -6.826  36.543  1.00  0.00     0.171 C 
HETATM   18  C12 UNK     1      17.421  -7.264  35.485  1.00  0.00     0.046 C 
BRANCH  17  19
HETATM   19  O3  UNK     1      17.811  -6.916  37.830  1.00  0.00    -0.389 OA
HETATM   20  H14 UNK     1      18.512  -6.920  38.504  1.00  0.00     0.210 HD
ENDBRANCH  17  19
ENDBRANCH   6  17
TORSDOF 2
ENDMDL
MODEL 9
REMARK VINA RESULT:      -7.8      1.960      2.276
REMARK  2 active torsions:
REMARK  status: ('A' for Active; 'I' for Inactive)
REMARK    1  A    between atoms: C7_11  and  O3_3 
REMARK    2  A    between atoms: C3_7  and  C7_11 
ROOT
HETATM    1  O1  UNK     1      18.505  -0.167  35.326  1.00  0.00    -0.311 OA
HETATM    2  O2  UNK     1      18.751   2.075  31.222  1.00  0.00    -0.274 OA
HETATM    3  O4  UNK     1      18.857   3.210  29.240  1.00  0.00    -0.260 OA
HETATM    4  C1  UNK     1      18.642   0.860  33.320  1.00  0.00     0.041 A 
HETATM    5  C2  UNK     1      18.228   1.811  34.291  1.00  0.00    -0.014 A 
HETATM    6  C3  UNK     1      18.161   1.137  35.488  1.00  0.00     0.088 A 
HETATM    7  C4  UNK     1      18.798  -0.336  34.007  1.00  0.00     0.089 A 
HETATM    8  C5  UNK     1      18.904   0.867  31.938  1.00  0.00     0.103 A 
HETATM    9  C6  UNK     1      19.312  -0.304  31.280  1.00  0.00     0.005 A 
HETATM   10  C8  UNK     1      19.199  -1.527  33.409  1.00  0.00     0.039 A 
HETATM   11  C9  UNK     1      19.451  -1.484  32.031  1.00  0.00     0.017 A 
HETATM   12  C10 UNK     1      19.574  -0.241  29.833  1.00  0.00    -0.043 A 
HETATM   13  C11 UNK     1      17.926   3.238  34.069  1.00  0.00     0.052 C 
HETATM   14  C13 UNK     1      19.417   0.924  29.189  1.00  0.00     0.090 A 
HETATM   15  C14 UNK     1      20.012  -1.473  29.095  1.00  0.00     0.049 C 
HETATM   16  C15 UNK     1      18.991   2.161  29.861  1.00  0.00     0.288 A 
ENDROOT
BRANCH   6  17
HETATM   17  C7  UNK     1      17.802   1.545  36.854  1.00  0.00     0.171 C 
HETATM   18  C12 UNK     1      17.572   0.360  37.810  1.00  0.00     0.046 C 
BRANCH  17  19
HETATM   19  O3  UNK     1      18.830   2.372  37.430  1.00  0.00    -0.389 OA
HETATM   20  H14 UNK     1      19.658   2.177  36.959  1.00  0.00     0.210 HD
ENDBRANCH  17  19
ENDBRANCH   6  17
TORSDOF 2
ENDMDL
MODEL 10
REMARK VINA RESULT:      -7.8      1.958      3.615
REMARK  2 active torsions:
REMARK  status: ('A' for Active; 'I' for Inactive)
REMARK    1  A    between atoms: C7_11  and  O3_3 
REMARK    2  A    between atoms: C3_7  and  C7_11 
ROOT
HETATM    1  O1  UNK     1      17.748   2.158  34.058  1.00  0.00    -0.311 OA
HETATM    2  O2  UNK     1      20.026  -1.755  32.861  1.00  0.00    -0.274 OA
HETATM    3  O4  UNK     1      21.136  -3.679  32.322  1.00  0.00    -0.260 OA
HETATM    4  C1  UNK     1      18.848   0.291  33.421  1.00  0.00     0.041 A 
HETATM    5  C2  UNK     1      18.593   0.216  34.816  1.00  0.00    -0.014 A 
HETATM    6  C3  UNK     1      17.925   1.371  35.151  1.00  0.00     0.088 A 
HETATM    7  C4  UNK     1      18.309   1.502  33.004  1.00  0.00     0.089 A 
HETATM    8  C5  UNK     1      19.472  -0.520  32.456  1.00  0.00     0.103 A 
HETATM    9  C6  UNK     1      19.543  -0.113  31.115  1.00  0.00     0.005 A 
HETATM   10  C8  UNK     1      18.350   1.958  31.690  1.00  0.00     0.039 A 
HETATM   11  C9  UNK     1      18.979   1.124  30.756  1.00  0.00     0.017 A 
HETATM   12  C10 UNK     1      20.206  -1.001  30.146  1.00  0.00    -0.043 A 
HETATM   13  C11 UNK     1      18.968  -0.878  35.733  1.00  0.00     0.052 C 
HETATM   14  C13 UNK     1      20.720  -2.165  30.570  1.00  0.00     0.090 A 
HETATM   15  C14 UNK     1      20.302  -0.599  28.703  1.00  0.00     0.049 C 
HETATM   16  C15 UNK     1      20.655  -2.608  31.970  1.00  0.00     0.288 A 
ENDROOT
BRANCH   6  17
HETATM   17  C7  UNK     1      17.388   1.894  36.416  1.00  0.00     0.171 C 
HETATM   18  C12 UNK     1      16.319   0.987  37.052  1.00  0.00     0.046 C 
BRANCH  17  19
HETATM   19  O3  UNK     1      18.438   2.069  37.385  1.00  0.00    -0.389 OA
HETATM   20  H14 UNK     1      19.075   2.702  37.013  1.00  0.00     0.210 HD
ENDBRANCH  17  19
ENDBRANCH   6  17
TORSDOF 2
ENDMDL
