MODEL 1
REMARK VINA RESULT:      -8.5      0.000      0.000
REMARK  3 active torsions:
REMARK  status: ('A' for Active; 'I' for Inactive)
REMARK    1  A    between atoms: C13_21  and  O4_4 
REMARK       I    between atoms: C5_13  and  N1_5 
REMARK    2  A    between atoms: C6_14  and  N2_6 
REMARK    3  A    between atoms: C5_13  and  C7_15 
ROOT
HETATM    1  O1  UNK     1      17.893  -2.939  36.811  1.00  0.00    -0.267 OA
HETATM    2  N1  UNK     1      19.445  -2.197  35.251  1.00  0.00    -0.345 N 
HETATM    3  N2  UNK     1      19.601  -1.164  32.630  1.00  0.00    -0.211 N 
HETATM    4  C1  UNK     1      20.704  -2.307  34.508  1.00  0.00     0.146 C 
HETATM    5  C2  UNK     1      18.681  -0.998  34.912  1.00  0.00     0.146 C 
HETATM    6  C3  UNK     1      20.434  -2.316  33.004  1.00  0.00     0.161 C 
HETATM    7  C4  UNK     1      18.371  -0.969  33.416  1.00  0.00     0.161 C 
HETATM    8  C5  UNK     1      18.960  -3.076  36.212  1.00  0.00     0.260 C 
ENDROOT
BRANCH   8   9
HETATM    9  C7  UNK     1      19.779  -4.262  36.534  1.00  0.00     0.108 A 
HETATM   10  C10 UNK     1      20.823  -4.234  37.584  1.00  0.00     0.304 A 
HETATM   11  O2  UNK     1      21.527  -5.416  37.795  1.00  0.00    -0.271 OA
HETATM   12  O3  UNK     1      21.059  -3.224  38.236  1.00  0.00    -0.259 OA
HETATM   13  C11 UNK     1      21.265  -6.581  37.051  1.00  0.00     0.123 A 
HETATM   14  C9  UNK     1      20.280  -6.586  36.068  1.00  0.00     0.002 A 
HETATM   15  C13 UNK     1      22.023  -7.716  37.334  1.00  0.00     0.102 A 
HETATM   16  C12 UNK     1      20.048  -7.762  35.350  1.00  0.00     0.014 A 
HETATM   17  C8  UNK     1      19.524  -5.367  35.824  1.00  0.00     0.037 A 
HETATM   18  C16 UNK     1      20.801  -8.907  35.623  1.00  0.00     0.004 A 
HETATM   19  C17 UNK     1      21.786  -8.884  36.614  1.00  0.00     0.040 A 
BRANCH  15  20
HETATM   20  O4  UNK     1      22.982  -7.698  38.297  1.00  0.00    -0.353 OA
HETATM   21  C19 UNK     1      22.599  -8.118  39.606  1.00  0.00     0.210 C 
ENDBRANCH  15  20
ENDBRANCH   8   9
BRANCH   3  22
HETATM   22  C6  UNK     1      19.604  -0.713  31.304  1.00  0.00     0.724 A 
HETATM   23  N3  UNK     1      18.998   0.479  31.030  1.00  0.00    -0.075 NA
HETATM   24  C14 UNK     1      19.020   0.884  29.743  1.00  0.00     0.138 A 
HETATM   25  C18 UNK     1      19.610   0.164  28.723  1.00  0.00     0.040 A 
HETATM   26  C15 UNK     1      20.196  -1.028  29.095  1.00  0.00     0.138 A 
HETATM   27  N4  UNK     1      20.213  -1.492  30.361  1.00  0.00    -0.075 NA
ENDBRANCH   3  22
TORSDOF 3
ENDMDL
MODEL 2
REMARK VINA RESULT:      -8.3      7.642     10.641
REMARK  3 active torsions:
REMARK  status: ('A' for Active; 'I' for Inactive)
REMARK    1  A    between atoms: C13_21  and  O4_4 
REMARK       I    between atoms: C5_13  and  N1_5 
REMARK    2  A    between atoms: C6_14  and  N2_6 
REMARK    3  A    between atoms: C5_13  and  C7_15 
ROOT
HETATM    1  O1  UNK     1      20.029   6.057  32.536  1.00  0.00    -0.267 OA
HETATM    2  N1  UNK     1      17.765   6.578  32.558  1.00  0.00    -0.345 N 
HETATM    3  N2  UNK     1      15.975   8.548  33.494  1.00  0.00    -0.211 N 
HETATM    4  C1  UNK     1      16.350   6.239  32.732  1.00  0.00     0.146 C 
HETATM    5  C2  UNK     1      17.980   7.973  32.178  1.00  0.00     0.146 C 
HETATM    6  C3  UNK     1      15.717   7.133  33.798  1.00  0.00     0.161 C 
HETATM    7  C4  UNK     1      17.377   8.910  33.225  1.00  0.00     0.161 C 
HETATM    8  C5  UNK     1      18.854   5.725  32.694  1.00  0.00     0.260 C 
ENDROOT
BRANCH   8   9
HETATM    9  C7  UNK     1      18.584   4.320  33.059  1.00  0.00     0.108 A 
HETATM   10  C10 UNK     1      18.258   3.293  32.043  1.00  0.00     0.304 A 
HETATM   11  O2  UNK     1      18.024   2.003  32.512  1.00  0.00    -0.271 OA
HETATM   12  O3  UNK     1      18.196   3.560  30.848  1.00  0.00    -0.259 OA
HETATM   13  C11 UNK     1      18.092   1.686  33.882  1.00  0.00     0.123 A 
HETATM   14  C9  UNK     1      18.399   2.666  34.820  1.00  0.00     0.002 A 
HETATM   15  C13 UNK     1      17.842   0.367  34.255  1.00  0.00     0.102 A 
HETATM   16  C12 UNK     1      18.457   2.314  36.171  1.00  0.00     0.014 A 
HETATM   17  C8  UNK     1      18.650   4.024  34.362  1.00  0.00     0.037 A 
HETATM   18  C16 UNK     1      18.207   0.994  36.559  1.00  0.00     0.004 A 
HETATM   19  C17 UNK     1      17.901   0.023  35.603  1.00  0.00     0.040 A 
BRANCH  15  20
HETATM   20  O4  UNK     1      17.542  -0.582  33.328  1.00  0.00    -0.353 OA
HETATM   21  C19 UNK     1      18.634  -1.309  32.766  1.00  0.00     0.210 C 
ENDBRANCH  15  20
ENDBRANCH   8   9
BRANCH   3  22
HETATM   22  C6  UNK     1      15.143   9.533  34.041  1.00  0.00     0.724 A 
HETATM   23  N3  UNK     1      15.342   9.891  35.343  1.00  0.00    -0.075 NA
HETATM   24  C14 UNK     1      14.524  10.843  35.838  1.00  0.00     0.138 A 
HETATM   25  C18 UNK     1      13.525  11.451  35.105  1.00  0.00     0.040 A 
HETATM   26  C15 UNK     1      13.398  11.025  33.799  1.00  0.00     0.138 A 
HETATM   27  N4  UNK     1      14.181  10.079  33.240  1.00  0.00    -0.075 NA
ENDBRANCH   3  22
TORSDOF 3
ENDMDL
MODEL 3
REMARK VINA RESULT:      -8.3      2.956      8.175
REMARK  3 active torsions:
REMARK  status: ('A' for Active; 'I' for Inactive)
REMARK    1  A    between atoms: C13_21  and  O4_4 
REMARK       I    between atoms: C5_13  and  N1_5 
REMARK    2  A    between atoms: C6_14  and  N2_6 
REMARK    3  A    between atoms: C5_13  and  C7_15 
ROOT
HETATM    1  O1  UNK     1      20.708  -2.576  37.437  1.00  0.00    -0.267 OA
HETATM    2  N1  UNK     1      19.915  -4.548  36.502  1.00  0.00    -0.345 N 
HETATM    3  N2  UNK     1      20.571  -7.282  36.260  1.00  0.00    -0.211 N 
HETATM    4  C1  UNK     1      19.335  -5.334  35.408  1.00  0.00     0.146 C 
HETATM    5  C2  UNK     1      20.149  -5.334  37.712  1.00  0.00     0.146 C 
HETATM    6  C3  UNK     1      20.249  -6.506  35.054  1.00  0.00     0.161 C 
HETATM    7  C4  UNK     1      21.072  -6.514  37.412  1.00  0.00     0.161 C 
HETATM    8  C5  UNK     1      20.221  -3.193  36.489  1.00  0.00     0.260 C 
ENDROOT
BRANCH   8   9
HETATM    9  C7  UNK     1      19.948  -2.438  35.250  1.00  0.00     0.108 A 
HETATM   10  C10 UNK     1      19.106  -1.220  35.241  1.00  0.00     0.304 A 
HETATM   11  O2  UNK     1      18.923  -0.597  34.009  1.00  0.00    -0.271 OA
HETATM   12  O3  UNK     1      18.594  -0.779  36.263  1.00  0.00    -0.259 OA
HETATM   13  C11 UNK     1      19.507  -1.096  32.829  1.00  0.00     0.123 A 
HETATM   14  C9  UNK     1      20.293  -2.243  32.859  1.00  0.00     0.002 A 
HETATM   15  C13 UNK     1      19.266  -0.403  31.644  1.00  0.00     0.102 A 
HETATM   16  C12 UNK     1      20.855  -2.708  31.667  1.00  0.00     0.014 A 
HETATM   17  C8  UNK     1      20.506  -2.917  34.131  1.00  0.00     0.037 A 
HETATM   18  C16 UNK     1      20.621  -2.023  30.471  1.00  0.00     0.004 A 
HETATM   19  C17 UNK     1      19.829  -0.873  30.460  1.00  0.00     0.040 A 
BRANCH  15  20
HETATM   20  O4  UNK     1      18.494   0.716  31.628  1.00  0.00    -0.353 OA
HETATM   21  C19 UNK     1      18.810   1.709  30.653  1.00  0.00     0.210 C 
ENDBRANCH  15  20
ENDBRANCH   8   9
BRANCH   3  22
HETATM   22  C6  UNK     1      20.992  -8.611  36.132  1.00  0.00     0.724 A 
HETATM   23  N3  UNK     1      20.847  -9.438  37.209  1.00  0.00    -0.075 NA
HETATM   24  C14 UNK     1      21.262 -10.712  37.052  1.00  0.00     0.138 A 
HETATM   25  C18 UNK     1      21.812 -11.199  35.883  1.00  0.00     0.040 A 
HETATM   26  C15 UNK     1      21.921 -10.292  34.850  1.00  0.00     0.138 A 
HETATM   27  N4  UNK     1      21.525  -9.005  34.938  1.00  0.00    -0.075 NA
ENDBRANCH   3  22
TORSDOF 3
ENDMDL
MODEL 4
REMARK VINA RESULT:      -8.1      7.151      9.964
REMARK  3 active torsions:
REMARK  status: ('A' for Active; 'I' for Inactive)
REMARK    1  A    between atoms: C13_21  and  O4_4 
REMARK       I    between atoms: C5_13  and  N1_5 
REMARK    2  A    between atoms: C6_14  and  N2_6 
REMARK    3  A    between atoms: C5_13  and  C7_15 
ROOT
HETATM    1  O1  UNK     1      27.604 -10.193  38.877  1.00  0.00    -0.267 OA
HETATM    2  N1  UNK     1      28.307  -8.952  37.044  1.00  0.00    -0.345 N 
HETATM    3  N2  UNK     1      30.126  -6.913  36.341  1.00  0.00    -0.211 N 
HETATM    4  C1  UNK     1      28.066  -8.157  35.836  1.00  0.00     0.146 C 
HETATM    5  C2  UNK     1      29.727  -9.133  37.339  1.00  0.00     0.146 C 
HETATM    6  C3  UNK     1      28.710  -6.779  35.970  1.00  0.00     0.161 C 
HETATM    7  C4  UNK     1      30.416  -7.778  37.497  1.00  0.00     0.161 C 
HETATM    8  C5  UNK     1      27.351  -9.532  37.870  1.00  0.00     0.260 C 
ENDROOT
BRANCH   8   9
HETATM    9  C7  UNK     1      25.930  -9.337  37.519  1.00  0.00     0.108 A 
HETATM   10  C10 UNK     1      25.178  -8.129  37.927  1.00  0.00     0.304 A 
HETATM   11  O2  UNK     1      23.844  -8.062  37.535  1.00  0.00    -0.271 OA
HETATM   12  O3  UNK     1      25.700  -7.230  38.577  1.00  0.00    -0.259 OA
HETATM   13  C11 UNK     1      23.236  -9.089  36.788  1.00  0.00     0.123 A 
HETATM   14  C9  UNK     1      23.960 -10.217  36.416  1.00  0.00     0.002 A 
HETATM   15  C13 UNK     1      21.895  -8.931  36.443  1.00  0.00     0.102 A 
HETATM   16  C12 UNK     1      23.322 -11.215  35.676  1.00  0.00     0.014 A 
HETATM   17  C8  UNK     1      25.357 -10.316  36.809  1.00  0.00     0.037 A 
HETATM   18  C16 UNK     1      21.977 -11.071  35.323  1.00  0.00     0.004 A 
HETATM   19  C17 UNK     1      21.265  -9.931  35.705  1.00  0.00     0.040 A 
BRANCH  15  20
HETATM   20  O4  UNK     1      21.198  -7.824  36.813  1.00  0.00    -0.353 OA
HETATM   21  C19 UNK     1      20.478  -7.137  35.791  1.00  0.00     0.210 C 
ENDBRANCH  15  20
ENDBRANCH   8   9
BRANCH   3  22
HETATM   22  C6  UNK     1      31.011  -5.859  36.080  1.00  0.00     0.724 A 
HETATM   23  N3  UNK     1      31.110  -4.861  37.006  1.00  0.00    -0.075 NA
HETATM   24  C14 UNK     1      31.972  -3.861  36.724  1.00  0.00     0.138 A 
HETATM   25  C18 UNK     1      32.733  -3.808  35.574  1.00  0.00     0.040 A 
HETATM   26  C15 UNK     1      32.565  -4.860  34.697  1.00  0.00     0.138 A 
HETATM   27  N4  UNK     1      31.723  -5.890  34.916  1.00  0.00    -0.075 NA
ENDBRANCH   3  22
TORSDOF 3
ENDMDL
MODEL 5
REMARK VINA RESULT:      -7.9      1.356      2.288
REMARK  3 active torsions:
REMARK  status: ('A' for Active; 'I' for Inactive)
REMARK    1  A    between atoms: C13_21  and  O4_4 
REMARK       I    between atoms: C5_13  and  N1_5 
REMARK    2  A    between atoms: C6_14  and  N2_6 
REMARK    3  A    between atoms: C5_13  and  C7_15 
ROOT
HETATM    1  O1  UNK     1      17.927  -2.563  37.254  1.00  0.00    -0.267 OA
HETATM    2  N1  UNK     1      19.517  -2.235  35.593  1.00  0.00    -0.345 N 
HETATM    3  N2  UNK     1      19.748  -1.388  32.911  1.00  0.00    -0.211 N 
HETATM    4  C1  UNK     1      20.688  -2.639  34.808  1.00  0.00     0.146 C 
HETATM    5  C2  UNK     1      18.997  -0.923  35.214  1.00  0.00     0.146 C 
HETATM    6  C3  UNK     1      20.346  -2.667  33.319  1.00  0.00     0.161 C 
HETATM    7  C4  UNK     1      18.625  -0.904  33.732  1.00  0.00     0.161 C 
HETATM    8  C5  UNK     1      18.912  -2.946  36.622  1.00  0.00     0.260 C 
ENDROOT
BRANCH   8   9
HETATM    9  C7  UNK     1      19.487  -4.258  36.981  1.00  0.00     0.108 A 
HETATM   10  C10 UNK     1      18.769  -5.527  36.724  1.00  0.00     0.304 A 
HETATM   11  O2  UNK     1      19.416  -6.699  37.108  1.00  0.00    -0.271 OA
HETATM   12  O3  UNK     1      17.662  -5.550  36.199  1.00  0.00    -0.259 OA
HETATM   13  C11 UNK     1      20.687  -6.683  37.711  1.00  0.00     0.123 A 
HETATM   14  C9  UNK     1      21.344  -5.479  37.946  1.00  0.00     0.002 A 
HETATM   15  C13 UNK     1      21.253  -7.908  38.061  1.00  0.00     0.102 A 
HETATM   16  C12 UNK     1      22.605  -5.504  38.547  1.00  0.00     0.014 A 
HETATM   17  C8  UNK     1      20.696  -4.237  37.554  1.00  0.00     0.037 A 
HETATM   18  C16 UNK     1      23.185  -6.725  38.904  1.00  0.00     0.004 A 
HETATM   19  C17 UNK     1      22.511  -7.924  38.661  1.00  0.00     0.040 A 
BRANCH  15  20
HETATM   20  O4  UNK     1      20.601  -9.077  37.827  1.00  0.00    -0.353 OA
HETATM   21  C19 UNK     1      21.350 -10.130  37.221  1.00  0.00     0.210 C 
ENDBRANCH  15  20
ENDBRANCH   8   9
BRANCH   3  22
HETATM   22  C6  UNK     1      19.775  -1.013  31.562  1.00  0.00     0.724 A 
HETATM   23  N3  UNK     1      20.368  -1.861  30.672  1.00  0.00    -0.075 NA
HETATM   24  C14 UNK     1      20.376  -1.470  29.380  1.00  0.00     0.138 A 
HETATM   25  C18 UNK     1      19.827  -0.284  28.936  1.00  0.00     0.040 A 
HETATM   26  C15 UNK     1      19.251   0.509  29.907  1.00  0.00     0.138 A 
HETATM   27  N4  UNK     1      19.207   0.179  31.214  1.00  0.00    -0.075 NA
ENDBRANCH   3  22
TORSDOF 3
ENDMDL
MODEL 6
REMARK VINA RESULT:      -7.9     27.733     29.477
REMARK  3 active torsions:
REMARK  status: ('A' for Active; 'I' for Inactive)
REMARK    1  A    between atoms: C13_21  and  O4_4 
REMARK       I    between atoms: C5_13  and  N1_5 
REMARK    2  A    between atoms: C6_14  and  N2_6 
REMARK    3  A    between atoms: C5_13  and  C7_15 
ROOT
HETATM    1  O1  UNK     1       9.374   5.655   6.843  1.00  0.00    -0.267 OA
HETATM    2  N1  UNK     1      10.824   6.903   8.160  1.00  0.00    -0.345 N 
HETATM    3  N2  UNK     1      13.553   7.085   8.855  1.00  0.00    -0.211 N 
HETATM    4  C1  UNK     1      11.206   7.572   9.407  1.00  0.00     0.146 C 
HETATM    5  C2  UNK     1      11.820   7.051   7.100  1.00  0.00     0.146 C 
HETATM    6  C3  UNK     1      12.538   7.025   9.917  1.00  0.00     0.161 C 
HETATM    7  C4  UNK     1      13.171   6.502   7.558  1.00  0.00     0.161 C 
HETATM    8  C5  UNK     1       9.651   6.201   7.911  1.00  0.00     0.260 C 
ENDROOT
BRANCH   8   9
HETATM    9  C7  UNK     1       8.667   6.097   9.007  1.00  0.00     0.108 A 
HETATM   10  C10 UNK     1       8.627   4.931   9.919  1.00  0.00     0.304 A 
HETATM   11  O2  UNK     1       7.653   4.949  10.913  1.00  0.00    -0.271 OA
HETATM   12  O3  UNK     1       9.410   3.995   9.808  1.00  0.00    -0.259 OA
HETATM   13  C11 UNK     1       6.749   6.019  11.049  1.00  0.00     0.123 A 
HETATM   14  C9  UNK     1       6.802   7.105  10.181  1.00  0.00     0.002 A 
HETATM   15  C13 UNK     1       5.809   5.947  12.075  1.00  0.00     0.102 A 
HETATM   16  C12 UNK     1       5.887   8.148  10.346  1.00  0.00     0.014 A 
HETATM   17  C8  UNK     1       7.810   7.117   9.132  1.00  0.00     0.037 A 
HETATM   18  C16 UNK     1       4.938   8.088  11.371  1.00  0.00     0.004 A 
HETATM   19  C17 UNK     1       4.900   6.991  12.234  1.00  0.00     0.040 A 
BRANCH  15  20
HETATM   20  O4  UNK     1       5.767   4.880  12.917  1.00  0.00    -0.353 OA
HETATM   21  C19 UNK     1       4.654   3.996  12.792  1.00  0.00     0.210 C 
ENDBRANCH  15  20
ENDBRANCH   8   9
BRANCH   3  22
HETATM   22  C6  UNK     1      14.911   7.075   9.197  1.00  0.00     0.724 A 
HETATM   23  N3  UNK     1      15.484   8.251   9.585  1.00  0.00    -0.075 NA
HETATM   24  C14 UNK     1      16.793   8.206   9.909  1.00  0.00     0.138 A 
HETATM   25  C18 UNK     1      17.554   7.055   9.864  1.00  0.00     0.040 A 
HETATM   26  C15 UNK     1      16.890   5.916   9.459  1.00  0.00     0.138 A 
HETATM   27  N4  UNK     1      15.584   5.889   9.122  1.00  0.00    -0.075 NA
ENDBRANCH   3  22
TORSDOF 3
ENDMDL
MODEL 7
REMARK VINA RESULT:      -7.9      7.373     10.385
REMARK  3 active torsions:
REMARK  status: ('A' for Active; 'I' for Inactive)
REMARK    1  A    between atoms: C13_21  and  O4_4 
REMARK       I    between atoms: C5_13  and  N1_5 
REMARK    2  A    between atoms: C6_14  and  N2_6 
REMARK    3  A    between atoms: C5_13  and  C7_15 
ROOT
HETATM    1  O1  UNK     1      27.939 -10.035  39.274  1.00  0.00    -0.267 OA
HETATM    2  N1  UNK     1      28.604  -8.818  37.412  1.00  0.00    -0.345 N 
HETATM    3  N2  UNK     1      30.447  -6.827  36.634  1.00  0.00    -0.211 N 
HETATM    4  C1  UNK     1      28.339  -8.021  36.209  1.00  0.00     0.146 C 
HETATM    5  C2  UNK     1      30.029  -9.032  37.656  1.00  0.00     0.146 C 
HETATM    6  C3  UNK     1      29.022  -6.659  36.314  1.00  0.00     0.161 C 
HETATM    7  C4  UNK     1      30.757  -7.694  37.783  1.00  0.00     0.161 C 
HETATM    8  C5  UNK     1      27.665  -9.371  38.274  1.00  0.00     0.260 C 
ENDROOT
BRANCH   8   9
HETATM    9  C7  UNK     1      26.238  -9.142  37.974  1.00  0.00     0.108 A 
HETATM   10  C10 UNK     1      25.527  -9.895  36.915  1.00  0.00     0.304 A 
HETATM   11  O2  UNK     1      24.182  -9.590  36.728  1.00  0.00    -0.271 OA
HETATM   12  O3  UNK     1      26.091 -10.746  36.236  1.00  0.00    -0.259 OA
HETATM   13  C11 UNK     1      23.526  -8.615  37.502  1.00  0.00     0.123 A 
HETATM   14  C9  UNK     1      24.212  -7.917  38.491  1.00  0.00     0.002 A 
HETATM   15  C13 UNK     1      22.178  -8.379  37.240  1.00  0.00     0.102 A 
HETATM   16  C12 UNK     1      23.527  -6.956  39.239  1.00  0.00     0.014 A 
HETATM   17  C8  UNK     1      25.619  -8.214  38.713  1.00  0.00     0.037 A 
HETATM   18  C16 UNK     1      22.175  -6.709  38.987  1.00  0.00     0.004 A 
HETATM   19  C17 UNK     1      21.502  -7.418  37.990  1.00  0.00     0.040 A 
BRANCH  15  20
HETATM   20  O4  UNK     1      21.519  -9.066  36.271  1.00  0.00    -0.353 OA
HETATM   21  C19 UNK     1      21.006  -8.313  35.172  1.00  0.00     0.210 C 
ENDBRANCH  15  20
ENDBRANCH   8   9
BRANCH   3  22
HETATM   22  C6  UNK     1      31.347  -5.796  36.337  1.00  0.00     0.724 A 
HETATM   23  N3  UNK     1      32.407  -6.082  35.527  1.00  0.00    -0.075 NA
HETATM   24  C14 UNK     1      33.254  -5.066  35.260  1.00  0.00     0.138 A 
HETATM   25  C18 UNK     1      33.098  -3.788  35.758  1.00  0.00     0.040 A 
HETATM   26  C15 UNK     1      31.998  -3.593  36.569  1.00  0.00     0.138 A 
HETATM   27  N4  UNK     1      31.112  -4.563  36.875  1.00  0.00    -0.075 NA
ENDBRANCH   3  22
TORSDOF 3
ENDMDL
MODEL 8
REMARK VINA RESULT:      -7.9      8.881     11.915
REMARK  3 active torsions:
REMARK  status: ('A' for Active; 'I' for Inactive)
REMARK    1  A    between atoms: C13_21  and  O4_4 
REMARK       I    between atoms: C5_13  and  N1_5 
REMARK    2  A    between atoms: C6_14  and  N2_6 
REMARK    3  A    between atoms: C5_13  and  C7_15 
ROOT
HETATM    1  O1  UNK     1      28.716  -6.034  39.805  1.00  0.00    -0.267 OA
HETATM    2  N1  UNK     1      27.758  -6.865  37.860  1.00  0.00    -0.345 N 
HETATM    3  N2  UNK     1      26.033  -8.910  36.962  1.00  0.00    -0.211 N 
HETATM    4  C1  UNK     1      27.809  -7.286  36.456  1.00  0.00     0.146 C 
HETATM    5  C2  UNK     1      26.424  -6.979  38.446  1.00  0.00     0.146 C 
HETATM    6  C3  UNK     1      27.343  -8.734  36.318  1.00  0.00     0.161 C 
HETATM    7  C4  UNK     1      25.918  -8.417  38.345  1.00  0.00     0.161 C 
HETATM    8  C5  UNK     1      28.809  -6.375  38.626  1.00  0.00     0.260 C 
ENDROOT
BRANCH   8   9
HETATM    9  C7  UNK     1      30.133  -6.261  37.983  1.00  0.00     0.108 A 
HETATM   10  C10 UNK     1      31.057  -7.413  37.875  1.00  0.00     0.304 A 
HETATM   11  O2  UNK     1      32.277  -7.179  37.247  1.00  0.00    -0.271 OA
HETATM   12  O3  UNK     1      30.766  -8.520  38.314  1.00  0.00    -0.259 OA
HETATM   13  C11 UNK     1      32.621  -5.912  36.739  1.00  0.00     0.123 A 
HETATM   14  C9  UNK     1      31.739  -4.841  36.853  1.00  0.00     0.002 A 
HETATM   15  C13 UNK     1      33.865  -5.775  36.127  1.00  0.00     0.102 A 
HETATM   16  C12 UNK     1      32.116  -3.599  36.337  1.00  0.00     0.014 A 
HETATM   17  C8  UNK     1      30.455  -5.054  37.502  1.00  0.00     0.037 A 
HETATM   18  C16 UNK     1      33.362  -3.447  35.721  1.00  0.00     0.004 A 
HETATM   19  C17 UNK     1      34.234  -4.533  35.616  1.00  0.00     0.040 A 
BRANCH  15  20
HETATM   20  O4  UNK     1      34.718  -6.829  36.023  1.00  0.00    -0.353 OA
HETATM   21  C19 UNK     1      35.903  -6.633  35.253  1.00  0.00     0.210 C 
ENDBRANCH  15  20
ENDBRANCH   8   9
BRANCH   3  22
HETATM   22  C6  UNK     1      25.218  -9.985  36.586  1.00  0.00     0.724 A 
HETATM   23  N3  UNK     1      23.889  -9.746  36.392  1.00  0.00    -0.075 NA
HETATM   24  C14 UNK     1      23.133 -10.803  36.029  1.00  0.00     0.138 A 
HETATM   25  C18 UNK     1      23.633 -12.077  35.852  1.00  0.00     0.040 A 
HETATM   26  C15 UNK     1      24.987 -12.224  36.071  1.00  0.00     0.138 A 
HETATM   27  N4  UNK     1      25.801 -11.211  36.434  1.00  0.00    -0.075 NA
ENDBRANCH   3  22
TORSDOF 3
ENDMDL
MODEL 9
REMARK VINA RESULT:      -7.8      3.405      8.234
REMARK  3 active torsions:
REMARK  status: ('A' for Active; 'I' for Inactive)
REMARK    1  A    between atoms: C13_21  and  O4_4 
REMARK       I    between atoms: C5_13  and  N1_5 
REMARK    2  A    between atoms: C6_14  and  N2_6 
REMARK    3  A    between atoms: C5_13  and  C7_15 
ROOT
HETATM    1  O1  UNK     1      21.297  -2.914  38.329  1.00  0.00    -0.267 OA
HETATM    2  N1  UNK     1      20.201  -4.764  37.452  1.00  0.00    -0.345 N 
HETATM    3  N2  UNK     1      20.701  -7.396  36.566  1.00  0.00    -0.211 N 
HETATM    4  C1  UNK     1      19.254  -5.408  36.535  1.00  0.00     0.146 C 
HETATM    5  C2  UNK     1      20.856  -5.707  38.356  1.00  0.00     0.146 C 
HETATM    6  C3  UNK     1      19.965  -6.468  35.696  1.00  0.00     0.161 C 
HETATM    7  C4  UNK     1      21.596  -6.783  37.562  1.00  0.00     0.161 C 
HETATM    8  C5  UNK     1      20.492  -3.408  37.539  1.00  0.00     0.260 C 
ENDROOT
BRANCH   8   9
HETATM    9  C7  UNK     1      19.789  -2.494  36.617  1.00  0.00     0.108 A 
HETATM   10  C10 UNK     1      20.371  -2.089  35.317  1.00  0.00     0.304 A 
HETATM   11  O2  UNK     1      19.612  -1.222  34.536  1.00  0.00    -0.271 OA
HETATM   12  O3  UNK     1      21.466  -2.495  34.943  1.00  0.00    -0.259 OA
HETATM   13  C11 UNK     1      18.354  -0.751  34.957  1.00  0.00     0.123 A 
HETATM   14  C9  UNK     1      17.826  -1.142  36.183  1.00  0.00     0.002 A 
HETATM   15  C13 UNK     1      17.669   0.114  34.106  1.00  0.00     0.102 A 
HETATM   16  C12 UNK     1      16.575  -0.653  36.566  1.00  0.00     0.014 A 
HETATM   17  C8  UNK     1      18.594  -2.049  37.022  1.00  0.00     0.037 A 
HETATM   18  C16 UNK     1      15.876   0.216  35.723  1.00  0.00     0.004 A 
HETATM   19  C17 UNK     1      16.422   0.598  34.495  1.00  0.00     0.040 A 
BRANCH  15  20
HETATM   20  O4  UNK     1      18.196   0.490  32.910  1.00  0.00    -0.353 OA
HETATM   21  C19 UNK     1      18.344   1.890  32.675  1.00  0.00     0.210 C 
ENDBRANCH  15  20
ENDBRANCH   8   9
BRANCH   3  22
HETATM   22  C6  UNK     1      21.036  -8.670  36.089  1.00  0.00     0.724 A 
HETATM   23  N3  UNK     1      21.420  -8.787  34.785  1.00  0.00    -0.075 NA
HETATM   24  C14 UNK     1      21.737 -10.027  34.359  1.00  0.00     0.138 A 
HETATM   25  C18 UNK     1      21.689 -11.149  35.162  1.00  0.00     0.040 A 
HETATM   26  C15 UNK     1      21.289 -10.934  36.465  1.00  0.00     0.138 A 
HETATM   27  N4  UNK     1      20.959  -9.722  36.957  1.00  0.00    -0.075 NA
ENDBRANCH   3  22
TORSDOF 3
ENDMDL
MODEL 10
REMARK VINA RESULT:      -7.7      9.415     12.780
REMARK  3 active torsions:
REMARK  status: ('A' for Active; 'I' for Inactive)
REMARK    1  A    between atoms: C13_21  and  O4_4 
REMARK       I    between atoms: C5_13  and  N1_5 
REMARK    2  A    between atoms: C6_14  and  N2_6 
REMARK    3  A    between atoms: C5_13  and  C7_15 
ROOT
HETATM    1  O1  UNK     1      30.827 -10.720  39.053  1.00  0.00    -0.267 OA
HETATM    2  N1  UNK     1      29.133  -9.299  38.341  1.00  0.00    -0.345 N 
HETATM    3  N2  UNK     1      26.417  -9.331  37.578  1.00  0.00    -0.211 N 
HETATM    4  C1  UNK     1      28.605  -8.209  37.514  1.00  0.00     0.146 C 
HETATM    5  C2  UNK     1      28.143  -9.855  39.260  1.00  0.00     0.146 C 
HETATM    6  C3  UNK     1      27.408  -8.694  36.698  1.00  0.00     0.161 C 
HETATM    7  C4  UNK     1      26.928 -10.370  38.488  1.00  0.00     0.161 C 
HETATM    8  C5  UNK     1      30.429  -9.800  38.337  1.00  0.00     0.260 C 
ENDROOT
BRANCH   8   9
HETATM    9  C7  UNK     1      31.399  -9.192  37.405  1.00  0.00     0.108 A 
HETATM   10  C10 UNK     1      31.486  -9.600  35.985  1.00  0.00     0.304 A 
HETATM   11  O2  UNK     1      32.441  -8.952  35.206  1.00  0.00    -0.271 OA
HETATM   12  O3  UNK     1      30.756 -10.464  35.513  1.00  0.00    -0.259 OA
HETATM   13  C11 UNK     1      33.285  -7.958  35.738  1.00  0.00     0.123 A 
HETATM   14  C9  UNK     1      33.188  -7.590  37.076  1.00  0.00     0.002 A 
HETATM   15  C13 UNK     1      34.210  -7.367  34.880  1.00  0.00     0.102 A 
HETATM   16  C12 UNK     1      34.042  -6.600  37.568  1.00  0.00     0.014 A 
HETATM   17  C8  UNK     1      32.198  -8.247  37.916  1.00  0.00     0.037 A 
HETATM   18  C16 UNK     1      34.976  -5.999  36.719  1.00  0.00     0.004 A 
HETATM   19  C17 UNK     1      35.059  -6.381  35.378  1.00  0.00     0.040 A 
BRANCH  15  20
HETATM   20  O4  UNK     1      34.295  -7.736  33.574  1.00  0.00    -0.353 OA
HETATM   21  C19 UNK     1      35.474  -7.355  32.866  1.00  0.00     0.210 C 
ENDBRANCH  15  20
ENDBRANCH   8   9
BRANCH   3  22
HETATM   22  C6  UNK     1      25.086  -9.435  37.155  1.00  0.00     0.724 A 
HETATM   23  N3  UNK     1      24.736 -10.513  36.395  1.00  0.00    -0.075 NA
HETATM   24  C14 UNK     1      23.446 -10.583  36.006  1.00  0.00     0.138 A 
HETATM   25  C18 UNK     1      22.495  -9.637  36.334  1.00  0.00     0.040 A 
HETATM   26  C15 UNK     1      22.941  -8.583  37.103  1.00  0.00     0.138 A 
HETATM   27  N4  UNK     1      24.214  -8.451  37.528  1.00  0.00    -0.075 NA
ENDBRANCH   3  22
TORSDOF 3
ENDMDL
