MODEL 1
REMARK VINA RESULT:      -8.3      0.000      0.000
REMARK  5 active torsions:
REMARK  status: ('A' for Active; 'I' for Inactive)
REMARK    1  A    between atoms: C15_21  and  N1_4 
REMARK    2  A    between atoms: C16_22  and  N1_4 
REMARK    3  A    between atoms: C7_13  and  N1_4 
REMARK    4  A    between atoms: C10_16  and  N2_5 
REMARK    5  A    between atoms: C1_7  and  C3_9 
ROOT
HETATM    1  O1  UNK     1      31.754  -5.023  35.972  1.00  0.00    -0.291 OA
HETATM    2  O2  UNK     1      32.637  -9.102  36.263  1.00  0.00    -0.274 OA
HETATM    3  O3  UNK     1      31.445  -9.226  38.203  1.00  0.00    -0.259 OA
HETATM    4  N3  UNK     1      29.435  -3.604  39.949  1.00  0.00    -0.191 NA
HETATM    5  C1  UNK     1      30.598  -6.474  38.163  1.00  0.00     0.108 C 
HETATM    6  C2  UNK     1      31.500  -7.108  37.121  1.00  0.00     0.066 A 
HETATM    7  C4  UNK     1      32.001  -6.377  36.114  1.00  0.00     0.104 A 
HETATM    8  C5  UNK     1      30.559  -4.953  38.043  1.00  0.00     0.086 C 
HETATM    9  C6  UNK     1      32.845  -6.982  35.089  1.00  0.00     0.033 A 
HETATM   10  C10 UNK     1      31.111  -4.315  36.985  1.00  0.00     0.159 C 
HETATM   11  C11 UNK     1      31.841  -8.548  37.260  1.00  0.00     0.298 A 
HETATM   12  C14 UNK     1      33.136  -8.340  35.191  1.00  0.00     0.092 A 
HETATM   13  C17 UNK     1      33.377  -6.273  34.003  1.00  0.00     0.017 A 
HETATM   14  C18 UNK     1      33.930  -9.001  34.255  1.00  0.00     0.038 A 
HETATM   15  C19 UNK     1      29.939  -4.208  39.096  1.00  0.00     0.100 C 
HETATM   16  C22 UNK     1      34.175  -6.922  33.056  1.00  0.00     0.001 A 
HETATM   17  C23 UNK     1      34.451  -8.284  33.181  1.00  0.00     0.003 A 
ENDROOT
BRANCH   5  18
HETATM   18  C3  UNK     1      29.208  -7.035  38.067  1.00  0.00    -0.044 A 
HETATM   19  C8  UNK     1      28.535  -6.997  36.852  1.00  0.00     0.010 A 
HETATM   20  C12 UNK     1      27.245  -7.519  36.761  1.00  0.00     0.030 A 
HETATM   21  C7  UNK     1      26.637  -8.075  37.888  1.00  0.00     0.030 A 
HETATM   22  C13 UNK     1      27.320  -8.109  39.103  1.00  0.00     0.030 A 
HETATM   23  C9  UNK     1      28.610  -7.587  39.194  1.00  0.00     0.010 A 
BRANCH  21  24
HETATM   24  N1  UNK     1      25.333  -8.603  37.797  1.00  0.00    -0.382 N 
BRANCH  24  25
HETATM   25  C15 UNK     1      24.293  -8.154  38.701  1.00  0.00     0.118 C 
HETATM   26  C20 UNK     1      22.937  -8.249  38.028  1.00  0.00     0.026 C 
ENDBRANCH  24  25
BRANCH  24  27
HETATM   27  C16 UNK     1      25.011  -9.594  36.789  1.00  0.00     0.118 C 
HETATM   28  C21 UNK     1      26.065 -10.684  36.772  1.00  0.00     0.026 C 
ENDBRANCH  24  27
ENDBRANCH  21  24
ENDBRANCH   5  18
BRANCH  10  29
HETATM   29  N2  UNK     1      31.107  -2.961  36.793  1.00  0.00    -0.379 N 
HETATM   30  H18 UNK     1      30.837  -2.598  35.888  1.00  0.00     0.158 HD
HETATM   31  H19 UNK     1      31.365  -2.328  37.539  1.00  0.00     0.158 HD
ENDBRANCH  10  29
TORSDOF 5
ENDMDL
MODEL 2
REMARK VINA RESULT:      -7.8      3.185      8.071
REMARK  5 active torsions:
REMARK  status: ('A' for Active; 'I' for Inactive)
REMARK    1  A    between atoms: C15_21  and  N1_4 
REMARK    2  A    between atoms: C16_22  and  N1_4 
REMARK    3  A    between atoms: C7_13  and  N1_4 
REMARK    4  A    between atoms: C10_16  and  N2_5 
REMARK    5  A    between atoms: C1_7  and  C3_9 
ROOT
HETATM    1  O1  UNK     1      25.574  -9.308  38.671  1.00  0.00    -0.291 OA
HETATM    2  O2  UNK     1      24.872  -5.190  38.902  1.00  0.00    -0.274 OA
HETATM    3  O3  UNK     1      27.116  -4.798  38.812  1.00  0.00    -0.259 OA
HETATM    4  N3  UNK     1      30.316 -10.132  38.868  1.00  0.00    -0.191 NA
HETATM    5  C1  UNK     1      27.852  -7.567  38.518  1.00  0.00     0.108 C 
HETATM    6  C2  UNK     1      26.426  -7.071  38.675  1.00  0.00     0.066 A 
HETATM    7  C4  UNK     1      25.403  -7.937  38.730  1.00  0.00     0.104 A 
HETATM    8  C5  UNK     1      27.954  -9.081  38.674  1.00  0.00     0.086 C 
HETATM    9  C6  UNK     1      24.025  -7.470  38.851  1.00  0.00     0.033 A 
HETATM   10  C10 UNK     1      26.851  -9.862  38.732  1.00  0.00     0.159 C 
HETATM   11  C11 UNK     1      26.194  -5.608  38.800  1.00  0.00     0.298 A 
HETATM   12  C14 UNK     1      23.797  -6.099  38.928  1.00  0.00     0.092 A 
HETATM   13  C17 UNK     1      22.917  -8.327  38.890  1.00  0.00     0.017 A 
HETATM   14  C18 UNK     1      22.514  -5.565  39.041  1.00  0.00     0.038 A 
HETATM   15  C19 UNK     1      29.259  -9.661  38.781  1.00  0.00     0.100 C 
HETATM   16  C22 UNK     1      21.623  -7.807  39.003  1.00  0.00     0.001 A 
HETATM   17  C23 UNK     1      21.422  -6.428  39.077  1.00  0.00     0.003 A 
ENDROOT
BRANCH   5  18
HETATM   18  C3  UNK     1      28.410  -7.146  37.189  1.00  0.00    -0.044 A 
HETATM   19  C8  UNK     1      27.784  -7.556  36.019  1.00  0.00     0.010 A 
HETATM   20  C12 UNK     1      28.301  -7.164  34.785  1.00  0.00     0.030 A 
HETATM   21  C7  UNK     1      29.444  -6.365  34.730  1.00  0.00     0.030 A 
HETATM   22  C13 UNK     1      30.066  -5.958  35.909  1.00  0.00     0.030 A 
HETATM   23  C9  UNK     1      29.549  -6.349  37.144  1.00  0.00     0.010 A 
BRANCH  21  24
HETATM   24  N1  UNK     1      29.968  -5.968  33.483  1.00  0.00    -0.382 N 
BRANCH  24  25
HETATM   25  C15 UNK     1      31.396  -6.013  33.238  1.00  0.00     0.118 C 
HETATM   26  C20 UNK     1      31.832  -7.436  32.947  1.00  0.00     0.026 C 
ENDBRANCH  24  25
BRANCH  24  27
HETATM   27  C16 UNK     1      29.084  -5.523  32.423  1.00  0.00     0.118 C 
HETATM   28  C21 UNK     1      29.807  -4.546  31.517  1.00  0.00     0.026 C 
ENDBRANCH  24  27
ENDBRANCH  21  24
ENDBRANCH   5  18
BRANCH  10  29
HETATM   29  N2  UNK     1      26.856 -11.223  38.856  1.00  0.00    -0.379 N 
HETATM   30  H18 UNK     1      25.970 -11.709  38.926  1.00  0.00     0.158 HD
HETATM   31  H19 UNK     1      27.724 -11.742  38.876  1.00  0.00     0.158 HD
ENDBRANCH  10  29
TORSDOF 5
ENDMDL
MODEL 3
REMARK VINA RESULT:      -7.5      4.148      6.249
REMARK  5 active torsions:
REMARK  status: ('A' for Active; 'I' for Inactive)
REMARK    1  A    between atoms: C15_21  and  N1_4 
REMARK    2  A    between atoms: C16_22  and  N1_4 
REMARK    3  A    between atoms: C7_13  and  N1_4 
REMARK    4  A    between atoms: C10_16  and  N2_5 
REMARK    5  A    between atoms: C1_7  and  C3_9 
ROOT
HETATM    1  O1  UNK     1      29.454  -7.665  30.426  1.00  0.00    -0.291 OA
HETATM    2  O2  UNK     1      32.807  -9.650  31.949  1.00  0.00    -0.274 OA
HETATM    3  O3  UNK     1      33.569  -7.693  32.833  1.00  0.00    -0.259 OA
HETATM    4  N3  UNK     1      29.912  -2.932  31.203  1.00  0.00    -0.191 NA
HETATM    5  C1  UNK     1      31.299  -6.129  32.000  1.00  0.00     0.108 C 
HETATM    6  C2  UNK     1      31.481  -7.605  31.699  1.00  0.00     0.066 A 
HETATM    7  C4  UNK     1      30.575  -8.269  30.965  1.00  0.00     0.104 A 
HETATM    8  C5  UNK     1      30.160  -5.513  31.193  1.00  0.00     0.086 C 
HETATM    9  C6  UNK     1      30.722  -9.696  30.695  1.00  0.00     0.033 A 
HETATM   10  C10 UNK     1      29.309  -6.280  30.473  1.00  0.00     0.159 C 
HETATM   11  C11 UNK     1      32.697  -8.289  32.210  1.00  0.00     0.298 A 
HETATM   12  C14 UNK     1      31.840 -10.352  31.204  1.00  0.00     0.092 A 
HETATM   13  C17 UNK     1      29.798 -10.445  29.955  1.00  0.00     0.017 A 
HETATM   14  C18 UNK     1      32.059 -11.714  30.998  1.00  0.00     0.038 A 
HETATM   15  C19 UNK     1      30.024  -4.087  31.198  1.00  0.00     0.100 C 
HETATM   16  C22 UNK     1      30.004 -11.812  29.740  1.00  0.00     0.001 A 
HETATM   17  C23 UNK     1      31.132 -12.445  30.262  1.00  0.00     0.003 A 
ENDROOT
BRANCH   5  18
HETATM   18  C3  UNK     1      31.067  -5.916  33.468  1.00  0.00    -0.044 A 
HETATM   19  C8  UNK     1      29.973  -6.511  34.084  1.00  0.00     0.010 A 
HETATM   20  C12 UNK     1      29.757  -6.315  35.447  1.00  0.00     0.030 A 
HETATM   21  C7  UNK     1      30.638  -5.523  36.185  1.00  0.00     0.030 A 
HETATM   22  C13 UNK     1      31.733  -4.929  35.560  1.00  0.00     0.030 A 
HETATM   23  C9  UNK     1      31.949  -5.125  34.196  1.00  0.00     0.010 A 
BRANCH  21  24
HETATM   24  N1  UNK     1      30.421  -5.325  37.564  1.00  0.00    -0.382 N 
BRANCH  24  25
HETATM   25  C15 UNK     1      30.164  -3.996  38.084  1.00  0.00     0.118 C 
HETATM   26  C20 UNK     1      29.439  -4.085  39.413  1.00  0.00     0.026 C 
ENDBRANCH  24  25
BRANCH  24  27
HETATM   27  C16 UNK     1      30.437  -6.449  38.480  1.00  0.00     0.118 C 
HETATM   28  C21 UNK     1      31.788  -7.137  38.436  1.00  0.00     0.026 C 
ENDBRANCH  24  27
ENDBRANCH  21  24
ENDBRANCH   5  18
BRANCH  10  29
HETATM   29  N2  UNK     1      28.257  -5.810  29.738  1.00  0.00    -0.379 N 
HETATM   30  H18 UNK     1      28.438  -5.141  29.000  1.00  0.00     0.158 HD
HETATM   31  H19 UNK     1      27.312  -6.123  29.921  1.00  0.00     0.158 HD
ENDBRANCH  10  29
TORSDOF 5
ENDMDL
MODEL 4
REMARK VINA RESULT:      -7.4      3.982      7.022
REMARK  5 active torsions:
REMARK  status: ('A' for Active; 'I' for Inactive)
REMARK    1  A    between atoms: C15_21  and  N1_4 
REMARK    2  A    between atoms: C16_22  and  N1_4 
REMARK    3  A    between atoms: C7_13  and  N1_4 
REMARK    4  A    between atoms: C10_16  and  N2_5 
REMARK    5  A    between atoms: C1_7  and  C3_9 
ROOT
HETATM    1  O1  UNK     1      31.218  -8.310  37.224  1.00  0.00    -0.291 OA
HETATM    2  O2  UNK     1      27.142  -7.749  36.468  1.00  0.00    -0.274 OA
HETATM    3  O3  UNK     1      27.651  -6.358  34.735  1.00  0.00    -0.259 OA
HETATM    4  N3  UNK     1      33.786  -5.404  34.367  1.00  0.00    -0.191 NA
HETATM    5  C1  UNK     1      30.503  -6.679  34.973  1.00  0.00     0.108 C 
HETATM    6  C2  UNK     1      29.486  -7.338  35.887  1.00  0.00     0.066 A 
HETATM    7  C4  UNK     1      29.886  -8.098  36.918  1.00  0.00     0.104 A 
HETATM    8  C5  UNK     1      31.925  -6.797  35.513  1.00  0.00     0.086 C 
HETATM    9  C6  UNK     1      28.918  -8.762  37.786  1.00  0.00     0.033 A 
HETATM   10  C10 UNK     1      32.214  -7.587  36.572  1.00  0.00     0.159 C 
HETATM   11  C11 UNK     1      28.042  -7.096  35.634  1.00  0.00     0.298 A 
HETATM   12  C14 UNK     1      27.563  -8.571  37.530  1.00  0.00     0.092 A 
HETATM   13  C17 UNK     1      29.277  -9.584  38.862  1.00  0.00     0.017 A 
HETATM   14  C18 UNK     1      26.570  -9.169  38.305  1.00  0.00     0.038 A 
HETATM   15  C19 UNK     1      32.953  -6.027  34.880  1.00  0.00     0.100 C 
HETATM   16  C22 UNK     1      28.293 -10.191  39.649  1.00  0.00     0.001 A 
HETATM   17  C23 UNK     1      26.942  -9.984  39.371  1.00  0.00     0.003 A 
ENDROOT
BRANCH   5  18
HETATM   18  C3  UNK     1      30.424  -7.265  33.592  1.00  0.00    -0.044 A 
HETATM   19  C8  UNK     1      30.264  -6.424  32.498  1.00  0.00     0.010 A 
HETATM   20  C12 UNK     1      30.192  -6.967  31.215  1.00  0.00     0.030 A 
HETATM   21  C7  UNK     1      30.281  -8.348  31.037  1.00  0.00     0.030 A 
HETATM   22  C13 UNK     1      30.442  -9.184  32.141  1.00  0.00     0.030 A 
HETATM   23  C9  UNK     1      30.514  -8.642  33.423  1.00  0.00     0.010 A 
BRANCH  21  24
HETATM   24  N1  UNK     1      30.208  -8.897  29.740  1.00  0.00    -0.382 N 
BRANCH  24  25
HETATM   25  C15 UNK     1      30.814  -8.211  28.616  1.00  0.00     0.118 C 
HETATM   26  C20 UNK     1      32.280  -8.580  28.506  1.00  0.00     0.026 C 
ENDBRANCH  24  25
BRANCH  24  27
HETATM   27  C16 UNK     1      29.539 -10.164  29.516  1.00  0.00     0.118 C 
HETATM   28  C21 UNK     1      28.437  -9.997  28.488  1.00  0.00     0.026 C 
ENDBRANCH  24  27
ENDBRANCH  21  24
ENDBRANCH   5  18
BRANCH  10  29
HETATM   29  N2  UNK     1      33.461  -7.760  37.108  1.00  0.00    -0.379 N 
HETATM   30  H18 UNK     1      34.216  -7.169  36.785  1.00  0.00     0.158 HD
HETATM   31  H19 UNK     1      33.631  -8.463  37.815  1.00  0.00     0.158 HD
ENDBRANCH  10  29
TORSDOF 5
ENDMDL
MODEL 5
REMARK VINA RESULT:      -7.4     34.925     36.550
REMARK  5 active torsions:
REMARK  status: ('A' for Active; 'I' for Inactive)
REMARK    1  A    between atoms: C15_21  and  N1_4 
REMARK    2  A    between atoms: C16_22  and  N1_4 
REMARK    3  A    between atoms: C7_13  and  N1_4 
REMARK    4  A    between atoms: C10_16  and  N2_5 
REMARK    5  A    between atoms: C1_7  and  C3_9 
ROOT
HETATM    1  O1  UNK     1      12.884   6.649   7.781  1.00  0.00    -0.291 OA
HETATM    2  O2  UNK     1      12.368   9.077  11.148  1.00  0.00    -0.274 OA
HETATM    3  O3  UNK     1      10.175   9.375  10.601  1.00  0.00    -0.259 OA
HETATM    4  N3  UNK     1       8.846   6.682   5.154  1.00  0.00    -0.191 NA
HETATM    5  C1  UNK     1      10.243   7.646   8.300  1.00  0.00     0.108 C 
HETATM    6  C2  UNK     1      11.442   7.953   9.177  1.00  0.00     0.066 A 
HETATM    7  C4  UNK     1      12.650   7.447   8.885  1.00  0.00     0.104 A 
HETATM    8  C5  UNK     1      10.641   6.942   7.006  1.00  0.00     0.086 C 
HETATM    9  C6  UNK     1      13.805   7.711   9.738  1.00  0.00     0.033 A 
HETATM   10  C10 UNK     1      11.898   6.481   6.811  1.00  0.00     0.159 C 
HETATM   11  C11 UNK     1      11.255   8.852  10.346  1.00  0.00     0.298 A 
HETATM   12  C14 UNK     1      13.627   8.520  10.857  1.00  0.00     0.092 A 
HETATM   13  C17 UNK     1      15.083   7.192   9.496  1.00  0.00     0.017 A 
HETATM   14  C18 UNK     1      14.673   8.822  11.729  1.00  0.00     0.038 A 
HETATM   15  C19 UNK     1       9.649   6.799   5.983  1.00  0.00     0.100 C 
HETATM   16  C22 UNK     1      16.143   7.484  10.360  1.00  0.00     0.001 A 
HETATM   17  C23 UNK     1      15.938   8.298  11.475  1.00  0.00     0.003 A 
ENDROOT
BRANCH   5  18
HETATM   18  C3  UNK     1       9.241   6.817   9.051  1.00  0.00    -0.044 A 
HETATM   19  C8  UNK     1       7.999   7.356   9.363  1.00  0.00     0.010 A 
HETATM   20  C12 UNK     1       7.068   6.586  10.060  1.00  0.00     0.030 A 
HETATM   21  C7  UNK     1       7.387   5.283  10.441  1.00  0.00     0.030 A 
HETATM   22  C13 UNK     1       8.636   4.749  10.125  1.00  0.00     0.030 A 
HETATM   23  C9  UNK     1       9.567   5.519   9.427  1.00  0.00     0.010 A 
BRANCH  21  24
HETATM   24  N1  UNK     1       6.446   4.504  11.146  1.00  0.00    -0.382 N 
BRANCH  24  25
HETATM   25  C15 UNK     1       6.091   4.838  12.511  1.00  0.00     0.118 C 
HETATM   26  C20 UNK     1       4.763   5.570  12.542  1.00  0.00     0.026 C 
ENDBRANCH  24  25
BRANCH  24  27
HETATM   27  C16 UNK     1       5.811   3.366  10.510  1.00  0.00     0.118 C 
HETATM   28  C21 UNK     1       5.660   2.230  11.503  1.00  0.00     0.026 C 
ENDBRANCH  24  27
ENDBRANCH  21  24
ENDBRANCH   5  18
BRANCH  10  29
HETATM   29  N2  UNK     1      12.332   5.828   5.691  1.00  0.00    -0.379 N 
HETATM   30  H18 UNK     1      13.152   5.239   5.758  1.00  0.00     0.158 HD
HETATM   31  H19 UNK     1      11.846   5.926   4.809  1.00  0.00     0.158 HD
ENDBRANCH  10  29
TORSDOF 5
ENDMDL
MODEL 6
REMARK VINA RESULT:      -7.4      4.038      7.092
REMARK  5 active torsions:
REMARK  status: ('A' for Active; 'I' for Inactive)
REMARK    1  A    between atoms: C15_21  and  N1_4 
REMARK    2  A    between atoms: C16_22  and  N1_4 
REMARK    3  A    between atoms: C7_13  and  N1_4 
REMARK    4  A    between atoms: C10_16  and  N2_5 
REMARK    5  A    between atoms: C1_7  and  C3_9 
ROOT
HETATM    1  O1  UNK     1      31.324  -8.360  37.031  1.00  0.00    -0.291 OA
HETATM    2  O2  UNK     1      27.279  -7.645  36.238  1.00  0.00    -0.274 OA
HETATM    3  O3  UNK     1      27.854  -6.316  34.478  1.00  0.00    -0.259 OA
HETATM    4  N3  UNK     1      34.026  -5.628  34.125  1.00  0.00    -0.191 NA
HETATM    5  C1  UNK     1      30.689  -6.751  34.739  1.00  0.00     0.108 C 
HETATM    6  C2  UNK     1      29.641  -7.346  35.662  1.00  0.00     0.066 A 
HETATM    7  C4  UNK     1      30.003  -8.099  36.712  1.00  0.00     0.104 A 
HETATM    8  C5  UNK     1      32.102  -6.916  35.291  1.00  0.00     0.086 C 
HETATM    9  C6  UNK     1      29.005  -8.702  37.589  1.00  0.00     0.033 A 
HETATM   10  C10 UNK     1      32.353  -7.693  36.369  1.00  0.00     0.159 C 
HETATM   11  C11 UNK     1      28.210  -7.049  35.395  1.00  0.00     0.298 A 
HETATM   12  C14 UNK     1      27.660  -8.460  37.321  1.00  0.00     0.092 A 
HETATM   13  C17 UNK     1      29.323  -9.514  38.685  1.00  0.00     0.017 A 
HETATM   14  C18 UNK     1      26.639  -8.998  38.103  1.00  0.00     0.038 A 
HETATM   15  C19 UNK     1      33.165  -6.204  34.646  1.00  0.00     0.100 C 
HETATM   16  C22 UNK     1      28.311 -10.062  39.479  1.00  0.00     0.001 A 
HETATM   17  C23 UNK     1      26.971  -9.805  39.189  1.00  0.00     0.003 A 
ENDROOT
BRANCH   5  18
HETATM   18  C3  UNK     1      30.593  -7.363  33.372  1.00  0.00    -0.044 A 
HETATM   19  C8  UNK     1      30.696  -8.741  33.228  1.00  0.00     0.010 A 
HETATM   20  C12 UNK     1      30.606  -9.311  31.958  1.00  0.00     0.030 A 
HETATM   21  C7  UNK     1      30.414  -8.497  30.841  1.00  0.00     0.030 A 
HETATM   22  C13 UNK     1      30.311  -7.115  30.994  1.00  0.00     0.030 A 
HETATM   23  C9  UNK     1      30.402  -6.545  32.264  1.00  0.00     0.010 A 
BRANCH  21  24
HETATM   24  N1  UNK     1      30.322  -9.073  29.557  1.00  0.00    -0.382 N 
BRANCH  24  25
HETATM   25  C15 UNK     1      29.534 -10.270  29.343  1.00  0.00     0.118 C 
HETATM   26  C20 UNK     1      28.326  -9.955  28.481  1.00  0.00     0.026 C 
ENDBRANCH  24  25
BRANCH  24  27
HETATM   27  C16 UNK     1      31.004  -8.467  28.430  1.00  0.00     0.118 C 
HETATM   28  C21 UNK     1      32.503  -8.645  28.570  1.00  0.00     0.026 C 
ENDBRANCH  24  27
ENDBRANCH  21  24
ENDBRANCH   5  18
BRANCH  10  29
HETATM   29  N2  UNK     1      33.588  -7.907  36.915  1.00  0.00    -0.379 N 
HETATM   30  H18 UNK     1      34.374  -8.062  36.297  1.00  0.00     0.158 HD
HETATM   31  H19 UNK     1      33.722  -7.908  37.918  1.00  0.00     0.158 HD
ENDBRANCH  10  29
TORSDOF 5
ENDMDL
MODEL 7
REMARK VINA RESULT:      -7.4      3.291      6.901
REMARK  5 active torsions:
REMARK  status: ('A' for Active; 'I' for Inactive)
REMARK    1  A    between atoms: C15_21  and  N1_4 
REMARK    2  A    between atoms: C16_22  and  N1_4 
REMARK    3  A    between atoms: C7_13  and  N1_4 
REMARK    4  A    between atoms: C10_16  and  N2_5 
REMARK    5  A    between atoms: C1_7  and  C3_9 
ROOT
HETATM    1  O1  UNK     1      30.999  -7.479  37.845  1.00  0.00    -0.291 OA
HETATM    2  O2  UNK     1      27.147  -7.977  36.290  1.00  0.00    -0.274 OA
HETATM    3  O3  UNK     1      27.578  -6.396  34.705  1.00  0.00    -0.259 OA
HETATM    4  N3  UNK     1      33.172  -3.823  35.583  1.00  0.00    -0.191 NA
HETATM    5  C1  UNK     1      30.309  -5.960  35.508  1.00  0.00     0.108 C 
HETATM    6  C2  UNK     1      29.356  -6.921  36.194  1.00  0.00     0.066 A 
HETATM    7  C4  UNK     1      29.743  -7.610  37.279  1.00  0.00     0.104 A 
HETATM    8  C5  UNK     1      31.579  -5.729  36.321  1.00  0.00     0.086 C 
HETATM    9  C6  UNK     1      28.846  -8.559  37.930  1.00  0.00     0.033 A 
HETATM   10  C10 UNK     1      31.865  -6.477  37.411  1.00  0.00     0.159 C 
HETATM   11  C11 UNK     1      27.977  -7.057  35.659  1.00  0.00     0.298 A 
HETATM   12  C14 UNK     1      27.566  -8.721  37.409  1.00  0.00     0.092 A 
HETATM   13  C17 UNK     1      29.204  -9.322  39.050  1.00  0.00     0.017 A 
HETATM   14  C18 UNK     1      26.644  -9.608  37.965  1.00  0.00     0.038 A 
HETATM   15  C19 UNK     1      32.459  -4.676  35.913  1.00  0.00     0.100 C 
HETATM   16  C22 UNK     1      28.292 -10.216  39.619  1.00  0.00     0.001 A 
HETATM   17  C23 UNK     1      27.014 -10.360  39.077  1.00  0.00     0.003 A 
ENDROOT
BRANCH   5  18
HETATM   18  C3  UNK     1      30.659  -6.459  34.135  1.00  0.00    -0.044 A 
HETATM   19  C8  UNK     1      30.372  -5.674  33.025  1.00  0.00     0.010 A 
HETATM   20  C12 UNK     1      30.697  -6.136  31.750  1.00  0.00     0.030 A 
HETATM   21  C7  UNK     1      31.307  -7.381  31.595  1.00  0.00     0.030 A 
HETATM   22  C13 UNK     1      31.591  -8.163  32.713  1.00  0.00     0.030 A 
HETATM   23  C9  UNK     1      31.266  -7.701  33.989  1.00  0.00     0.010 A 
BRANCH  21  24
HETATM   24  N1  UNK     1      31.636  -7.849  30.306  1.00  0.00    -0.382 N 
BRANCH  24  25
HETATM   25  C15 UNK     1      30.804  -7.513  29.167  1.00  0.00     0.118 C 
HETATM   26  C20 UNK     1      29.787  -8.610  28.921  1.00  0.00     0.026 C 
ENDBRANCH  24  25
BRANCH  24  27
HETATM   27  C16 UNK     1      32.819  -8.661  30.100  1.00  0.00     0.118 C 
HETATM   28  C21 UNK     1      33.897  -7.848  29.410  1.00  0.00     0.026 C 
ENDBRANCH  24  27
ENDBRANCH  21  24
ENDBRANCH   5  18
BRANCH  10  29
HETATM   29  N2  UNK     1      32.985  -6.345  38.184  1.00  0.00    -0.379 N 
HETATM   30  H18 UNK     1      33.871  -6.669  37.817  1.00  0.00     0.158 HD
HETATM   31  H19 UNK     1      32.937  -5.932  39.106  1.00  0.00     0.158 HD
ENDBRANCH  10  29
TORSDOF 5
ENDMDL
MODEL 8
REMARK VINA RESULT:      -7.4      2.885      4.138
REMARK  5 active torsions:
REMARK  status: ('A' for Active; 'I' for Inactive)
REMARK    1  A    between atoms: C15_21  and  N1_4 
REMARK    2  A    between atoms: C16_22  and  N1_4 
REMARK    3  A    between atoms: C7_13  and  N1_4 
REMARK    4  A    between atoms: C10_16  and  N2_5 
REMARK    5  A    between atoms: C1_7  and  C3_9 
ROOT
HETATM    1  O1  UNK     1      32.654  -7.305  32.278  1.00  0.00    -0.291 OA
HETATM    2  O2  UNK     1      34.379  -5.995  35.857  1.00  0.00    -0.274 OA
HETATM    3  O3  UNK     1      32.371  -5.143  36.518  1.00  0.00    -0.259 OA
HETATM    4  N3  UNK     1      28.115  -5.712  32.016  1.00  0.00    -0.191 NA
HETATM    5  C1  UNK     1      30.926  -6.051  34.197  1.00  0.00     0.108 C 
HETATM    6  C2  UNK     1      32.413  -6.258  34.418  1.00  0.00     0.066 A 
HETATM    7  C4  UNK     1      33.165  -6.862  33.484  1.00  0.00     0.104 A 
HETATM    8  C5  UNK     1      30.505  -6.377  32.768  1.00  0.00     0.086 C 
HETATM    9  C6  UNK     1      34.591  -7.094  33.697  1.00  0.00     0.033 A 
HETATM   10  C10 UNK     1      31.353  -6.978  31.901  1.00  0.00     0.159 C 
HETATM   11  C11 UNK     1      33.023  -5.750  35.674  1.00  0.00     0.298 A 
HETATM   12  C14 UNK     1      35.159  -6.656  34.889  1.00  0.00     0.092 A 
HETATM   13  C17 UNK     1      35.419  -7.738  32.768  1.00  0.00     0.017 A 
HETATM   14  C18 UNK     1      36.511  -6.839  35.178  1.00  0.00     0.038 A 
HETATM   15  C19 UNK     1      29.185  -6.009  32.353  1.00  0.00     0.100 C 
HETATM   16  C22 UNK     1      36.776  -7.930  33.043  1.00  0.00     0.001 A 
HETATM   17  C23 UNK     1      37.322  -7.482  34.246  1.00  0.00     0.003 A 
ENDROOT
BRANCH   5  18
HETATM   18  C3  UNK     1      30.132  -6.874  35.171  1.00  0.00    -0.044 A 
HETATM   19  C8  UNK     1      30.344  -8.245  35.245  1.00  0.00     0.010 A 
HETATM   20  C12 UNK     1      29.607  -9.009  36.149  1.00  0.00     0.030 A 
HETATM   21  C7  UNK     1      28.663  -8.396  36.973  1.00  0.00     0.030 A 
HETATM   22  C13 UNK     1      28.456  -7.020  36.892  1.00  0.00     0.030 A 
HETATM   23  C9  UNK     1      29.193  -6.255  35.987  1.00  0.00     0.010 A 
BRANCH  21  24
HETATM   24  N1  UNK     1      27.917  -9.168  37.888  1.00  0.00    -0.382 N 
BRANCH  24  25
HETATM   25  C15 UNK     1      28.570  -9.804  39.015  1.00  0.00     0.118 C 
HETATM   26  C20 UNK     1      27.585  -9.987  40.154  1.00  0.00     0.026 C 
ENDBRANCH  24  25
BRANCH  24  27
HETATM   27  C16 UNK     1      26.486  -9.326  37.721  1.00  0.00     0.118 C 
HETATM   28  C21 UNK     1      26.196 -10.377  36.667  1.00  0.00     0.026 C 
ENDBRANCH  24  27
ENDBRANCH  21  24
ENDBRANCH   5  18
BRANCH  10  29
HETATM   29  N2  UNK     1      31.051  -7.318  30.612  1.00  0.00    -0.379 N 
HETATM   30  H18 UNK     1      30.321  -6.806  30.132  1.00  0.00     0.158 HD
HETATM   31  H19 UNK     1      31.544  -8.064  30.140  1.00  0.00     0.158 HD
ENDBRANCH  10  29
TORSDOF 5
ENDMDL
MODEL 9
REMARK VINA RESULT:      -7.2     35.223     37.054
REMARK  5 active torsions:
REMARK  status: ('A' for Active; 'I' for Inactive)
REMARK    1  A    between atoms: C15_21  and  N1_4 
REMARK    2  A    between atoms: C16_22  and  N1_4 
REMARK    3  A    between atoms: C7_13  and  N1_4 
REMARK    4  A    between atoms: C10_16  and  N2_5 
REMARK    5  A    between atoms: C1_7  and  C3_9 
ROOT
HETATM    1  O1  UNK     1      13.327   6.949   8.981  1.00  0.00    -0.291 OA
HETATM    2  O2  UNK     1      11.019  10.055  10.571  1.00  0.00    -0.274 OA
HETATM    3  O3  UNK     1      12.905  11.049  11.377  1.00  0.00    -0.259 OA
HETATM    4  N3  UNK     1      17.908   7.494  10.367  1.00  0.00    -0.191 NA
HETATM    5  C1  UNK     1      14.718   9.102  10.274  1.00  0.00     0.108 C 
HETATM    6  C2  UNK     1      13.207   9.039  10.142  1.00  0.00     0.066 A 
HETATM    7  C4  UNK     1      12.618   8.009   9.516  1.00  0.00     0.104 A 
HETATM    8  C5  UNK     1      15.387   7.799   9.847  1.00  0.00     0.086 C 
HETATM    9  C6  UNK     1      11.168   7.952   9.356  1.00  0.00     0.033 A 
HETATM   10  C10 UNK     1      14.691   6.816   9.231  1.00  0.00     0.159 C 
HETATM   11  C11 UNK     1      12.396  10.127  10.748  1.00  0.00     0.298 A 
HETATM   12  C14 UNK     1      10.405   8.988   9.887  1.00  0.00     0.092 A 
HETATM   13  C17 UNK     1      10.501   6.914   8.692  1.00  0.00     0.017 A 
HETATM   14  C18 UNK     1       9.015   9.018   9.778  1.00  0.00     0.038 A 
HETATM   15  C19 UNK     1      16.780   7.631  10.135  1.00  0.00     0.100 C 
HETATM   16  C22 UNK     1       9.108   6.930   8.574  1.00  0.00     0.001 A 
HETATM   17  C23 UNK     1       8.366   7.980   9.115  1.00  0.00     0.003 A 
ENDROOT
BRANCH   5  18
HETATM   18  C3  UNK     1      15.267  10.251   9.479  1.00  0.00    -0.044 A 
HETATM   19  C8  UNK     1      15.981  11.253  10.123  1.00  0.00     0.010 A 
HETATM   20  C12 UNK     1      16.493  12.321   9.385  1.00  0.00     0.030 A 
HETATM   21  C7  UNK     1      16.286  12.377   8.006  1.00  0.00     0.030 A 
HETATM   22  C13 UNK     1      15.568  11.366   7.367  1.00  0.00     0.030 A 
HETATM   23  C9  UNK     1      15.057  10.299   8.105  1.00  0.00     0.010 A 
BRANCH  21  24
HETATM   24  N1  UNK     1      16.803  13.455   7.259  1.00  0.00    -0.382 N 
BRANCH  24  25
HETATM   25  C15 UNK     1      18.225  13.550   6.995  1.00  0.00     0.118 C 
HETATM   26  C20 UNK     1      18.713  12.294   6.299  1.00  0.00     0.026 C 
ENDBRANCH  24  25
BRANCH  24  27
HETATM   27  C16 UNK     1      15.918  14.476   6.734  1.00  0.00     0.118 C 
HETATM   28  C21 UNK     1      16.528  15.111   5.500  1.00  0.00     0.026 C 
ENDBRANCH  24  27
ENDBRANCH  21  24
ENDBRANCH   5  18
BRANCH  10  29
HETATM   29  N2  UNK     1      15.217   5.629   8.804  1.00  0.00    -0.379 N 
HETATM   30  H18 UNK     1      14.598   4.942   8.393  1.00  0.00     0.158 HD
HETATM   31  H19 UNK     1      16.206   5.434   8.892  1.00  0.00     0.158 HD
ENDBRANCH  10  29
TORSDOF 5
ENDMDL
MODEL 10
REMARK VINA RESULT:      -7.2     33.481     34.872
REMARK  5 active torsions:
REMARK  status: ('A' for Active; 'I' for Inactive)
REMARK    1  A    between atoms: C15_21  and  N1_4 
REMARK    2  A    between atoms: C16_22  and  N1_4 
REMARK    3  A    between atoms: C7_13  and  N1_4 
REMARK    4  A    between atoms: C10_16  and  N2_5 
REMARK    5  A    between atoms: C1_7  and  C3_9 
ROOT
HETATM    1  O1  UNK     1      20.899  12.035   9.962  1.00  0.00    -0.291 OA
HETATM    2  O2  UNK     1      18.182  13.397  12.837  1.00  0.00    -0.274 OA
HETATM    3  O3  UNK     1      16.532  13.437  11.264  1.00  0.00    -0.259 OA
HETATM    4  N3  UNK     1      18.778  12.030   5.637  1.00  0.00    -0.191 NA
HETATM    5  C1  UNK     1      18.171  12.389   9.141  1.00  0.00     0.108 C 
HETATM    6  C2  UNK     1      18.666  12.668  10.548  1.00  0.00     0.066 A 
HETATM    7  C4  UNK     1      19.953  12.473  10.872  1.00  0.00     0.104 A 
HETATM    8  C5  UNK     1      19.318  12.119   8.171  1.00  0.00     0.086 C 
HETATM    9  C6  UNK     1      20.435  12.708  12.229  1.00  0.00     0.033 A 
HETATM   10  C10 UNK     1      20.587  11.950   8.607  1.00  0.00     0.159 C 
HETATM   11  C11 UNK     1      17.701  13.193  11.549  1.00  0.00     0.298 A 
HETATM   12  C14 UNK     1      19.526  13.162  13.182  1.00  0.00     0.092 A 
HETATM   13  C17 UNK     1      21.761  12.499  12.629  1.00  0.00     0.017 A 
HETATM   14  C18 UNK     1      19.897  13.410  14.503  1.00  0.00     0.038 A 
HETATM   15  C19 UNK     1      19.019  12.070   6.771  1.00  0.00     0.100 C 
HETATM   16  C22 UNK     1      22.149  12.743  13.951  1.00  0.00     0.001 A 
HETATM   17  C23 UNK     1      21.219  13.196  14.886  1.00  0.00     0.003 A 
ENDROOT
BRANCH   5  18
HETATM   18  C3  UNK     1      17.212  11.235   9.141  1.00  0.00    -0.044 A 
HETATM   19  C8  UNK     1      15.976  11.368   8.519  1.00  0.00     0.010 A 
HETATM   20  C12 UNK     1      15.084  10.296   8.517  1.00  0.00     0.030 A 
HETATM   21  C7  UNK     1      15.435   9.097   9.139  1.00  0.00     0.030 A 
HETATM   22  C13 UNK     1      16.677   8.971   9.761  1.00  0.00     0.030 A 
HETATM   23  C9  UNK     1      17.569  10.044   9.762  1.00  0.00     0.010 A 
BRANCH  21  24
HETATM   24  N1  UNK     1      14.534   8.012   9.138  1.00  0.00    -0.382 N 
BRANCH  24  25
HETATM   25  C15 UNK     1      13.426   7.978   8.204  1.00  0.00     0.118 C 
HETATM   26  C20 UNK     1      12.109   8.066   8.952  1.00  0.00     0.026 C 
ENDBRANCH  24  25
BRANCH  24  27
HETATM   27  C16 UNK     1      14.712   6.909  10.062  1.00  0.00     0.118 C 
HETATM   28  C21 UNK     1      15.050   5.641   9.303  1.00  0.00     0.026 C 
ENDBRANCH  24  27
ENDBRANCH  21  24
ENDBRANCH   5  18
BRANCH  10  29
HETATM   29  N2  UNK     1      21.666  11.690   7.808  1.00  0.00    -0.379 N 
HETATM   30  H18 UNK     1      21.506  11.430   6.843  1.00  0.00     0.158 HD
HETATM   31  H19 UNK     1      22.609  11.755   8.168  1.00  0.00     0.158 HD
ENDBRANCH  10  29
TORSDOF 5
ENDMDL
