MODEL 1
REMARK VINA RESULT:      -9.8      0.000      0.000
REMARK  4 active torsions:
REMARK  status: ('A' for Active; 'I' for Inactive)
REMARK    1  A    between atoms: C5_10  and  N1_3 
REMARK    2  A    between atoms: C6_11  and  N2_4 
REMARK    3  A    between atoms: C5_10  and  C7_12 
REMARK    4  A    between atoms: C6_11  and  C8_13 
ROOT
HETATM    1  N3  UNK     1      19.819  -2.052  33.653  1.00  0.00    -0.191 NA
HETATM    2  C8  UNK     1      19.236   0.846  29.827  1.00  0.00    -0.029 A 
HETATM    3  C12 UNK     1      19.197   0.247  31.086  1.00  0.00     0.031 A 
HETATM    4  C13 UNK     1      19.971   0.256  28.797  1.00  0.00     0.009 A 
HETATM    5  C19 UNK     1      19.891  -0.940  31.316  1.00  0.00     0.045 A 
HETATM    6  C20 UNK     1      20.665  -0.931  29.026  1.00  0.00     0.002 A 
HETATM    7  C21 UNK     1      20.626  -1.530  30.286  1.00  0.00     0.022 A 
HETATM    8  C23 UNK     1      19.851  -1.554  32.606  1.00  0.00     0.099 C 
ENDROOT
BRANCH   2   9
HETATM    9  C6  UNK     1      18.491   2.122  29.579  1.00  0.00     0.311 C 
BRANCH   9  10
HETATM   10  N2  UNK     1      18.839   3.099  30.609  1.00  0.00     0.096 N 
HETATM   11  C3  UNK     1      19.028   4.430  30.023  1.00  0.00     0.303 C 
HETATM   12  C1  UNK     1      19.388   5.457  31.102  1.00  0.00     0.303 C 
HETATM   13  N1  UNK     1      18.360   5.499  32.148  1.00  0.00     0.096 N 
HETATM   14  C2  UNK     1      18.173   4.167  32.735  1.00  0.00     0.303 C 
HETATM   15  C4  UNK     1      17.811   3.141  31.657  1.00  0.00     0.303 C 
BRANCH  13  16
HETATM   16  C5  UNK     1      18.706   6.477  33.177  1.00  0.00     0.312 C 
BRANCH  16  17
HETATM   17  C7  UNK     1      17.527   7.372  33.316  1.00  0.00    -0.011 A 
HETATM   18  C10 UNK     1      16.282   6.912  33.136  1.00  0.00     0.092 A 
HETATM   19  C15 UNK     1      15.085   7.760  33.263  1.00  0.00     0.288 A 
HETATM   20  O1  UNK     1      15.297   9.092  33.584  1.00  0.00    -0.275 OA
HETATM   21  O2  UNK     1      13.961   7.302  33.092  1.00  0.00    -0.260 OA
HETATM   22  C11 UNK     1      16.595   9.606  33.778  1.00  0.00     0.090 A 
HETATM   23  C9  UNK     1      17.720   8.789  33.655  1.00  0.00     0.006 A 
HETATM   24  C16 UNK     1      16.688  10.961  34.098  1.00  0.00     0.045 A 
HETATM   25  C14 UNK     1      18.975   9.377  33.863  1.00  0.00     0.015 A 
HETATM   26  C18 UNK     1      19.085  10.735  34.184  1.00  0.00     0.007 A 
HETATM   27  C17 UNK     1      17.943  11.526  34.300  1.00  0.00    -0.059 A 
HETATM   28  C22 UNK     1      18.067  12.972  34.642  1.00  0.00     0.048 C 
ENDBRANCH  16  17
ENDBRANCH  13  16
ENDBRANCH   9  10
ENDBRANCH   2   9
TORSDOF 4
ENDMDL
MODEL 2
REMARK VINA RESULT:      -9.5     15.957     17.573
REMARK  4 active torsions:
REMARK  status: ('A' for Active; 'I' for Inactive)
REMARK    1  A    between atoms: C5_10  and  N1_3 
REMARK    2  A    between atoms: C6_11  and  N2_4 
REMARK    3  A    between atoms: C5_10  and  C7_12 
REMARK    4  A    between atoms: C6_11  and  C8_13 
ROOT
HETATM    1  N3  UNK     1      31.296  -9.556  27.476  1.00  0.00    -0.191 NA
HETATM    2  C8  UNK     1      28.646  -6.988  30.601  1.00  0.00    -0.029 A 
HETATM    3  C12 UNK     1      29.659  -7.496  29.787  1.00  0.00     0.031 A 
HETATM    4  C13 UNK     1      27.392  -7.598  30.616  1.00  0.00     0.009 A 
HETATM    5  C19 UNK     1      29.417  -8.613  28.988  1.00  0.00     0.045 A 
HETATM    6  C20 UNK     1      27.149  -8.715  29.817  1.00  0.00     0.002 A 
HETATM    7  C21 UNK     1      28.162  -9.223  29.003  1.00  0.00     0.022 A 
HETATM    8  C23 UNK     1      30.454  -9.133  28.154  1.00  0.00     0.099 C 
ENDROOT
BRANCH   2   9
HETATM    9  C6  UNK     1      28.905  -5.788  31.460  1.00  0.00     0.311 C 
BRANCH   9  10
HETATM   10  N2  UNK     1      29.622  -6.195  32.667  1.00  0.00     0.096 N 
HETATM   11  C3  UNK     1      30.735  -5.280  32.946  1.00  0.00     0.303 C 
HETATM   12  C1  UNK     1      31.486  -5.703  34.214  1.00  0.00     0.303 C 
HETATM   13  N1  UNK     1      30.575  -5.770  35.363  1.00  0.00     0.096 N 
HETATM   14  C2  UNK     1      29.464  -6.687  35.083  1.00  0.00     0.303 C 
HETATM   15  C4  UNK     1      28.712  -6.264  33.817  1.00  0.00     0.303 C 
BRANCH  13  16
HETATM   16  C5  UNK     1      31.292  -6.176  36.570  1.00  0.00     0.312 C 
BRANCH  16  17
HETATM   17  C7  UNK     1      30.368  -5.930  37.708  1.00  0.00    -0.011 A 
HETATM   18  C10 UNK     1      30.280  -4.722  38.281  1.00  0.00     0.092 A 
HETATM   19  C15 UNK     1      29.379  -4.431  39.410  1.00  0.00     0.288 A 
HETATM   20  O1  UNK     1      28.602  -5.482  39.872  1.00  0.00    -0.275 OA
HETATM   21  O2  UNK     1      29.326  -3.313  39.908  1.00  0.00    -0.260 OA
HETATM   22  C11 UNK     1      28.672  -6.763  39.289  1.00  0.00     0.090 A 
HETATM   23  C9  UNK     1      29.531  -7.023  38.220  1.00  0.00     0.006 A 
HETATM   24  C16 UNK     1      27.844  -7.744  39.837  1.00  0.00     0.045 A 
HETATM   25  C14 UNK     1      29.542  -8.324  37.699  1.00  0.00     0.015 A 
HETATM   26  C18 UNK     1      28.717  -9.319  38.237  1.00  0.00     0.007 A 
HETATM   27  C17 UNK     1      27.870  -9.028  39.305  1.00  0.00    -0.059 A 
HETATM   28  C22 UNK     1      26.994 -10.093  39.874  1.00  0.00     0.048 C 
ENDBRANCH  16  17
ENDBRANCH  13  16
ENDBRANCH   9  10
ENDBRANCH   2   9
TORSDOF 4
ENDMDL
MODEL 3
REMARK VINA RESULT:      -9.4      7.759     11.493
REMARK  4 active torsions:
REMARK  status: ('A' for Active; 'I' for Inactive)
REMARK    1  A    between atoms: C5_10  and  N1_3 
REMARK    2  A    between atoms: C6_11  and  N2_4 
REMARK    3  A    between atoms: C5_10  and  C7_12 
REMARK    4  A    between atoms: C6_11  and  C8_13 
ROOT
HETATM    1  N3  UNK     1      22.023 -10.450  34.219  1.00  0.00    -0.191 NA
HETATM    2  C8  UNK     1      19.387  -8.796  37.920  1.00  0.00    -0.029 A 
HETATM    3  C12 UNK     1      20.127  -8.939  36.746  1.00  0.00     0.031 A 
HETATM    4  C13 UNK     1      19.167  -9.900  38.744  1.00  0.00     0.009 A 
HETATM    5  C19 UNK     1      20.648 -10.185  36.397  1.00  0.00     0.045 A 
HETATM    6  C20 UNK     1      19.688 -11.146  38.396  1.00  0.00     0.002 A 
HETATM    7  C21 UNK     1      20.429 -11.288  37.222  1.00  0.00     0.022 A 
HETATM    8  C23 UNK     1      21.407 -10.331  35.195  1.00  0.00     0.099 C 
ENDROOT
BRANCH   2   9
HETATM    9  C6  UNK     1      18.826  -7.458  38.295  1.00  0.00     0.311 C 
BRANCH   9  10
HETATM   10  N2  UNK     1      19.543  -6.408  37.574  1.00  0.00     0.096 N 
HETATM   11  C3  UNK     1      18.641  -5.687  36.669  1.00  0.00     0.303 C 
HETATM   12  C1  UNK     1      19.390  -4.583  35.915  1.00  0.00     0.303 C 
HETATM   13  N1  UNK     1      20.028  -3.651  36.851  1.00  0.00     0.096 N 
HETATM   14  C2  UNK     1      20.932  -4.372  37.755  1.00  0.00     0.303 C 
HETATM   15  C4  UNK     1      20.183  -5.476  38.510  1.00  0.00     0.303 C 
BRANCH  13  16
HETATM   16  C5  UNK     1      20.744  -2.600  36.131  1.00  0.00     0.312 C 
BRANCH  16  17
HETATM   17  C7  UNK     1      19.733  -1.909  35.287  1.00  0.00    -0.011 A 
HETATM   18  C10 UNK     1      18.680  -1.287  35.836  1.00  0.00     0.092 A 
HETATM   19  C15 UNK     1      17.655  -0.591  35.041  1.00  0.00     0.288 A 
HETATM   20  O1  UNK     1      17.820  -0.602  33.665  1.00  0.00    -0.275 OA
HETATM   21  O2  UNK     1      16.706  -0.032  35.579  1.00  0.00    -0.260 OA
HETATM   22  C11 UNK     1      18.917  -1.248  33.059  1.00  0.00     0.090 A 
HETATM   23  C9  UNK     1      19.881  -1.903  33.826  1.00  0.00     0.006 A 
HETATM   24  C16 UNK     1      18.981  -1.194  31.666  1.00  0.00     0.045 A 
HETATM   25  C14 UNK     1      20.939  -2.522  33.147  1.00  0.00     0.015 A 
HETATM   26  C18 UNK     1      21.018  -2.477  31.750  1.00  0.00     0.007 A 
HETATM   27  C17 UNK     1      20.039  -1.814  31.011  1.00  0.00    -0.059 A 
HETATM   28  C22 UNK     1      20.129  -1.770  29.523  1.00  0.00     0.048 C 
ENDBRANCH  16  17
ENDBRANCH  13  16
ENDBRANCH   9  10
ENDBRANCH   2   9
TORSDOF 4
ENDMDL
MODEL 4
REMARK VINA RESULT:      -9.1      7.529     11.201
REMARK  4 active torsions:
REMARK  status: ('A' for Active; 'I' for Inactive)
REMARK    1  A    between atoms: C5_10  and  N1_3 
REMARK    2  A    between atoms: C6_11  and  N2_4 
REMARK    3  A    between atoms: C5_10  and  C7_12 
REMARK    4  A    between atoms: C6_11  and  C8_13 
ROOT
HETATM    1  N3  UNK     1      22.049 -10.619  34.360  1.00  0.00    -0.191 NA
HETATM    2  C8  UNK     1      19.384  -8.763  37.943  1.00  0.00    -0.029 A 
HETATM    3  C12 UNK     1      20.145  -8.967  36.792  1.00  0.00     0.031 A 
HETATM    4  C13 UNK     1      19.112  -9.831  38.797  1.00  0.00     0.009 A 
HETATM    5  C19 UNK     1      20.635 -10.239  36.496  1.00  0.00     0.045 A 
HETATM    6  C20 UNK     1      19.600 -11.103  38.502  1.00  0.00     0.002 A 
HETATM    7  C21 UNK     1      20.363 -11.307  37.351  1.00  0.00     0.022 A 
HETATM    8  C23 UNK     1      21.416 -10.449  35.318  1.00  0.00     0.099 C 
ENDROOT
BRANCH   2   9
HETATM    9  C6  UNK     1      18.857  -7.396  38.261  1.00  0.00     0.311 C 
BRANCH   9  10
HETATM   10  N2  UNK     1      19.626  -6.393  37.527  1.00  0.00     0.096 N 
HETATM   11  C3  UNK     1      18.802  -5.759  36.492  1.00  0.00     0.303 C 
HETATM   12  C1  UNK     1      19.604  -4.704  35.723  1.00  0.00     0.303 C 
HETATM   13  N1  UNK     1      20.147  -3.692  36.637  1.00  0.00     0.096 N 
HETATM   14  C2  UNK     1      20.973  -4.327  37.671  1.00  0.00     0.303 C 
HETATM   15  C4  UNK     1      20.170  -5.381  38.441  1.00  0.00     0.303 C 
BRANCH  13  16
HETATM   16  C5  UNK     1      20.914  -2.687  35.903  1.00  0.00     0.312 C 
BRANCH  16  17
HETATM   17  C7  UNK     1      19.973  -2.072  34.931  1.00  0.00    -0.011 A 
HETATM   18  C10 UNK     1      20.161  -2.198  33.610  1.00  0.00     0.092 A 
HETATM   19  C15 UNK     1      19.257  -1.607  32.609  1.00  0.00     0.288 A 
HETATM   20  O1  UNK     1      18.173  -0.893  33.095  1.00  0.00    -0.275 OA
HETATM   21  O2  UNK     1      19.460  -1.745  31.409  1.00  0.00    -0.260 OA
HETATM   22  C11 UNK     1      17.949  -0.743  34.479  1.00  0.00     0.090 A 
HETATM   23  C9  UNK     1      18.815  -1.310  35.415  1.00  0.00     0.006 A 
HETATM   24  C16 UNK     1      16.825  -0.004  34.853  1.00  0.00     0.045 A 
HETATM   25  C14 UNK     1      18.523  -1.113  36.771  1.00  0.00     0.015 A 
HETATM   26  C18 UNK     1      17.400  -0.374  37.163  1.00  0.00     0.007 A 
HETATM   27  C17 UNK     1      16.553   0.180  36.204  1.00  0.00    -0.059 A 
HETATM   28  C22 UNK     1      15.359   0.967  36.627  1.00  0.00     0.048 C 
ENDBRANCH  16  17
ENDBRANCH  13  16
ENDBRANCH   9  10
ENDBRANCH   2   9
TORSDOF 4
ENDMDL
MODEL 5
REMARK VINA RESULT:      -9.1     16.844     19.524
REMARK  4 active torsions:
REMARK  status: ('A' for Active; 'I' for Inactive)
REMARK    1  A    between atoms: C5_10  and  N1_3 
REMARK    2  A    between atoms: C6_11  and  N2_4 
REMARK    3  A    between atoms: C5_10  and  C7_12 
REMARK    4  A    between atoms: C6_11  and  C8_13 
ROOT
HETATM    1  N3  UNK     1      34.552  -8.344  29.008  1.00  0.00    -0.191 NA
HETATM    2  C8  UNK     1      35.996  -7.753  33.585  1.00  0.00    -0.029 A 
HETATM    3  C12 UNK     1      35.359  -7.662  32.347  1.00  0.00     0.031 A 
HETATM    4  C13 UNK     1      37.008  -8.693  33.781  1.00  0.00     0.009 A 
HETATM    5  C19 UNK     1      35.734  -8.511  31.306  1.00  0.00     0.045 A 
HETATM    6  C20 UNK     1      37.382  -9.543  32.741  1.00  0.00     0.002 A 
HETATM    7  C21 UNK     1      36.745  -9.452  31.503  1.00  0.00     0.022 A 
HETATM    8  C23 UNK     1      35.082  -8.419  30.038  1.00  0.00     0.099 C 
ENDROOT
BRANCH   2   9
HETATM    9  C6  UNK     1      35.594  -6.840  34.704  1.00  0.00     0.311 C 
BRANCH   9  10
HETATM   10  N2  UNK     1      34.159  -6.573  34.625  1.00  0.00     0.096 N 
HETATM   11  C3  UNK     1      33.398  -7.600  35.346  1.00  0.00     0.303 C 
HETATM   12  C1  UNK     1      31.893  -7.320  35.269  1.00  0.00     0.303 C 
HETATM   13  N1  UNK     1      31.582  -5.987  35.796  1.00  0.00     0.096 N 
HETATM   14  C2  UNK     1      32.342  -4.961  35.073  1.00  0.00     0.303 C 
HETATM   15  C4  UNK     1      33.847  -5.239  35.152  1.00  0.00     0.303 C 
BRANCH  13  16
HETATM   16  C5  UNK     1      30.147  -5.720  35.720  1.00  0.00     0.312 C 
BRANCH  16  17
HETATM   17  C7  UNK     1      29.653  -5.687  37.121  1.00  0.00    -0.011 A 
HETATM   18  C10 UNK     1      29.792  -4.591  37.879  1.00  0.00     0.092 A 
HETATM   19  C15 UNK     1      29.319  -4.511  39.272  1.00  0.00     0.288 A 
HETATM   20  O1  UNK     1      28.708  -5.643  39.787  1.00  0.00    -0.275 OA
HETATM   21  O2  UNK     1      29.463  -3.490  39.934  1.00  0.00    -0.260 OA
HETATM   22  C11 UNK     1      28.548  -6.811  39.015  1.00  0.00     0.090 A 
HETATM   23  C9  UNK     1      29.001  -6.871  37.696  1.00  0.00     0.006 A 
HETATM   24  C16 UNK     1      27.918  -7.890  39.637  1.00  0.00     0.045 A 
HETATM   25  C14 UNK     1      28.805  -8.070  36.997  1.00  0.00     0.015 A 
HETATM   26  C18 UNK     1      28.176  -9.161  37.607  1.00  0.00     0.007 A 
HETATM   27  C17 UNK     1      27.733  -9.070  38.926  1.00  0.00    -0.059 A 
HETATM   28  C22 UNK     1      27.063 -10.237  39.571  1.00  0.00     0.048 C 
ENDBRANCH  16  17
ENDBRANCH  13  16
ENDBRANCH   9  10
ENDBRANCH   2   9
TORSDOF 4
ENDMDL
MODEL 6
REMARK VINA RESULT:      -8.6     23.617     26.268
REMARK  4 active torsions:
REMARK  status: ('A' for Active; 'I' for Inactive)
REMARK    1  A    between atoms: C5_10  and  N1_3 
REMARK    2  A    between atoms: C6_11  and  N2_4 
REMARK    3  A    between atoms: C5_10  and  C7_12 
REMARK    4  A    between atoms: C6_11  and  C8_13 
ROOT
HETATM    1  N3  UNK     1      13.430  16.549   6.484  1.00  0.00    -0.191 NA
HETATM    2  C8  UNK     1      17.123  13.681   7.717  1.00  0.00    -0.029 A 
HETATM    3  C12 UNK     1      15.935  14.410   7.676  1.00  0.00     0.031 A 
HETATM    4  C13 UNK     1      18.013  13.736   6.644  1.00  0.00     0.009 A 
HETATM    5  C19 UNK     1      15.636  15.194   6.562  1.00  0.00     0.045 A 
HETATM    6  C20 UNK     1      17.714  14.519   5.529  1.00  0.00     0.002 A 
HETATM    7  C21 UNK     1      16.525  15.249   5.488  1.00  0.00     0.022 A 
HETATM    8  C23 UNK     1      14.419  15.942   6.519  1.00  0.00     0.099 C 
ENDROOT
BRANCH   2   9
HETATM    9  C6  UNK     1      17.445  12.839   8.914  1.00  0.00     0.311 C 
BRANCH   9  10
HETATM   10  N2  UNK     1      16.267  12.061   9.295  1.00  0.00     0.096 N 
HETATM   11  C3  UNK     1      16.076  10.926   8.385  1.00  0.00     0.303 C 
HETATM   12  C1  UNK     1      14.844  10.106   8.785  1.00  0.00     0.303 C 
HETATM   13  N1  UNK     1      14.955   9.639  10.171  1.00  0.00     0.096 N 
HETATM   14  C2  UNK     1      15.145  10.775  11.081  1.00  0.00     0.303 C 
HETATM   15  C4  UNK     1      16.377  11.593  10.682  1.00  0.00     0.303 C 
BRANCH  13  16
HETATM   16  C5  UNK     1      13.779   8.859  10.552  1.00  0.00     0.312 C 
BRANCH  16  17
HETATM   17  C7  UNK     1      13.875   7.572   9.815  1.00  0.00    -0.011 A 
HETATM   18  C10 UNK     1      14.881   6.717  10.041  1.00  0.00     0.092 A 
HETATM   19  C15 UNK     1      15.018   5.431   9.336  1.00  0.00     0.288 A 
HETATM   20  O1  UNK     1      14.041   5.127   8.402  1.00  0.00    -0.275 OA
HETATM   21  O2  UNK     1      15.953   4.674   9.571  1.00  0.00    -0.260 OA
HETATM   22  C11 UNK     1      12.970   6.006   8.142  1.00  0.00     0.090 A 
HETATM   23  C9  UNK     1      12.853   7.221   8.819  1.00  0.00     0.006 A 
HETATM   24  C16 UNK     1      12.044   5.595   7.181  1.00  0.00     0.045 A 
HETATM   25  C14 UNK     1      11.761   8.038   8.501  1.00  0.00     0.015 A 
HETATM   26  C18 UNK     1      10.824   7.641   7.540  1.00  0.00     0.007 A 
HETATM   27  C17 UNK     1      10.967   6.421   6.881  1.00  0.00    -0.059 A 
HETATM   28  C22 UNK     1       9.966   6.003   5.857  1.00  0.00     0.048 C 
ENDBRANCH  16  17
ENDBRANCH  13  16
ENDBRANCH   9  10
ENDBRANCH   2   9
TORSDOF 4
ENDMDL
MODEL 7
REMARK VINA RESULT:      -8.6     23.538     25.294
REMARK  4 active torsions:
REMARK  status: ('A' for Active; 'I' for Inactive)
REMARK    1  A    between atoms: C5_10  and  N1_3 
REMARK    2  A    between atoms: C6_11  and  N2_4 
REMARK    3  A    between atoms: C5_10  and  C7_12 
REMARK    4  A    between atoms: C6_11  and  C8_13 
ROOT
HETATM    1  N3  UNK     1       7.100   5.890   9.403  1.00  0.00    -0.191 NA
HETATM    2  C8  UNK     1      11.599   5.827   7.631  1.00  0.00    -0.029 A 
HETATM    3  C12 UNK     1      10.467   5.784   8.446  1.00  0.00     0.031 A 
HETATM    4  C13 UNK     1      11.464   6.054   6.262  1.00  0.00     0.009 A 
HETATM    5  C19 UNK     1       9.201   5.969   7.891  1.00  0.00     0.045 A 
HETATM    6  C20 UNK     1      10.198   6.239   5.706  1.00  0.00     0.002 A 
HETATM    7  C21 UNK     1       9.066   6.197   6.522  1.00  0.00     0.022 A 
HETATM    8  C23 UNK     1       8.042   5.926   8.726  1.00  0.00     0.099 C 
ENDROOT
BRANCH   2   9
HETATM    9  C6  UNK     1      12.960   5.628   8.227  1.00  0.00     0.311 C 
BRANCH   9  10
HETATM   10  N2  UNK     1      13.359   6.835   8.948  1.00  0.00     0.096 N 
HETATM   11  C3  UNK     1      14.616   6.617   9.673  1.00  0.00     0.303 C 
HETATM   12  C1  UNK     1      15.039   7.882  10.427  1.00  0.00     0.303 C 
HETATM   13  N1  UNK     1      15.168   9.020   9.508  1.00  0.00     0.096 N 
HETATM   14  C2  UNK     1      13.910   9.238   8.785  1.00  0.00     0.303 C 
HETATM   15  C4  UNK     1      13.487   7.973   8.030  1.00  0.00     0.303 C 
BRANCH  13  16
HETATM   16  C5  UNK     1      15.569  10.226  10.229  1.00  0.00     0.312 C 
BRANCH  16  17
HETATM   17  C7  UNK     1      16.426  11.004   9.296  1.00  0.00    -0.011 A 
HETATM   18  C10 UNK     1      17.646  10.570   8.951  1.00  0.00     0.092 A 
HETATM   19  C15 UNK     1      18.531  11.305   8.031  1.00  0.00     0.288 A 
HETATM   20  O1  UNK     1      18.043  12.498   7.520  1.00  0.00    -0.275 OA
HETATM   21  O2  UNK     1      19.641  10.876   7.738  1.00  0.00    -0.260 OA
HETATM   22  C11 UNK     1      16.765  12.981   7.865  1.00  0.00     0.090 A 
HETATM   23  C9  UNK     1      15.938  12.272   8.738  1.00  0.00     0.006 A 
HETATM   24  C16 UNK     1      16.379  14.193   7.290  1.00  0.00     0.045 A 
HETATM   25  C14 UNK     1      14.682  12.820   9.031  1.00  0.00     0.015 A 
HETATM   26  C18 UNK     1      14.280  14.035   8.463  1.00  0.00     0.007 A 
HETATM   27  C17 UNK     1      15.129  14.720   7.594  1.00  0.00    -0.059 A 
HETATM   28  C22 UNK     1      14.695  16.014   6.992  1.00  0.00     0.048 C 
ENDBRANCH  16  17
ENDBRANCH  13  16
ENDBRANCH   9  10
ENDBRANCH   2   9
TORSDOF 4
ENDMDL
MODEL 8
REMARK VINA RESULT:      -8.5     14.190     17.241
REMARK  4 active torsions:
REMARK  status: ('A' for Active; 'I' for Inactive)
REMARK    1  A    between atoms: C5_10  and  N1_3 
REMARK    2  A    between atoms: C6_11  and  N2_4 
REMARK    3  A    between atoms: C5_10  and  C7_12 
REMARK    4  A    between atoms: C6_11  and  C8_13 
ROOT
HETATM    1  N3  UNK     1      18.566  -5.884  36.462  1.00  0.00    -0.191 NA
HETATM    2  C8  UNK     1      20.724 -10.210  36.567  1.00  0.00    -0.029 A 
HETATM    3  C12 UNK     1      20.310  -8.914  36.257  1.00  0.00     0.031 A 
HETATM    4  C13 UNK     1      20.166 -10.879  37.656  1.00  0.00     0.009 A 
HETATM    5  C19 UNK     1      19.337  -8.289  37.036  1.00  0.00     0.045 A 
HETATM    6  C20 UNK     1      19.194 -10.254  38.436  1.00  0.00     0.002 A 
HETATM    7  C21 UNK     1      18.779  -8.958  38.126  1.00  0.00     0.022 A 
HETATM    8  C23 UNK     1      18.911  -6.962  36.719  1.00  0.00     0.099 C 
ENDROOT
BRANCH   2   9
HETATM    9  C6  UNK     1      21.770 -10.883  35.731  1.00  0.00     0.311 C 
BRANCH   9  10
HETATM   10  N2  UNK     1      23.064 -10.800  36.406  1.00  0.00     0.096 N 
HETATM   11  C3  UNK     1      24.071 -11.604  35.703  1.00  0.00     0.303 C 
HETATM   12  C1  UNK     1      25.429 -11.515  36.407  1.00  0.00     0.303 C 
HETATM   13  N1  UNK     1      25.872 -10.120  36.515  1.00  0.00     0.096 N 
HETATM   14  C2  UNK     1      24.865  -9.317  37.219  1.00  0.00     0.303 C 
HETATM   15  C4  UNK     1      23.507  -9.405  36.515  1.00  0.00     0.303 C 
BRANCH  13  16
HETATM   16  C5  UNK     1      27.166 -10.036  37.188  1.00  0.00     0.312 C 
BRANCH  16  17
HETATM   17  C7  UNK     1      27.923  -8.955  36.505  1.00  0.00    -0.011 A 
HETATM   18  C10 UNK     1      28.250  -9.049  35.209  1.00  0.00     0.092 A 
HETATM   19  C15 UNK     1      28.998  -8.004  34.490  1.00  0.00     0.288 A 
HETATM   20  O1  UNK     1      29.364  -6.886  35.222  1.00  0.00    -0.275 OA
HETATM   21  O2  UNK     1      29.278  -8.125  33.303  1.00  0.00    -0.260 OA
HETATM   22  C11 UNK     1      29.036  -6.758  36.587  1.00  0.00     0.090 A 
HETATM   23  C9  UNK     1      28.326  -7.757  37.255  1.00  0.00     0.006 A 
HETATM   24  C16 UNK     1      29.456  -5.589  37.224  1.00  0.00     0.045 A 
HETATM   25  C14 UNK     1      28.040  -7.554  38.611  1.00  0.00     0.015 A 
HETATM   26  C18 UNK     1      28.455  -6.387  39.264  1.00  0.00     0.007 A 
HETATM   27  C17 UNK     1      29.163  -5.407  38.570  1.00  0.00    -0.059 A 
HETATM   28  C22 UNK     1      29.603  -4.166  39.272  1.00  0.00     0.048 C 
ENDBRANCH  16  17
ENDBRANCH  13  16
ENDBRANCH   9  10
ENDBRANCH   2   9
TORSDOF 4
ENDMDL
MODEL 9
REMARK VINA RESULT:      -8.5     22.208     24.035
REMARK  4 active torsions:
REMARK  status: ('A' for Active; 'I' for Inactive)
REMARK    1  A    between atoms: C5_10  and  N1_3 
REMARK    2  A    between atoms: C6_11  and  N2_4 
REMARK    3  A    between atoms: C5_10  and  C7_12 
REMARK    4  A    between atoms: C6_11  and  C8_13 
ROOT
HETATM    1  N3  UNK     1       7.330   6.543  10.621  1.00  0.00    -0.191 NA
HETATM    2  C8  UNK     1      10.853   5.795   7.394  1.00  0.00    -0.029 A 
HETATM    3  C12 UNK     1      10.083   5.906   8.553  1.00  0.00     0.031 A 
HETATM    4  C13 UNK     1      10.298   6.115   6.155  1.00  0.00     0.009 A 
HETATM    5  C19 UNK     1       8.759   6.337   8.472  1.00  0.00     0.045 A 
HETATM    6  C20 UNK     1       8.973   6.544   6.073  1.00  0.00     0.002 A 
HETATM    7  C21 UNK     1       8.204   6.656   7.232  1.00  0.00     0.022 A 
HETATM    8  C23 UNK     1       7.971   6.451   9.658  1.00  0.00     0.099 C 
ENDROOT
BRANCH   2   9
HETATM    9  C6  UNK     1      12.276   5.333   7.480  1.00  0.00     0.311 C 
BRANCH   9  10
HETATM   10  N2  UNK     1      12.927   5.965   8.626  1.00  0.00     0.096 N 
HETATM   11  C3  UNK     1      14.163   5.257   8.979  1.00  0.00     0.303 C 
HETATM   12  C1  UNK     1      14.850   5.921  10.178  1.00  0.00     0.303 C 
HETATM   13  N1  UNK     1      15.129   7.335   9.903  1.00  0.00     0.096 N 
HETATM   14  C2  UNK     1      13.892   8.042   9.552  1.00  0.00     0.303 C 
HETATM   15  C4  UNK     1      13.206   7.380   8.352  1.00  0.00     0.303 C 
BRANCH  13  16
HETATM   16  C5  UNK     1      15.782   7.967  11.047  1.00  0.00     0.312 C 
BRANCH  16  17
HETATM   17  C7  UNK     1      16.268   9.289  10.573  1.00  0.00    -0.011 A 
HETATM   18  C10 UNK     1      17.245   9.383   9.660  1.00  0.00     0.092 A 
HETATM   19  C15 UNK     1      17.759  10.669   9.161  1.00  0.00     0.288 A 
HETATM   20  O1  UNK     1      17.181  11.815   9.683  1.00  0.00    -0.275 OA
HETATM   21  O2  UNK     1      18.654  10.714   8.325  1.00  0.00    -0.260 OA
HETATM   22  C11 UNK     1      16.152  11.750  10.645  1.00  0.00     0.090 A 
HETATM   23  C9  UNK     1      15.675  10.522  11.108  1.00  0.00     0.006 A 
HETATM   24  C16 UNK     1      15.644  12.968  11.100  1.00  0.00     0.045 A 
HETATM   25  C14 UNK     1      14.652  10.544  12.065  1.00  0.00     0.015 A 
HETATM   26  C18 UNK     1      14.132  11.757  12.532  1.00  0.00     0.007 A 
HETATM   27  C17 UNK     1      14.628  12.967  12.049  1.00  0.00    -0.059 A 
HETATM   28  C22 UNK     1      14.071  14.256  12.551  1.00  0.00     0.048 C 
ENDBRANCH  16  17
ENDBRANCH  13  16
ENDBRANCH   9  10
ENDBRANCH   2   9
TORSDOF 4
ENDMDL
MODEL 10
REMARK VINA RESULT:      -8.5     14.542     17.788
REMARK  4 active torsions:
REMARK  status: ('A' for Active; 'I' for Inactive)
REMARK    1  A    between atoms: C5_10  and  N1_3 
REMARK    2  A    between atoms: C6_11  and  N2_4 
REMARK    3  A    between atoms: C5_10  and  C7_12 
REMARK    4  A    between atoms: C6_11  and  C8_13 
ROOT
HETATM    1  N3  UNK     1      21.722 -10.606  34.309  1.00  0.00    -0.191 NA
HETATM    2  C8  UNK     1      22.780  -7.873  38.155  1.00  0.00    -0.029 A 
HETATM    3  C12 UNK     1      22.743  -8.855  37.164  1.00  0.00     0.031 A 
HETATM    4  C13 UNK     1      21.865  -6.819  38.127  1.00  0.00     0.009 A 
HETATM    5  C19 UNK     1      21.791  -8.784  36.147  1.00  0.00     0.045 A 
HETATM    6  C20 UNK     1      20.914  -6.748  37.109  1.00  0.00     0.002 A 
HETATM    7  C21 UNK     1      20.877  -7.730  36.119  1.00  0.00     0.022 A 
HETATM    8  C23 UNK     1      21.753  -9.790  35.133  1.00  0.00     0.099 C 
ENDROOT
BRANCH   2   9
HETATM    9  C6  UNK     1      23.802  -7.948  39.248  1.00  0.00     0.311 C 
BRANCH   9  10
HETATM   10  N2  UNK     1      25.130  -8.124  38.664  1.00  0.00     0.096 N 
HETATM   11  C3  UNK     1      25.846  -6.844  38.603  1.00  0.00     0.303 C 
HETATM   12  C1  UNK     1      27.241  -7.027  37.995  1.00  0.00     0.303 C 
HETATM   13  N1  UNK     1      28.018  -8.014  38.754  1.00  0.00     0.096 N 
HETATM   14  C2  UNK     1      27.301  -9.293  38.813  1.00  0.00     0.303 C 
HETATM   15  C4  UNK     1      25.907  -9.112  39.422  1.00  0.00     0.303 C 
BRANCH  13  16
HETATM   16  C5  UNK     1      29.347  -8.189  38.172  1.00  0.00     0.312 C 
BRANCH  16  17
HETATM   17  C7  UNK     1      30.056  -6.895  38.355  1.00  0.00    -0.011 A 
HETATM   18  C10 UNK     1      29.477  -5.872  38.998  1.00  0.00     0.092 A 
HETATM   19  C15 UNK     1      30.140  -4.573  39.203  1.00  0.00     0.288 A 
HETATM   20  O1  UNK     1      31.421  -4.441  38.691  1.00  0.00    -0.275 OA
HETATM   21  O2  UNK     1      29.578  -3.660  39.797  1.00  0.00    -0.260 OA
HETATM   22  C11 UNK     1      32.056  -5.498  38.010  1.00  0.00     0.090 A 
HETATM   23  C9  UNK     1      31.415  -6.724  37.824  1.00  0.00     0.006 A 
HETATM   24  C16 UNK     1      33.347  -5.252  37.538  1.00  0.00     0.045 A 
HETATM   25  C14 UNK     1      32.114  -7.724  37.135  1.00  0.00     0.015 A 
HETATM   26  C18 UNK     1      33.409  -7.493  36.655  1.00  0.00     0.007 A 
HETATM   27  C17 UNK     1      34.024  -6.258  36.857  1.00  0.00    -0.059 A 
HETATM   28  C22 UNK     1      35.403  -6.017  36.343  1.00  0.00     0.048 C 
ENDBRANCH  16  17
ENDBRANCH  13  16
ENDBRANCH   9  10
ENDBRANCH   2   9
TORSDOF 4
ENDMDL
