MODEL 1
REMARK VINA RESULT:      -8.8      0.000      0.000
REMARK  7 active torsions:
REMARK  status: ('A' for Active; 'I' for Inactive)
REMARK    1  A    between atoms: C5_14  and  O1_2 
REMARK    2  A    between atoms: C6_15  and  O1_2 
REMARK    3  A    between atoms: C15_24  and  O4_5 
REMARK    4  A    between atoms: C3_12  and  N1_9 
REMARK       I    between atoms: C9_18  and  N1_9 
REMARK    5  A    between atoms: C1_10  and  C6_15 
REMARK    6  A    between atoms: C15_24  and  C4_13 
REMARK    7  A    between atoms: C8_17  and  C9_18 
ROOT
HETATM    1  S1  UNK     1      18.997  -1.815  12.500  1.00  0.00    -0.065 SA
HETATM    2  C1  UNK     1      20.224  -3.614  13.863  1.00  0.00     0.080 A 
HETATM    3  C2  UNK     1      20.035  -4.165  12.562  1.00  0.00    -0.020 A 
HETATM    4  C3  UNK     1      19.709  -2.360  13.943  1.00  0.00     0.094 A 
HETATM    5  C4  UNK     1      19.380  -3.291  11.721  1.00  0.00     0.089 A 
HETATM    6  C7  UNK     1      20.488  -5.520  12.159  1.00  0.00     0.051 C 
ENDROOT
BRANCH   4   7
HETATM    7  N1  UNK     1      19.673  -1.463  15.014  1.00  0.00    -0.316 N 
HETATM    8  C9  UNK     1      18.674  -1.372  15.973  1.00  0.00     0.262 C 
HETATM    9  O5  UNK     1      17.647  -2.042  16.077  1.00  0.00    -0.267 OA
HETATM   10  H2  UNK     1      20.460  -0.820  15.049  1.00  0.00     0.169 HD
BRANCH   8  11
HETATM   11  C8  UNK     1      18.952  -0.318  16.956  1.00  0.00     0.108 A 
HETATM   12  C11 UNK     1      18.983  -0.698  18.238  1.00  0.00     0.037 A 
HETATM   13  C10 UNK     1      19.250   0.275  19.286  1.00  0.00    -0.001 A 
HETATM   14  C12 UNK     1      19.472   1.602  18.930  1.00  0.00     0.089 A 
HETATM   15  C17 UNK     1      19.292  -0.076  20.638  1.00  0.00     0.014 A 
HETATM   16  O2  UNK     1      19.438   1.996  17.579  1.00  0.00    -0.274 OA
HETATM   17  C18 UNK     1      19.732   2.584  19.885  1.00  0.00     0.038 A 
HETATM   18  C16 UNK     1      19.185   1.088  16.555  1.00  0.00     0.304 A 
HETATM   19  O7  UNK     1      19.157   1.440  15.380  1.00  0.00    -0.259 OA
HETATM   20  C20 UNK     1      19.772   2.224  21.230  1.00  0.00     0.003 A 
HETATM   21  C19 UNK     1      19.552   0.897  21.606  1.00  0.00     0.001 A 
ENDBRANCH   8  11
ENDBRANCH   4   7
BRANCH   2  22
HETATM   22  C6  UNK     1      20.875  -4.278  14.965  1.00  0.00     0.297 C 
HETATM   23  O3  UNK     1      20.408  -5.250  15.586  1.00  0.00    -0.259 OA
BRANCH  22  24
HETATM   24  O1  UNK     1      22.091  -3.713  15.261  1.00  0.00    -0.313 OA
BRANCH  24  25
HETATM   25  C5  UNK     1      22.668  -4.026  16.534  1.00  0.00     0.124 C 
HETATM   26  C13 UNK     1      22.063  -3.119  17.595  1.00  0.00     0.040 C 
HETATM   27  C14 UNK     1      24.179  -3.871  16.449  1.00  0.00     0.040 C 
ENDBRANCH  24  25
ENDBRANCH  22  24
ENDBRANCH   2  22
BRANCH   5  28
HETATM   28  C15 UNK     1      19.003  -3.463  10.354  1.00  0.00     0.300 C 
HETATM   29  O6  UNK     1      17.978  -4.062   9.953  1.00  0.00    -0.259 OA
BRANCH  28  30
HETATM   30  O4  UNK     1      19.902  -2.889   9.481  1.00  0.00    -0.322 OA
HETATM   31  C21 UNK     1      20.804  -3.754   8.785  1.00  0.00     0.213 C 
ENDBRANCH  28  30
ENDBRANCH   5  28
TORSDOF 7
ENDMDL
MODEL 2
REMARK VINA RESULT:      -8.0     16.713     21.029
REMARK  7 active torsions:
REMARK  status: ('A' for Active; 'I' for Inactive)
REMARK    1  A    between atoms: C5_14  and  O1_2 
REMARK    2  A    between atoms: C6_15  and  O1_2 
REMARK    3  A    between atoms: C15_24  and  O4_5 
REMARK    4  A    between atoms: C3_12  and  N1_9 
REMARK       I    between atoms: C9_18  and  N1_9 
REMARK    5  A    between atoms: C1_10  and  C6_15 
REMARK    6  A    between atoms: C15_24  and  C4_13 
REMARK    7  A    between atoms: C8_17  and  C9_18 
ROOT
HETATM    1  S1  UNK     1      20.559  -2.610  32.856  1.00  0.00    -0.065 SA
HETATM    2  C1  UNK     1      18.854  -1.381  34.334  1.00  0.00     0.080 A 
HETATM    3  C2  UNK     1      19.024  -0.574  33.171  1.00  0.00    -0.020 A 
HETATM    4  C3  UNK     1      19.627  -2.496  34.272  1.00  0.00     0.094 A 
HETATM    5  C4  UNK     1      19.924  -1.126  32.286  1.00  0.00     0.089 A 
HETATM    6  C7  UNK     1      18.316   0.710  32.941  1.00  0.00     0.051 C 
ENDROOT
BRANCH   4   7
HETATM    7  N1  UNK     1      19.772  -3.549  35.181  1.00  0.00    -0.316 N 
HETATM    8  C9  UNK     1      20.300  -3.458  36.461  1.00  0.00     0.262 C 
HETATM    9  O5  UNK     1      20.735  -2.465  37.043  1.00  0.00    -0.267 OA
HETATM   10  H2  UNK     1      19.468  -4.453  34.828  1.00  0.00     0.169 HD
BRANCH   8  11
HETATM   11  C8  UNK     1      20.306  -4.757  37.145  1.00  0.00     0.108 A 
HETATM   12  C11 UNK     1      21.426  -5.074  37.803  1.00  0.00     0.037 A 
HETATM   13  C10 UNK     1      21.528  -6.340  38.512  1.00  0.00    -0.001 A 
HETATM   14  C12 UNK     1      20.443  -7.211  38.490  1.00  0.00     0.089 A 
HETATM   15  C17 UNK     1      22.678  -6.713  39.213  1.00  0.00     0.014 A 
HETATM   16  O2  UNK     1      19.267  -6.872  37.795  1.00  0.00    -0.274 OA
HETATM   17  C18 UNK     1      20.476  -8.440  39.147  1.00  0.00     0.038 A 
HETATM   18  C16 UNK     1      19.140  -5.668  37.109  1.00  0.00     0.304 A 
HETATM   19  O7  UNK     1      18.112  -5.381  36.505  1.00  0.00    -0.259 OA
HETATM   20  C20 UNK     1      21.627  -8.803  39.844  1.00  0.00     0.003 A 
HETATM   21  C19 UNK     1      22.725  -7.942  39.876  1.00  0.00     0.001 A 
ENDBRANCH   8  11
ENDBRANCH   4   7
BRANCH   2  22
HETATM   22  C6  UNK     1      17.983  -1.078  35.442  1.00  0.00     0.297 C 
HETATM   23  O3  UNK     1      16.818  -1.497  35.567  1.00  0.00    -0.259 OA
BRANCH  22  24
HETATM   24  O1  UNK     1      18.589  -0.262  36.365  1.00  0.00    -0.313 OA
BRANCH  24  25
HETATM   25  C5  UNK     1      18.020   1.036  36.568  1.00  0.00     0.124 C 
HETATM   26  C13 UNK     1      19.050   2.096  36.208  1.00  0.00     0.040 C 
HETATM   27  C14 UNK     1      17.560   1.160  38.013  1.00  0.00     0.040 C 
ENDBRANCH  24  25
ENDBRANCH  22  24
ENDBRANCH   2  22
BRANCH   5  28
HETATM   28  C15 UNK     1      20.366  -0.633  31.020  1.00  0.00     0.300 C 
HETATM   29  O6  UNK     1      20.941   0.464  30.828  1.00  0.00    -0.259 OA
BRANCH  28  30
HETATM   30  O4  UNK     1      20.092  -1.504  29.988  1.00  0.00    -0.322 OA
HETATM   31  C21 UNK     1      19.957  -0.960  28.672  1.00  0.00     0.213 C 
ENDBRANCH  28  30
ENDBRANCH   5  28
TORSDOF 7
ENDMDL
MODEL 3
REMARK VINA RESULT:      -7.9     15.520     20.104
REMARK  7 active torsions:
REMARK  status: ('A' for Active; 'I' for Inactive)
REMARK    1  A    between atoms: C5_14  and  O1_2 
REMARK    2  A    between atoms: C6_15  and  O1_2 
REMARK    3  A    between atoms: C15_24  and  O4_5 
REMARK    4  A    between atoms: C3_12  and  N1_9 
REMARK       I    between atoms: C9_18  and  N1_9 
REMARK    5  A    between atoms: C1_10  and  C6_15 
REMARK    6  A    between atoms: C15_24  and  C4_13 
REMARK    7  A    between atoms: C8_17  and  C9_18 
ROOT
HETATM    1  S1  UNK     1      19.373  -1.396  31.771  1.00  0.00    -0.065 SA
HETATM    2  C1  UNK     1      18.723   0.265  33.620  1.00  0.00     0.080 A 
HETATM    3  C2  UNK     1      18.715   1.006  32.403  1.00  0.00    -0.020 A 
HETATM    4  C3  UNK     1      19.061  -1.032  33.401  1.00  0.00     0.094 A 
HETATM    5  C4  UNK     1      19.050   0.224  31.320  1.00  0.00     0.089 A 
HETATM    6  C7  UNK     1      18.384   2.451  32.312  1.00  0.00     0.051 C 
ENDROOT
BRANCH   4   7
HETATM    7  N1  UNK     1      19.191  -2.098  34.296  1.00  0.00    -0.316 N 
HETATM    8  C9  UNK     1      20.375  -2.556  34.857  1.00  0.00     0.262 C 
HETATM    9  O5  UNK     1      21.518  -2.133  34.689  1.00  0.00    -0.267 OA
HETATM   10  H2  UNK     1      18.317  -2.568  34.518  1.00  0.00     0.169 HD
BRANCH   8  11
HETATM   11  C8  UNK     1      20.151  -3.695  35.756  1.00  0.00     0.108 A 
HETATM   12  C11 UNK     1      19.988  -4.887  35.171  1.00  0.00     0.037 A 
HETATM   13  C10 UNK     1      19.760  -6.076  35.978  1.00  0.00    -0.001 A 
HETATM   14  C12 UNK     1      19.713  -5.949  37.362  1.00  0.00     0.089 A 
HETATM   15  C17 UNK     1      19.586  -7.341  35.410  1.00  0.00     0.014 A 
HETATM   16  O2  UNK     1      19.885  -4.692  37.972  1.00  0.00    -0.274 OA
HETATM   17  C18 UNK     1      19.497  -7.048  38.193  1.00  0.00     0.038 A 
HETATM   18  C16 UNK     1      20.105  -3.537  37.227  1.00  0.00     0.304 A 
HETATM   19  O7  UNK     1      20.252  -2.446  37.766  1.00  0.00    -0.259 OA
HETATM   20  C20 UNK     1      19.324  -8.305  37.617  1.00  0.00     0.003 A 
HETATM   21  C19 UNK     1      19.368  -8.451  36.230  1.00  0.00     0.001 A 
ENDBRANCH   8  11
ENDBRANCH   4   7
BRANCH   2  22
HETATM   22  C6  UNK     1      18.417   0.797  34.925  1.00  0.00     0.297 C 
HETATM   23  O3  UNK     1      19.189   1.492  35.610  1.00  0.00    -0.259 OA
BRANCH  22  24
HETATM   24  O1  UNK     1      17.155   0.449  35.339  1.00  0.00    -0.313 OA
BRANCH  24  25
HETATM   25  C5  UNK     1      16.820   0.699  36.709  1.00  0.00     0.124 C 
HETATM   26  C13 UNK     1      17.297  -0.467  37.562  1.00  0.00     0.040 C 
HETATM   27  C14 UNK     1      15.318   0.911  36.826  1.00  0.00     0.040 C 
ENDBRANCH  24  25
ENDBRANCH  22  24
ENDBRANCH   2  22
BRANCH   5  28
HETATM   28  C15 UNK     1      19.155   0.585  29.941  1.00  0.00     0.300 C 
HETATM   29  O6  UNK     1      20.203   0.534  29.255  1.00  0.00    -0.259 OA
BRANCH  28  30
HETATM   30  O4  UNK     1      17.956   1.011  29.413  1.00  0.00    -0.322 OA
HETATM   31  C21 UNK     1      17.964   2.190  28.600  1.00  0.00     0.213 C 
ENDBRANCH  28  30
ENDBRANCH   5  28
TORSDOF 7
ENDMDL
MODEL 4
REMARK VINA RESULT:      -7.8     19.677     23.332
REMARK  7 active torsions:
REMARK  status: ('A' for Active; 'I' for Inactive)
REMARK    1  A    between atoms: C5_14  and  O1_2 
REMARK    2  A    between atoms: C6_15  and  O1_2 
REMARK    3  A    between atoms: C15_24  and  O4_5 
REMARK    4  A    between atoms: C3_12  and  N1_9 
REMARK       I    between atoms: C9_18  and  N1_9 
REMARK    5  A    between atoms: C1_10  and  C6_15 
REMARK    6  A    between atoms: C15_24  and  C4_13 
REMARK    7  A    between atoms: C8_17  and  C9_18 
ROOT
HETATM    1  S1  UNK     1      28.159  -6.955  36.346  1.00  0.00    -0.065 SA
HETATM    2  C1  UNK     1      30.400  -5.699  36.370  1.00  0.00     0.080 A 
HETATM    3  C2  UNK     1      29.806  -5.473  37.646  1.00  0.00    -0.020 A 
HETATM    4  C3  UNK     1      29.605  -6.479  35.592  1.00  0.00     0.094 A 
HETATM    5  C4  UNK     1      28.586  -6.100  37.766  1.00  0.00     0.089 A 
HETATM    6  C7  UNK     1      30.430  -4.659  38.720  1.00  0.00     0.051 C 
ENDROOT
BRANCH   4   7
HETATM    7  N1  UNK     1      29.792  -6.944  34.287  1.00  0.00    -0.316 N 
HETATM    8  C9  UNK     1      29.063  -6.560  33.170  1.00  0.00     0.262 C 
HETATM    9  O5  UNK     1      28.135  -5.755  33.099  1.00  0.00    -0.267 OA
HETATM   10  H2  UNK     1      30.525  -7.641  34.191  1.00  0.00     0.169 HD
BRANCH   8  11
HETATM   11  C8  UNK     1      29.521  -7.245  31.955  1.00  0.00     0.108 A 
HETATM   12  C11 UNK     1      28.591  -7.918  31.270  1.00  0.00     0.037 A 
HETATM   13  C10 UNK     1      28.948  -8.630  30.053  1.00  0.00    -0.001 A 
HETATM   14  C12 UNK     1      30.269  -8.597  29.618  1.00  0.00     0.089 A 
HETATM   15  C17 UNK     1      28.009  -9.346  29.304  1.00  0.00     0.014 A 
HETATM   16  O2  UNK     1      31.244  -7.887  30.344  1.00  0.00    -0.274 OA
HETATM   17  C18 UNK     1      30.677  -9.259  28.460  1.00  0.00     0.038 A 
HETATM   18  C16 UNK     1      30.933  -7.196  31.511  1.00  0.00     0.304 A 
HETATM   19  O7  UNK     1      31.788  -6.581  32.138  1.00  0.00    -0.259 OA
HETATM   20  C20 UNK     1      29.734  -9.970  27.721  1.00  0.00     0.003 A 
HETATM   21  C19 UNK     1      28.404 -10.014  28.142  1.00  0.00     0.001 A 
ENDBRANCH   8  11
ENDBRANCH   4   7
BRANCH   2  22
HETATM   22  C6  UNK     1      31.673  -5.180  35.937  1.00  0.00     0.297 C 
HETATM   23  O3  UNK     1      31.938  -3.972  35.792  1.00  0.00    -0.259 OA
BRANCH  22  24
HETATM   24  O1  UNK     1      32.582  -6.180  35.697  1.00  0.00    -0.313 OA
BRANCH  24  25
HETATM   25  C5  UNK     1      32.993  -6.978  36.813  1.00  0.00     0.124 C 
HETATM   26  C13 UNK     1      34.404  -6.580  37.220  1.00  0.00     0.040 C 
HETATM   27  C14 UNK     1      32.904  -8.449  36.437  1.00  0.00     0.040 C 
ENDBRANCH  24  25
ENDBRANCH  22  24
ENDBRANCH   2  22
BRANCH   5  28
HETATM   28  C15 UNK     1      27.683  -6.118  38.874  1.00  0.00     0.300 C 
HETATM   29  O6  UNK     1      26.679  -5.380  39.005  1.00  0.00    -0.259 OA
BRANCH  28  30
HETATM   30  O4  UNK     1      28.029  -7.056  39.823  1.00  0.00    -0.322 OA
HETATM   31  C21 UNK     1      27.631  -8.412  39.599  1.00  0.00     0.213 C 
ENDBRANCH  28  30
ENDBRANCH   5  28
TORSDOF 7
ENDMDL
MODEL 5
REMARK VINA RESULT:      -7.7      2.476      3.303
REMARK  7 active torsions:
REMARK  status: ('A' for Active; 'I' for Inactive)
REMARK    1  A    between atoms: C5_14  and  O1_2 
REMARK    2  A    between atoms: C6_15  and  O1_2 
REMARK    3  A    between atoms: C15_24  and  O4_5 
REMARK    4  A    between atoms: C3_12  and  N1_9 
REMARK       I    between atoms: C9_18  and  N1_9 
REMARK    5  A    between atoms: C1_10  and  C6_15 
REMARK    6  A    between atoms: C15_24  and  C4_13 
REMARK    7  A    between atoms: C8_17  and  C9_18 
ROOT
HETATM    1  S1  UNK     1      19.035  -3.408  12.121  1.00  0.00    -0.065 SA
HETATM    2  C1  UNK     1      18.591  -5.047  14.050  1.00  0.00     0.080 A 
HETATM    3  C2  UNK     1      18.639  -5.836  12.863  1.00  0.00    -0.020 A 
HETATM    4  C3  UNK     1      18.790  -3.733  13.771  1.00  0.00     0.094 A 
HETATM    5  C4  UNK     1      18.873  -5.070  11.743  1.00  0.00     0.089 A 
HETATM    6  C7  UNK     1      18.457  -7.310  12.838  1.00  0.00     0.051 C 
ENDROOT
BRANCH   4   7
HETATM    7  N1  UNK     1      18.825  -2.622  14.620  1.00  0.00    -0.316 N 
HETATM    8  C9  UNK     1      19.714  -2.420  15.666  1.00  0.00     0.262 C 
HETATM    9  O5  UNK     1      20.626  -3.151  16.050  1.00  0.00    -0.267 OA
HETATM   10  H2  UNK     1      18.105  -1.929  14.433  1.00  0.00     0.169 HD
BRANCH   8  11
HETATM   11  C8  UNK     1      19.470  -1.146  16.354  1.00  0.00     0.108 A 
HETATM   12  C11 UNK     1      19.348  -1.206  17.684  1.00  0.00     0.037 A 
HETATM   13  C10 UNK     1      19.104   0.004  18.454  1.00  0.00    -0.001 A 
HETATM   14  C12 UNK     1      19.000   1.218  17.783  1.00  0.00     0.089 A 
HETATM   15  C17 UNK     1      18.970  -0.012  19.845  1.00  0.00     0.014 A 
HETATM   16  O2  UNK     1      19.129   1.275  16.382  1.00  0.00    -0.274 OA
HETATM   17  C18 UNK     1      18.766   2.413  18.461  1.00  0.00     0.038 A 
HETATM   18  C16 UNK     1      19.363   0.135  15.619  1.00  0.00     0.304 A 
HETATM   19  O7  UNK     1      19.473   0.193  14.399  1.00  0.00    -0.259 OA
HETATM   20  C20 UNK     1      18.633   2.388  19.848  1.00  0.00     0.003 A 
HETATM   21  C19 UNK     1      18.735   1.179  20.538  1.00  0.00     0.001 A 
ENDBRANCH   8  11
ENDBRANCH   4   7
BRANCH   2  22
HETATM   22  C6  UNK     1      18.363  -5.552  15.381  1.00  0.00     0.297 C 
HETATM   23  O3  UNK     1      19.147  -6.289  16.006  1.00  0.00    -0.259 OA
BRANCH  22  24
HETATM   24  O1  UNK     1      17.166  -5.123  15.896  1.00  0.00    -0.313 OA
BRANCH  24  25
HETATM   25  C5  UNK     1      16.354  -6.092  16.568  1.00  0.00     0.124 C 
HETATM   26  C13 UNK     1      15.648  -6.957  15.535  1.00  0.00     0.040 C 
HETATM   27  C14 UNK     1      15.367  -5.374  17.477  1.00  0.00     0.040 C 
ENDBRANCH  24  25
ENDBRANCH  22  24
ENDBRANCH   2  22
BRANCH   5  28
HETATM   28  C15 UNK     1      18.990  -5.477  10.378  1.00  0.00     0.300 C 
HETATM   29  O6  UNK     1      20.019  -5.959   9.849  1.00  0.00    -0.259 OA
BRANCH  28  30
HETATM   30  O4  UNK     1      17.826  -5.283   9.666  1.00  0.00    -0.322 OA
HETATM   31  C21 UNK     1      17.014  -6.428   9.389  1.00  0.00     0.213 C 
ENDBRANCH  28  30
ENDBRANCH   5  28
TORSDOF 7
ENDMDL
MODEL 6
REMARK VINA RESULT:      -7.7      1.515      2.381
REMARK  7 active torsions:
REMARK  status: ('A' for Active; 'I' for Inactive)
REMARK    1  A    between atoms: C5_14  and  O1_2 
REMARK    2  A    between atoms: C6_15  and  O1_2 
REMARK    3  A    between atoms: C15_24  and  O4_5 
REMARK    4  A    between atoms: C3_12  and  N1_9 
REMARK       I    between atoms: C9_18  and  N1_9 
REMARK    5  A    between atoms: C1_10  and  C6_15 
REMARK    6  A    between atoms: C15_24  and  C4_13 
REMARK    7  A    between atoms: C8_17  and  C9_18 
ROOT
HETATM    1  S1  UNK     1      20.174  -1.821  12.283  1.00  0.00    -0.065 SA
HETATM    2  C1  UNK     1      19.915  -3.849  13.839  1.00  0.00     0.080 A 
HETATM    3  C2  UNK     1      20.059  -4.377  12.523  1.00  0.00    -0.020 A 
HETATM    4  C3  UNK     1      19.961  -2.492  13.830  1.00  0.00     0.094 A 
HETATM    5  C4  UNK     1      20.208  -3.382  11.581  1.00  0.00     0.089 A 
HETATM    6  C7  UNK     1      20.050  -5.827  12.203  1.00  0.00     0.051 C 
ENDROOT
BRANCH   4   7
HETATM    7  N1  UNK     1      19.863  -1.575  14.881  1.00  0.00    -0.316 N 
HETATM    8  C9  UNK     1      18.748  -1.363  15.679  1.00  0.00     0.262 C 
HETATM    9  O5  UNK     1      17.652  -1.920  15.631  1.00  0.00    -0.267 OA
HETATM   10  H2  UNK     1      20.699  -1.018  15.031  1.00  0.00     0.169 HD
BRANCH   8  11
HETATM   11  C8  UNK     1      18.987  -0.325  16.689  1.00  0.00     0.108 A 
HETATM   12  C11 UNK     1      18.966  -0.725  17.966  1.00  0.00     0.037 A 
HETATM   13  C10 UNK     1      19.193   0.231  19.038  1.00  0.00    -0.001 A 
HETATM   14  C12 UNK     1      19.429   1.563  18.713  1.00  0.00     0.089 A 
HETATM   15  C17 UNK     1      19.181  -0.143  20.385  1.00  0.00     0.014 A 
HETATM   16  O2  UNK     1      19.449   1.978  17.368  1.00  0.00    -0.274 OA
HETATM   17  C18 UNK     1      19.652   2.529  19.693  1.00  0.00     0.038 A 
HETATM   18  C16 UNK     1      19.236   1.087  16.320  1.00  0.00     0.304 A 
HETATM   19  O7  UNK     1      19.255   1.458  15.152  1.00  0.00    -0.259 OA
HETATM   20  C20 UNK     1      19.638   2.147  21.033  1.00  0.00     0.003 A 
HETATM   21  C19 UNK     1      19.403   0.815  21.378  1.00  0.00     0.001 A 
ENDBRANCH   8  11
ENDBRANCH   4   7
BRANCH   2  22
HETATM   22  C6  UNK     1      19.741  -4.630  15.038  1.00  0.00     0.297 C 
HETATM   23  O3  UNK     1      20.668  -5.047  15.757  1.00  0.00    -0.259 OA
BRANCH  22  24
HETATM   24  O1  UNK     1      18.417  -4.870  15.310  1.00  0.00    -0.313 OA
BRANCH  24  25
HETATM   25  C5  UNK     1      18.050  -6.207  15.666  1.00  0.00     0.124 C 
HETATM   26  C13 UNK     1      17.648  -6.968  14.411  1.00  0.00     0.040 C 
HETATM   27  C14 UNK     1      16.923  -6.161  16.687  1.00  0.00     0.040 C 
ENDBRANCH  24  25
ENDBRANCH  22  24
ENDBRANCH   2  22
BRANCH   5  28
HETATM   28  C15 UNK     1      20.378  -3.494  10.167  1.00  0.00     0.300 C 
HETATM   29  O6  UNK     1      21.479  -3.547   9.569  1.00  0.00    -0.259 OA
BRANCH  28  30
HETATM   30  O4  UNK     1      19.178  -3.539   9.492  1.00  0.00    -0.322 OA
HETATM   31  C21 UNK     1      18.801  -4.776   8.879  1.00  0.00     0.213 C 
ENDBRANCH  28  30
ENDBRANCH   5  28
TORSDOF 7
ENDMDL
MODEL 7
REMARK VINA RESULT:      -7.6     19.632     21.911
REMARK  7 active torsions:
REMARK  status: ('A' for Active; 'I' for Inactive)
REMARK    1  A    between atoms: C5_14  and  O1_2 
REMARK    2  A    between atoms: C6_15  and  O1_2 
REMARK    3  A    between atoms: C15_24  and  O4_5 
REMARK    4  A    between atoms: C3_12  and  N1_9 
REMARK       I    between atoms: C9_18  and  N1_9 
REMARK    5  A    between atoms: C1_10  and  C6_15 
REMARK    6  A    between atoms: C15_24  and  C4_13 
REMARK    7  A    between atoms: C8_17  and  C9_18 
ROOT
HETATM    1  S1  UNK     1      20.928  -7.680  34.781  1.00  0.00    -0.065 SA
HETATM    2  C1  UNK     1      20.344  -7.660  37.282  1.00  0.00     0.080 A 
HETATM    3  C2  UNK     1      20.820  -8.973  36.998  1.00  0.00    -0.020 A 
HETATM    4  C3  UNK     1      20.358  -6.883  36.169  1.00  0.00     0.094 A 
HETATM    5  C4  UNK     1      21.172  -9.120  35.675  1.00  0.00     0.089 A 
HETATM    6  C7  UNK     1      20.925 -10.055  38.009  1.00  0.00     0.051 C 
ENDROOT
BRANCH   4   7
HETATM    7  N1  UNK     1      19.982  -5.548  35.991  1.00  0.00    -0.316 N 
HETATM    8  C9  UNK     1      20.657  -4.437  36.476  1.00  0.00     0.262 C 
HETATM    9  O5  UNK     1      21.692  -4.396  37.139  1.00  0.00    -0.267 OA
HETATM   10  H2  UNK     1      19.119  -5.421  35.468  1.00  0.00     0.169 HD
BRANCH   8  11
HETATM   11  C8  UNK     1      19.987  -3.184  36.106  1.00  0.00     0.108 A 
HETATM   12  C11 UNK     1      19.280  -2.584  37.070  1.00  0.00     0.037 A 
HETATM   13  C10 UNK     1      18.579  -1.339  36.800  1.00  0.00    -0.001 A 
HETATM   14  C12 UNK     1      18.658  -0.786  35.525  1.00  0.00     0.089 A 
HETATM   15  C17 UNK     1      17.830  -0.678  37.777  1.00  0.00     0.014 A 
HETATM   16  O2  UNK     1      19.404  -1.422  34.515  1.00  0.00    -0.274 OA
HETATM   17  C18 UNK     1      18.010   0.405  35.201  1.00  0.00     0.038 A 
HETATM   18  C16 UNK     1      20.084  -2.614  34.743  1.00  0.00     0.304 A 
HETATM   19  O7  UNK     1      20.731  -3.162  33.856  1.00  0.00    -0.259 OA
HETATM   20  C20 UNK     1      17.264   1.057  36.181  1.00  0.00     0.003 A 
HETATM   21  C19 UNK     1      17.174   0.517  37.466  1.00  0.00     0.001 A 
ENDBRANCH   8  11
ENDBRANCH   4   7
BRANCH   2  22
HETATM   22  C6  UNK     1      19.900  -7.192  38.572  1.00  0.00     0.297 C 
HETATM   23  O3  UNK     1      18.739  -7.301  39.008  1.00  0.00    -0.259 OA
BRANCH  22  24
HETATM   24  O1  UNK     1      20.915  -6.603  39.284  1.00  0.00    -0.313 OA
BRANCH  24  25
HETATM   25  C5  UNK     1      22.215  -7.196  39.189  1.00  0.00     0.124 C 
HETATM   26  C13 UNK     1      22.391  -8.200  40.320  1.00  0.00     0.040 C 
HETATM   27  C14 UNK     1      23.269  -6.101  39.234  1.00  0.00     0.040 C 
ENDBRANCH  24  25
ENDBRANCH  22  24
ENDBRANCH   2  22
BRANCH   5  28
HETATM   28  C15 UNK     1      21.687 -10.268  34.997  1.00  0.00     0.300 C 
HETATM   29  O6  UNK     1      21.734 -10.417  33.754  1.00  0.00    -0.259 OA
BRANCH  28  30
HETATM   30  O4  UNK     1      22.144 -11.234  35.867  1.00  0.00    -0.322 OA
HETATM   31  C21 UNK     1      23.518 -11.624  35.771  1.00  0.00     0.213 C 
ENDBRANCH  28  30
ENDBRANCH   5  28
TORSDOF 7
ENDMDL
MODEL 8
REMARK VINA RESULT:      -7.5     15.245     19.334
REMARK  7 active torsions:
REMARK  status: ('A' for Active; 'I' for Inactive)
REMARK    1  A    between atoms: C5_14  and  O1_2 
REMARK    2  A    between atoms: C6_15  and  O1_2 
REMARK    3  A    between atoms: C15_24  and  O4_5 
REMARK    4  A    between atoms: C3_12  and  N1_9 
REMARK       I    between atoms: C9_18  and  N1_9 
REMARK    5  A    between atoms: C1_10  and  C6_15 
REMARK    6  A    between atoms: C15_24  and  C4_13 
REMARK    7  A    between atoms: C8_17  and  C9_18 
ROOT
HETATM    1  S1  UNK     1      18.318   4.315  33.630  1.00  0.00    -0.065 SA
HETATM    2  C1  UNK     1      18.551   2.745  31.610  1.00  0.00     0.080 A 
HETATM    3  C2  UNK     1      18.414   4.059  31.075  1.00  0.00    -0.020 A 
HETATM    4  C3  UNK     1      18.513   2.763  32.967  1.00  0.00     0.094 A 
HETATM    5  C4  UNK     1      18.279   5.008  32.064  1.00  0.00     0.089 A 
HETATM    6  C7  UNK     1      18.417   4.368  29.623  1.00  0.00     0.051 C 
ENDROOT
BRANCH   4   7
HETATM    7  N1  UNK     1      18.609   1.717  33.890  1.00  0.00    -0.316 N 
HETATM    8  C9  UNK     1      17.559   0.939  34.357  1.00  0.00     0.262 C 
HETATM    9  O5  UNK     1      16.366   1.005  34.065  1.00  0.00    -0.267 OA
HETATM   10  H2  UNK     1      19.548   1.554  34.243  1.00  0.00     0.169 HD
BRANCH   8  11
HETATM   11  C8  UNK     1      18.012  -0.071  35.321  1.00  0.00     0.108 A 
HETATM   12  C11 UNK     1      18.789  -1.045  34.835  1.00  0.00     0.037 A 
HETATM   13  C10 UNK     1      19.288  -2.093  35.713  1.00  0.00    -0.001 A 
HETATM   14  C12 UNK     1      18.942  -2.062  37.060  1.00  0.00     0.089 A 
HETATM   15  C17 UNK     1      20.102  -3.130  35.249  1.00  0.00     0.014 A 
HETATM   16  O2  UNK     1      18.124  -1.034  37.566  1.00  0.00    -0.274 OA
HETATM   17  C18 UNK     1      19.386  -3.036  37.954  1.00  0.00     0.038 A 
HETATM   18  C16 UNK     1      17.632  -0.018  36.751  1.00  0.00     0.304 A 
HETATM   19  O7  UNK     1      16.920   0.873  37.200  1.00  0.00    -0.259 OA
HETATM   20  C20 UNK     1      20.197  -4.066  37.482  1.00  0.00     0.003 A 
HETATM   21  C19 UNK     1      20.554  -4.113  36.133  1.00  0.00     0.001 A 
ENDBRANCH   8  11
ENDBRANCH   4   7
BRANCH   2  22
HETATM   22  C6  UNK     1      18.709   1.539  30.836  1.00  0.00     0.297 C 
HETATM   23  O3  UNK     1      17.996   1.214  29.869  1.00  0.00    -0.259 OA
BRANCH  22  24
HETATM   24  O1  UNK     1      19.755   0.771  31.286  1.00  0.00    -0.313 OA
BRANCH  24  25
HETATM   25  C5  UNK     1      19.948  -0.505  30.667  1.00  0.00     0.124 C 
HETATM   26  C13 UNK     1      20.603  -1.451  31.663  1.00  0.00     0.040 C 
HETATM   27  C14 UNK     1      20.789  -0.331  29.412  1.00  0.00     0.040 C 
ENDBRANCH  24  25
ENDBRANCH  22  24
ENDBRANCH   2  22
BRANCH   5  28
HETATM   28  C15 UNK     1      18.119   6.423  31.944  1.00  0.00     0.300 C 
HETATM   29  O6  UNK     1      17.162   7.000  31.377  1.00  0.00    -0.259 OA
BRANCH  28  30
HETATM   30  O4  UNK     1      19.151   7.123  32.530  1.00  0.00    -0.322 OA
HETATM   31  C21 UNK     1      18.817   8.110  33.511  1.00  0.00     0.213 C 
ENDBRANCH  28  30
ENDBRANCH   5  28
TORSDOF 7
ENDMDL
MODEL 9
REMARK VINA RESULT:      -7.5     14.540     19.182
REMARK  7 active torsions:
REMARK  status: ('A' for Active; 'I' for Inactive)
REMARK    1  A    between atoms: C5_14  and  O1_2 
REMARK    2  A    between atoms: C6_15  and  O1_2 
REMARK    3  A    between atoms: C15_24  and  O4_5 
REMARK    4  A    between atoms: C3_12  and  N1_9 
REMARK       I    between atoms: C9_18  and  N1_9 
REMARK    5  A    between atoms: C1_10  and  C6_15 
REMARK    6  A    between atoms: C15_24  and  C4_13 
REMARK    7  A    between atoms: C8_17  and  C9_18 
ROOT
HETATM    1  S1  UNK     1      16.139   6.544  31.787  1.00  0.00    -0.065 SA
HETATM    2  C1  UNK     1      18.335   6.768  33.102  1.00  0.00     0.080 A 
HETATM    3  C2  UNK     1      17.544   7.899  33.458  1.00  0.00    -0.020 A 
HETATM    4  C3  UNK     1      17.682   5.975  32.214  1.00  0.00     0.094 A 
HETATM    5  C4  UNK     1      16.326   7.901  32.815  1.00  0.00     0.089 A 
HETATM    6  C7  UNK     1      17.981   8.952  34.410  1.00  0.00     0.051 C 
ENDROOT
BRANCH   4   7
HETATM    7  N1  UNK     1      18.078   4.780  31.606  1.00  0.00    -0.316 N 
HETATM    8  C9  UNK     1      18.117   3.530  32.207  1.00  0.00     0.262 C 
HETATM    9  O5  UNK     1      17.819   3.224  33.361  1.00  0.00    -0.267 OA
HETATM   10  H2  UNK     1      18.375   4.879  30.639  1.00  0.00     0.169 HD
BRANCH   8  11
HETATM   11  C8  UNK     1      18.582   2.490  31.281  1.00  0.00     0.108 A 
HETATM   12  C11 UNK     1      18.915   1.316  31.828  1.00  0.00     0.037 A 
HETATM   13  C10 UNK     1      19.388   0.224  30.992  1.00  0.00    -0.001 A 
HETATM   14  C12 UNK     1      19.487   0.424  29.618  1.00  0.00     0.089 A 
HETATM   15  C17 UNK     1      19.747  -1.019  31.520  1.00  0.00     0.014 A 
HETATM   16  O2  UNK     1      19.135   1.662  29.048  1.00  0.00    -0.274 OA
HETATM   17  C18 UNK     1      19.934  -0.580  28.761  1.00  0.00     0.038 A 
HETATM   18  C16 UNK     1      18.679   2.725  29.822  1.00  0.00     0.304 A 
HETATM   19  O7  UNK     1      18.375   3.800  29.317  1.00  0.00    -0.259 OA
HETATM   20  C20 UNK     1      20.290  -1.816  29.297  1.00  0.00     0.003 A 
HETATM   21  C19 UNK     1      20.197  -2.035  30.673  1.00  0.00     0.001 A 
ENDBRANCH   8  11
ENDBRANCH   4   7
BRANCH   2  22
HETATM   22  C6  UNK     1      19.655   6.480  33.604  1.00  0.00     0.297 C 
HETATM   23  O3  UNK     1      19.901   5.982  34.718  1.00  0.00    -0.259 OA
BRANCH  22  24
HETATM   24  O1  UNK     1      20.634   6.820  32.703  1.00  0.00    -0.313 OA
BRANCH  24  25
HETATM   25  C5  UNK     1      21.231   5.760  31.949  1.00  0.00     0.124 C 
HETATM   26  C13 UNK     1      22.729   5.737  32.216  1.00  0.00     0.040 C 
HETATM   27  C14 UNK     1      20.921   5.959  30.474  1.00  0.00     0.040 C 
ENDBRANCH  24  25
ENDBRANCH  22  24
ENDBRANCH   2  22
BRANCH   5  28
HETATM   28  C15 UNK     1      15.260   8.848  32.899  1.00  0.00     0.300 C 
HETATM   29  O6  UNK     1      14.971   9.696  32.022  1.00  0.00    -0.259 OA
BRANCH  28  30
HETATM   30  O4  UNK     1      14.550   8.744  34.075  1.00  0.00    -0.322 OA
HETATM   31  C21 UNK     1      14.360   9.932  34.850  1.00  0.00     0.213 C 
ENDBRANCH  28  30
ENDBRANCH   5  28
TORSDOF 7
ENDMDL
MODEL 10
REMARK VINA RESULT:      -7.4     19.161     21.986
REMARK  7 active torsions:
REMARK  status: ('A' for Active; 'I' for Inactive)
REMARK    1  A    between atoms: C5_14  and  O1_2 
REMARK    2  A    between atoms: C6_15  and  O1_2 
REMARK    3  A    between atoms: C15_24  and  O4_5 
REMARK    4  A    between atoms: C3_12  and  N1_9 
REMARK       I    between atoms: C9_18  and  N1_9 
REMARK    5  A    between atoms: C1_10  and  C6_15 
REMARK    6  A    between atoms: C15_24  and  C4_13 
REMARK    7  A    between atoms: C8_17  and  C9_18 
ROOT
HETATM    1  S1  UNK     1      31.999  -8.902  32.275  1.00  0.00    -0.065 SA
HETATM    2  C1  UNK     1      30.485  -7.045  31.348  1.00  0.00     0.080 A 
HETATM    3  C2  UNK     1      31.488  -7.266  30.360  1.00  0.00    -0.020 A 
HETATM    4  C3  UNK     1      30.660  -7.865  32.416  1.00  0.00     0.094 A 
HETATM    5  C4  UNK     1      32.376  -8.250  30.737  1.00  0.00     0.089 A 
HETATM    6  C7  UNK     1      31.568  -6.524  29.076  1.00  0.00     0.051 C 
ENDROOT
BRANCH   4   7
HETATM    7  N1  UNK     1      29.920  -7.987  33.596  1.00  0.00    -0.316 N 
HETATM    8  C9  UNK     1      30.308  -7.546  34.853  1.00  0.00     0.262 C 
HETATM    9  O5  UNK     1      31.347  -6.974  35.180  1.00  0.00    -0.267 OA
HETATM   10  H2  UNK     1      29.030  -8.465  33.485  1.00  0.00     0.169 HD
BRANCH   8  11
HETATM   11  C8  UNK     1      29.291  -7.835  35.872  1.00  0.00     0.108 A 
HETATM   12  C11 UNK     1      29.666  -8.646  36.868  1.00  0.00     0.037 A 
HETATM   13  C10 UNK     1      28.729  -8.992  37.925  1.00  0.00    -0.001 A 
HETATM   14  C12 UNK     1      27.441  -8.467  37.880  1.00  0.00     0.089 A 
HETATM   15  C17 UNK     1      29.077  -9.834  38.985  1.00  0.00     0.014 A 
HETATM   16  O2  UNK     1      27.052  -7.614  36.829  1.00  0.00    -0.274 OA
HETATM   17  C18 UNK     1      26.494  -8.760  38.861  1.00  0.00     0.038 A 
HETATM   18  C16 UNK     1      27.926  -7.266  35.804  1.00  0.00     0.304 A 
HETATM   19  O7  UNK     1      27.579  -6.523  34.892  1.00  0.00    -0.259 OA
HETATM   20  C20 UNK     1      26.851  -9.600  39.913  1.00  0.00     0.003 A 
HETATM   21  C19 UNK     1      28.138 -10.136  39.975  1.00  0.00     0.001 A 
ENDBRANCH   8  11
ENDBRANCH   4   7
BRANCH   2  22
HETATM   22  C6  UNK     1      29.414  -6.084  31.251  1.00  0.00     0.297 C 
HETATM   23  O3  UNK     1      29.565  -4.871  31.018  1.00  0.00    -0.259 OA
BRANCH  22  24
HETATM   24  O1  UNK     1      28.184  -6.662  31.447  1.00  0.00    -0.313 OA
BRANCH  24  25
HETATM   25  C5  UNK     1      27.485  -7.129  30.288  1.00  0.00     0.124 C 
HETATM   26  C13 UNK     1      26.053  -6.614  30.326  1.00  0.00     0.040 C 
HETATM   27  C14 UNK     1      27.540  -8.648  30.248  1.00  0.00     0.040 C 
ENDBRANCH  24  25
ENDBRANCH  22  24
ENDBRANCH   2  22
BRANCH   5  28
HETATM   28  C15 UNK     1      33.511  -8.761  30.035  1.00  0.00     0.300 C 
HETATM   29  O6  UNK     1      33.563  -9.865  29.444  1.00  0.00    -0.259 OA
BRANCH  28  30
HETATM   30  O4  UNK     1      34.586  -7.899  30.068  1.00  0.00    -0.322 OA
HETATM   31  C21 UNK     1      35.137  -7.469  28.820  1.00  0.00     0.213 C 
ENDBRANCH  28  30
ENDBRANCH   5  28
TORSDOF 7
ENDMDL
