MODEL 1
REMARK VINA RESULT:      -9.3      0.000      0.000
REMARK  9 active torsions:
REMARK  status: ('A' for Active; 'I' for Inactive)
REMARK    1  A    between atoms: C5_14  and  S1_1 
REMARK    2  A    between atoms: N1_9  and  S1_1 
REMARK    3  A    between atoms: C4_13  and  O1_3 
REMARK    4  A    between atoms: C8_17  and  O1_3 
REMARK    5  A    between atoms: C1_10  and  N1_9 
REMARK    6  A    between atoms: C1_10  and  C2_11 
REMARK    7  A    between atoms: C1_10  and  C4_13 
REMARK    8  A    between atoms: C2_11  and  C3_12 
REMARK    9  A    between atoms: C19_28  and  C9_18 
ROOT
HETATM    1  O5  UNK     1      33.678 -12.209  29.673  1.00  0.00    -0.262 OA
HETATM    2  C4  UNK     1      33.159 -11.158  30.026  1.00  0.00     0.287 C 
ENDROOT
BRANCH   2   3
HETATM    3  C1  UNK     1      31.673 -10.942  30.230  1.00  0.00     0.197 C 
BRANCH   3   4
HETATM    4  N1  UNK     1      31.050 -11.139  28.897  1.00  0.00    -0.301 N 
HETATM    5  H4  UNK     1      31.157 -12.068  28.470  1.00  0.00     0.173 HD
BRANCH   4   6
HETATM    6  S1  UNK     1      30.753  -9.799  27.899  1.00  0.00     0.259 S 
HETATM    7  O3  UNK     1      30.084 -10.236  26.689  1.00  0.00    -0.201 OA
HETATM    8  O4  UNK     1      31.962  -9.001  27.817  1.00  0.00    -0.201 OA
BRANCH   6   9
HETATM    9  C5  UNK     1      29.591  -8.878  28.862  1.00  0.00     0.079 A 
HETATM   10  C15 UNK     1      28.397  -9.472  29.231  1.00  0.00     0.026 A 
HETATM   11  C21 UNK     1      27.480  -8.746  29.991  1.00  0.00     0.008 A 
HETATM   12  C20 UNK     1      27.771  -7.434  30.368  1.00  0.00    -0.062 A 
HETATM   13  C22 UNK     1      28.979  -6.851  29.986  1.00  0.00     0.008 A 
HETATM   14  C29 UNK     1      26.790  -6.657  31.179  1.00  0.00     0.048 C 
HETATM   15  C16 UNK     1      29.896  -7.577  29.227  1.00  0.00     0.026 A 
ENDBRANCH   6   9
ENDBRANCH   4   6
ENDBRANCH   3   4
BRANCH   3  16
HETATM   16  C2  UNK     1      31.078 -11.958  31.208  1.00  0.00     0.074 C 
BRANCH  16  17
HETATM   17  C3  UNK     1      30.615 -11.342  32.505  1.00  0.00    -0.056 A 
HETATM   18  C10 UNK     1      29.456 -10.582  32.522  1.00  0.00     0.007 A 
HETATM   19  C23 UNK     1      29.028 -10.012  33.721  1.00  0.00     0.001 A 
HETATM   20  C25 UNK     1      29.766 -10.209  34.888  1.00  0.00     0.000 A 
HETATM   21  C24 UNK     1      30.930 -10.976  34.857  1.00  0.00     0.001 A 
HETATM   22  C11 UNK     1      31.358 -11.546  33.658  1.00  0.00     0.007 A 
ENDBRANCH  16  17
ENDBRANCH   3  16
ENDBRANCH   2   3
BRANCH   2  23
HETATM   23  O1  UNK     1      33.856  -9.962  30.287  1.00  0.00    -0.277 OA
BRANCH  23  24
HETATM   24  C8  UNK     1      33.533  -9.366  31.466  1.00  0.00     0.082 A 
HETATM   25  C13 UNK     1      32.377  -8.592  31.563  1.00  0.00     0.075 A 
HETATM   26  C7  UNK     1      32.047  -7.981  32.773  1.00  0.00     0.092 A 
HETATM   27  C6  UNK     1      32.870  -8.144  33.881  1.00  0.00     0.049 A 
HETATM   28  O2  UNK     1      30.901  -7.234  32.804  1.00  0.00    -0.313 OA
HETATM   29  C12 UNK     1      32.499  -7.491  35.142  1.00  0.00     0.198 A 
HETATM   30  C17 UNK     1      34.031  -8.920  33.791  1.00  0.00     0.021 A 
HETATM   31  O6  UNK     1      33.192  -7.604  36.146  1.00  0.00    -0.286 OA
HETATM   32  C9  UNK     1      31.241  -6.689  35.136  1.00  0.00     0.054 A 
HETATM   33  C14 UNK     1      30.533  -6.611  33.990  1.00  0.00     0.065 A 
HETATM   34  C26 UNK     1      29.250  -5.842  33.827  1.00  0.00     0.077 C 
HETATM   35  C18 UNK     1      34.358  -9.530  32.579  1.00  0.00     0.038 A 
BRANCH  32  36
HETATM   36  C19 UNK     1      30.817  -6.019  36.358  1.00  0.00    -0.019 A 
HETATM   37  C27 UNK     1      31.192  -4.697  36.591  1.00  0.00     0.015 A 
HETATM   38  C30 UNK     1      30.786  -4.055  37.762  1.00  0.00     0.043 A 
HETATM   39  C32 UNK     1      30.006  -4.737  38.696  1.00  0.00     0.116 A 
HETATM   40  C31 UNK     1      29.633  -6.059  38.461  1.00  0.00     0.043 A 
HETATM   41  F1  UNK     1      29.617  -4.122  39.821  1.00  0.00    -0.206 F 
HETATM   42  C28 UNK     1      30.039  -6.701  37.291  1.00  0.00     0.015 A 
ENDBRANCH  32  36
ENDBRANCH  23  24
ENDBRANCH   2  23
TORSDOF 9
ENDMDL
MODEL 2
REMARK VINA RESULT:      -9.1      0.837      2.071
REMARK  9 active torsions:
REMARK  status: ('A' for Active; 'I' for Inactive)
REMARK    1  A    between atoms: C5_14  and  S1_1 
REMARK    2  A    between atoms: N1_9  and  S1_1 
REMARK    3  A    between atoms: C4_13  and  O1_3 
REMARK    4  A    between atoms: C8_17  and  O1_3 
REMARK    5  A    between atoms: C1_10  and  N1_9 
REMARK    6  A    between atoms: C1_10  and  C2_11 
REMARK    7  A    between atoms: C1_10  and  C4_13 
REMARK    8  A    between atoms: C2_11  and  C3_12 
REMARK    9  A    between atoms: C19_28  and  C9_18 
ROOT
HETATM    1  O5  UNK     1      33.723 -11.858  30.104  1.00  0.00    -0.262 OA
HETATM    2  C4  UNK     1      33.148 -10.797  30.308  1.00  0.00     0.287 C 
ENDROOT
BRANCH   2   3
HETATM    3  C1  UNK     1      31.645 -10.611  30.348  1.00  0.00     0.197 C 
BRANCH   3   4
HETATM    4  N1  UNK     1      31.159 -10.950  28.987  1.00  0.00    -0.301 N 
HETATM    5  H4  UNK     1      31.421 -11.875  28.622  1.00  0.00     0.173 HD
BRANCH   4   6
HETATM    6  S1  UNK     1      30.768  -9.710  27.897  1.00  0.00     0.259 S 
HETATM    7  O3  UNK     1      30.180 -10.285  26.703  1.00  0.00    -0.201 OA
HETATM    8  O4  UNK     1      31.899  -8.807  27.792  1.00  0.00    -0.201 OA
BRANCH   6   9
HETATM    9  C5  UNK     1      29.496  -8.846  28.769  1.00  0.00     0.079 A 
HETATM   10  C15 UNK     1      29.717  -7.539  29.166  1.00  0.00     0.026 A 
HETATM   11  C21 UNK     1      28.714  -6.856  29.854  1.00  0.00     0.008 A 
HETATM   12  C20 UNK     1      27.504  -7.493  30.136  1.00  0.00    -0.062 A 
HETATM   13  C22 UNK     1      27.299  -8.811  29.729  1.00  0.00     0.008 A 
HETATM   14  C29 UNK     1      26.433  -6.764  30.873  1.00  0.00     0.048 C 
HETATM   15  C16 UNK     1      28.303  -9.493  29.041  1.00  0.00     0.026 A 
ENDBRANCH   6   9
ENDBRANCH   4   6
ENDBRANCH   3   4
BRANCH   3  16
HETATM   16  C2  UNK     1      30.980 -11.549  31.358  1.00  0.00     0.074 C 
BRANCH  16  17
HETATM   17  C3  UNK     1      30.394 -10.831  32.549  1.00  0.00    -0.056 A 
HETATM   18  C10 UNK     1      30.790 -11.197  33.826  1.00  0.00     0.007 A 
HETATM   19  C23 UNK     1      30.248 -10.534  34.927  1.00  0.00     0.001 A 
HETATM   20  C25 UNK     1      29.317  -9.513  34.736  1.00  0.00     0.000 A 
HETATM   21  C24 UNK     1      28.927  -9.155  33.446  1.00  0.00     0.001 A 
HETATM   22  C11 UNK     1      29.470  -9.819  32.345  1.00  0.00     0.007 A 
ENDBRANCH  16  17
ENDBRANCH   3  16
ENDBRANCH   2   3
BRANCH   2  23
HETATM   23  O1  UNK     1      33.789  -9.561  30.522  1.00  0.00    -0.277 OA
BRANCH  23  24
HETATM   24  C8  UNK     1      33.196  -8.773  31.458  1.00  0.00     0.082 A 
HETATM   25  C13 UNK     1      33.411  -9.017  32.815  1.00  0.00     0.075 A 
HETATM   26  C7  UNK     1      32.801  -8.207  33.774  1.00  0.00     0.092 A 
HETATM   27  C6  UNK     1      31.980  -7.159  33.377  1.00  0.00     0.049 A 
HETATM   28  O2  UNK     1      33.051  -8.498  35.088  1.00  0.00    -0.313 OA
HETATM   29  C12 UNK     1      31.351  -6.322  34.407  1.00  0.00     0.198 A 
HETATM   30  C17 UNK     1      31.760  -6.908  32.018  1.00  0.00     0.021 A 
HETATM   31  O6  UNK     1      30.619  -5.387  34.108  1.00  0.00    -0.286 OA
HETATM   32  C9  UNK     1      31.652  -6.669  35.826  1.00  0.00     0.054 A 
HETATM   33  C14 UNK     1      32.467  -7.716  36.075  1.00  0.00     0.065 A 
HETATM   34  C26 UNK     1      32.861  -8.186  37.449  1.00  0.00     0.077 C 
HETATM   35  C18 UNK     1      32.371  -7.720  31.062  1.00  0.00     0.038 A 
BRANCH  32  36
HETATM   36  C19 UNK     1      31.061  -5.874  36.895  1.00  0.00    -0.019 A 
HETATM   37  C27 UNK     1      29.868  -6.285  37.487  1.00  0.00     0.015 A 
HETATM   38  C30 UNK     1      29.301  -5.523  38.510  1.00  0.00     0.043 A 
HETATM   39  C32 UNK     1      29.930  -4.353  38.938  1.00  0.00     0.116 A 
HETATM   40  C31 UNK     1      31.123  -3.945  38.345  1.00  0.00     0.043 A 
HETATM   41  F1  UNK     1      29.386  -3.621  39.920  1.00  0.00    -0.206 F 
HETATM   42  C28 UNK     1      31.689  -4.706  37.321  1.00  0.00     0.015 A 
ENDBRANCH  32  36
ENDBRANCH  23  24
ENDBRANCH   2  23
TORSDOF 9
ENDMDL
MODEL 3
REMARK VINA RESULT:      -8.9      2.792      4.102
REMARK  9 active torsions:
REMARK  status: ('A' for Active; 'I' for Inactive)
REMARK    1  A    between atoms: C5_14  and  S1_1 
REMARK    2  A    between atoms: N1_9  and  S1_1 
REMARK    3  A    between atoms: C4_13  and  O1_3 
REMARK    4  A    between atoms: C8_17  and  O1_3 
REMARK    5  A    between atoms: C1_10  and  N1_9 
REMARK    6  A    between atoms: C1_10  and  C2_11 
REMARK    7  A    between atoms: C1_10  and  C4_13 
REMARK    8  A    between atoms: C2_11  and  C3_12 
REMARK    9  A    between atoms: C19_28  and  C9_18 
ROOT
HETATM    1  O5  UNK     1      36.639  -9.152  33.064  1.00  0.00    -0.262 OA
HETATM    2  C4  UNK     1      35.707  -8.454  32.685  1.00  0.00     0.287 C 
ENDROOT
BRANCH   2   3
HETATM    3  C1  UNK     1      34.803  -8.765  31.509  1.00  0.00     0.197 C 
BRANCH   3   4
HETATM    4  N1  UNK     1      35.629  -8.545  30.296  1.00  0.00    -0.301 N 
HETATM    5  H4  UNK     1      36.618  -8.822  30.354  1.00  0.00     0.173 HD
BRANCH   4   6
HETATM    6  S1  UNK     1      35.164  -7.374  29.159  1.00  0.00     0.259 S 
HETATM    7  O3  UNK     1      35.637  -7.761  27.844  1.00  0.00    -0.201 OA
HETATM    8  O4  UNK     1      35.477  -6.059  29.689  1.00  0.00    -0.201 OA
BRANCH   6   9
HETATM    9  C5  UNK     1      33.404  -7.531  29.173  1.00  0.00     0.079 A 
HETATM   10  C15 UNK     1      32.647  -6.591  29.850  1.00  0.00     0.026 A 
HETATM   11  C21 UNK     1      31.257  -6.715  29.861  1.00  0.00     0.008 A 
HETATM   12  C20 UNK     1      30.646  -7.778  29.195  1.00  0.00    -0.062 A 
HETATM   13  C22 UNK     1      31.425  -8.716  28.518  1.00  0.00     0.008 A 
HETATM   14  C29 UNK     1      29.161  -7.911  29.208  1.00  0.00     0.048 C 
HETATM   15  C16 UNK     1      32.815  -8.592  28.507  1.00  0.00     0.026 A 
ENDBRANCH   6   9
ENDBRANCH   4   6
ENDBRANCH   3   4
BRANCH   3  16
HETATM   16  C2  UNK     1      34.326 -10.219  31.525  1.00  0.00     0.074 C 
BRANCH  16  17
HETATM   17  C3  UNK     1      33.053 -10.424  32.307  1.00  0.00    -0.056 A 
HETATM   18  C10 UNK     1      33.026 -11.356  33.332  1.00  0.00     0.007 A 
HETATM   19  C23 UNK     1      31.849 -11.546  34.055  1.00  0.00     0.001 A 
HETATM   20  C25 UNK     1      30.712 -10.801  33.743  1.00  0.00     0.000 A 
HETATM   21  C24 UNK     1      30.752  -9.867  32.708  1.00  0.00     0.001 A 
HETATM   22  C11 UNK     1      31.930  -9.677  31.985  1.00  0.00     0.007 A 
ENDBRANCH  16  17
ENDBRANCH   3  16
ENDBRANCH   2   3
BRANCH   2  23
HETATM   23  O1  UNK     1      35.328  -7.230  33.269  1.00  0.00    -0.277 OA
BRANCH  23  24
HETATM   24  C8  UNK     1      34.104  -7.242  33.861  1.00  0.00     0.082 A 
HETATM   25  C13 UNK     1      33.839  -8.137  34.898  1.00  0.00     0.075 A 
HETATM   26  C7  UNK     1      32.582  -8.148  35.503  1.00  0.00     0.092 A 
HETATM   27  C6  UNK     1      31.595  -7.269  35.074  1.00  0.00     0.049 A 
HETATM   28  O2  UNK     1      32.384  -9.050  36.514  1.00  0.00    -0.313 OA
HETATM   29  C12 UNK     1      30.282  -7.303  35.729  1.00  0.00     0.198 A 
HETATM   30  C17 UNK     1      31.855  -6.369  34.034  1.00  0.00     0.021 A 
HETATM   31  O6  UNK     1      29.380  -6.548  35.386  1.00  0.00    -0.286 OA
HETATM   32  C9  UNK     1      30.107  -8.295  36.828  1.00  0.00     0.054 A 
HETATM   33  C14 UNK     1      31.148  -9.093  37.147  1.00  0.00     0.065 A 
HETATM   34  C26 UNK     1      31.125 -10.140  38.228  1.00  0.00     0.077 C 
HETATM   35  C18 UNK     1      33.112  -6.360  33.430  1.00  0.00     0.038 A 
BRANCH  32  36
HETATM   36  C19 UNK     1      28.827  -8.375  37.521  1.00  0.00    -0.019 A 
HETATM   37  C27 UNK     1      28.618  -7.633  38.681  1.00  0.00     0.015 A 
HETATM   38  C30 UNK     1      27.392  -7.710  39.344  1.00  0.00     0.043 A 
HETATM   39  C32 UNK     1      26.380  -8.530  38.844  1.00  0.00     0.116 A 
HETATM   40  C31 UNK     1      26.592  -9.272  37.683  1.00  0.00     0.043 A 
HETATM   41  F1  UNK     1      25.203  -8.606  39.481  1.00  0.00    -0.206 F 
HETATM   42  C28 UNK     1      27.817  -9.195  37.021  1.00  0.00     0.015 A 
ENDBRANCH  32  36
ENDBRANCH  23  24
ENDBRANCH   2  23
TORSDOF 9
ENDMDL
MODEL 4
REMARK VINA RESULT:      -8.7      6.169      9.624
REMARK  9 active torsions:
REMARK  status: ('A' for Active; 'I' for Inactive)
REMARK    1  A    between atoms: C5_14  and  S1_1 
REMARK    2  A    between atoms: N1_9  and  S1_1 
REMARK    3  A    between atoms: C4_13  and  O1_3 
REMARK    4  A    between atoms: C8_17  and  O1_3 
REMARK    5  A    between atoms: C1_10  and  N1_9 
REMARK    6  A    between atoms: C1_10  and  C2_11 
REMARK    7  A    between atoms: C1_10  and  C4_13 
REMARK    8  A    between atoms: C2_11  and  C3_12 
REMARK    9  A    between atoms: C19_28  and  C9_18 
ROOT
HETATM    1  O5  UNK     1      28.431  -6.882  39.493  1.00  0.00    -0.262 OA
HETATM    2  C4  UNK     1      28.710  -7.764  38.691  1.00  0.00     0.287 C 
ENDROOT
BRANCH   2   3
HETATM    3  C1  UNK     1      29.735  -7.645  37.581  1.00  0.00     0.197 C 
BRANCH   3   4
HETATM    4  N1  UNK     1      29.811  -8.988  36.955  1.00  0.00    -0.301 N 
HETATM    5  H4  UNK     1      28.918  -9.466  36.778  1.00  0.00     0.173 HD
BRANCH   4   6
HETATM    6  S1  UNK     1      31.227  -9.911  37.108  1.00  0.00     0.259 S 
HETATM    7  O3  UNK     1      31.303 -10.864  36.017  1.00  0.00    -0.201 OA
HETATM    8  O4  UNK     1      31.343 -10.364  38.481  1.00  0.00    -0.201 OA
BRANCH   6   9
HETATM    9  C5  UNK     1      32.485  -8.694  36.857  1.00  0.00     0.079 A 
HETATM   10  C15 UNK     1      33.054  -8.559  35.604  1.00  0.00     0.026 A 
HETATM   11  C21 UNK     1      34.046  -7.598  35.406  1.00  0.00     0.008 A 
HETATM   12  C20 UNK     1      34.455  -6.789  36.467  1.00  0.00    -0.062 A 
HETATM   13  C22 UNK     1      33.870  -6.940  37.724  1.00  0.00     0.008 A 
HETATM   14  C29 UNK     1      35.517  -5.764  36.256  1.00  0.00     0.048 C 
HETATM   15  C16 UNK     1      32.878  -7.900  37.921  1.00  0.00     0.026 A 
ENDBRANCH   6   9
ENDBRANCH   4   6
ENDBRANCH   3   4
BRANCH   3  16
HETATM   16  C2  UNK     1      29.310  -6.628  36.519  1.00  0.00     0.074 C 
BRANCH  16  17
HETATM   17  C3  UNK     1      30.413  -5.679  36.122  1.00  0.00    -0.056 A 
HETATM   18  C10 UNK     1      30.902  -4.776  37.054  1.00  0.00     0.007 A 
HETATM   19  C23 UNK     1      31.922  -3.898  36.688  1.00  0.00     0.001 A 
HETATM   20  C25 UNK     1      32.440  -3.933  35.393  1.00  0.00     0.000 A 
HETATM   21  C24 UNK     1      31.939  -4.846  34.465  1.00  0.00     0.001 A 
HETATM   22  C11 UNK     1      30.919  -5.725  34.832  1.00  0.00     0.007 A 
ENDBRANCH  16  17
ENDBRANCH   3  16
ENDBRANCH   2   3
BRANCH   2  23
HETATM   23  O1  UNK     1      28.110  -9.038  38.653  1.00  0.00    -0.277 OA
BRANCH  23  24
HETATM   24  C8  UNK     1      26.849  -9.053  38.143  1.00  0.00     0.082 A 
HETATM   25  C13 UNK     1      25.900  -8.139  38.602  1.00  0.00     0.075 A 
HETATM   26  C7  UNK     1      24.607  -8.156  38.078  1.00  0.00     0.092 A 
HETATM   27  C6  UNK     1      24.266  -9.082  37.100  1.00  0.00     0.049 A 
HETATM   28  O2  UNK     1      23.721  -7.235  38.570  1.00  0.00    -0.313 OA
HETATM   29  C12 UNK     1      22.898  -9.076  36.566  1.00  0.00     0.198 A 
HETATM   30  C17 UNK     1      25.213 -10.000  36.635  1.00  0.00     0.021 A 
HETATM   31  O6  UNK     1      22.549  -9.872  35.703  1.00  0.00    -0.286 OA
HETATM   32  C9  UNK     1      21.965  -8.056  37.124  1.00  0.00     0.054 A 
HETATM   33  C14 UNK     1      22.424  -7.214  38.074  1.00  0.00     0.065 A 
HETATM   34  C26 UNK     1      21.606  -6.137  38.732  1.00  0.00     0.077 C 
HETATM   35  C18 UNK     1      26.505  -9.981  37.160  1.00  0.00     0.038 A 
BRANCH  32  36
HETATM   36  C19 UNK     1      20.594  -7.997  36.633  1.00  0.00    -0.019 A 
HETATM   37  C27 UNK     1      19.609  -8.783  37.228  1.00  0.00     0.015 A 
HETATM   38  C30 UNK     1      18.297  -8.728  36.756  1.00  0.00     0.043 A 
HETATM   39  C32 UNK     1      17.974  -7.886  35.691  1.00  0.00     0.116 A 
HETATM   40  C31 UNK     1      18.961  -7.101  35.098  1.00  0.00     0.043 A 
HETATM   41  F1  UNK     1      16.714  -7.834  35.238  1.00  0.00    -0.206 F 
HETATM   42  C28 UNK     1      20.273  -7.157  35.569  1.00  0.00     0.015 A 
ENDBRANCH  32  36
ENDBRANCH  23  24
ENDBRANCH   2  23
TORSDOF 9
ENDMDL
MODEL 5
REMARK VINA RESULT:      -8.6      1.913      4.663
REMARK  9 active torsions:
REMARK  status: ('A' for Active; 'I' for Inactive)
REMARK    1  A    between atoms: C5_14  and  S1_1 
REMARK    2  A    between atoms: N1_9  and  S1_1 
REMARK    3  A    between atoms: C4_13  and  O1_3 
REMARK    4  A    between atoms: C8_17  and  O1_3 
REMARK    5  A    between atoms: C1_10  and  N1_9 
REMARK    6  A    between atoms: C1_10  and  C2_11 
REMARK    7  A    between atoms: C1_10  and  C4_13 
REMARK    8  A    between atoms: C2_11  and  C3_12 
REMARK    9  A    between atoms: C19_28  and  C9_18 
ROOT
HETATM    1  O5  UNK     1      29.923 -11.763  29.333  1.00  0.00    -0.262 OA
HETATM    2  C4  UNK     1      30.462 -11.340  30.348  1.00  0.00     0.287 C 
ENDROOT
BRANCH   2   3
HETATM    3  C1  UNK     1      31.598 -10.338  30.382  1.00  0.00     0.197 C 
BRANCH   3   4
HETATM    4  N1  UNK     1      32.790 -11.063  29.875  1.00  0.00    -0.301 N 
HETATM    5  H4  UNK     1      32.666 -11.610  29.013  1.00  0.00     0.173 HD
BRANCH   4   6
HETATM    6  S1  UNK     1      34.045 -11.473  30.941  1.00  0.00     0.259 S 
HETATM    7  O3  UNK     1      35.210 -11.883  30.181  1.00  0.00    -0.201 OA
HETATM    8  O4  UNK     1      33.512 -12.333  31.981  1.00  0.00    -0.201 OA
BRANCH   6   9
HETATM    9  C5  UNK     1      34.407  -9.915  31.695  1.00  0.00     0.079 A 
HETATM   10  C15 UNK     1      34.129  -9.734  33.038  1.00  0.00     0.026 A 
HETATM   11  C21 UNK     1      34.415  -8.505  33.633  1.00  0.00     0.008 A 
HETATM   12  C20 UNK     1      34.973  -7.476  32.874  1.00  0.00    -0.062 A 
HETATM   13  C22 UNK     1      35.245  -7.676  31.521  1.00  0.00     0.008 A 
HETATM   14  C29 UNK     1      35.277  -6.161  33.510  1.00  0.00     0.048 C 
HETATM   15  C16 UNK     1      34.960  -8.905  30.927  1.00  0.00     0.026 A 
ENDBRANCH   6   9
ENDBRANCH   4   6
ENDBRANCH   3   4
BRANCH   3  16
HETATM   16  C2  UNK     1      31.327  -9.137  29.473  1.00  0.00     0.074 C 
BRANCH  16  17
HETATM   17  C3  UNK     1      30.832  -7.922  30.218  1.00  0.00    -0.056 A 
HETATM   18  C10 UNK     1      31.536  -7.467  31.322  1.00  0.00     0.007 A 
HETATM   19  C23 UNK     1      31.079  -6.344  32.011  1.00  0.00     0.001 A 
HETATM   20  C25 UNK     1      29.922  -5.690  31.587  1.00  0.00     0.000 A 
HETATM   21  C24 UNK     1      29.223  -6.158  30.475  1.00  0.00     0.001 A 
HETATM   22  C11 UNK     1      29.681  -7.281  29.786  1.00  0.00     0.007 A 
ENDBRANCH  16  17
ENDBRANCH   3  16
ENDBRANCH   2   3
BRANCH   2  23
HETATM   23  O1  UNK     1      30.128 -11.729  31.660  1.00  0.00    -0.277 OA
BRANCH  23  24
HETATM   24  C8  UNK     1      29.888 -10.696  32.511  1.00  0.00     0.082 A 
HETATM   25  C13 UNK     1      30.753 -10.458  33.580  1.00  0.00     0.075 A 
HETATM   26  C7  UNK     1      30.506  -9.397  34.452  1.00  0.00     0.092 A 
HETATM   27  C6  UNK     1      29.399  -8.580  34.257  1.00  0.00     0.049 A 
HETATM   28  O2  UNK     1      31.391  -9.216  35.481  1.00  0.00    -0.313 OA
HETATM   29  C12 UNK     1      29.164  -7.471  35.190  1.00  0.00     0.198 A 
HETATM   30  C17 UNK     1      28.529  -8.814  33.187  1.00  0.00     0.021 A 
HETATM   31  O6  UNK     1      28.203  -6.724  35.060  1.00  0.00    -0.286 OA
HETATM   32  C9  UNK     1      30.152  -7.304  36.295  1.00  0.00     0.054 A 
HETATM   33  C14 UNK     1      31.185  -8.170  36.372  1.00  0.00     0.065 A 
HETATM   34  C26 UNK     1      32.257  -8.131  37.426  1.00  0.00     0.077 C 
HETATM   35  C18 UNK     1      28.778  -9.875  32.316  1.00  0.00     0.038 A 
BRANCH  32  36
HETATM   36  C19 UNK     1      29.975  -6.220  37.252  1.00  0.00    -0.019 A 
HETATM   37  C27 UNK     1      29.214  -6.426  38.401  1.00  0.00     0.015 A 
HETATM   38  C30 UNK     1      29.044  -5.387  39.318  1.00  0.00     0.043 A 
HETATM   39  C32 UNK     1      29.636  -4.146  39.082  1.00  0.00     0.116 A 
HETATM   40  C31 UNK     1      30.396  -3.943  37.932  1.00  0.00     0.043 A 
HETATM   41  F1  UNK     1      29.472  -3.148  39.961  1.00  0.00    -0.206 F 
HETATM   42  C28 UNK     1      30.566  -4.981  37.015  1.00  0.00     0.015 A 
ENDBRANCH  32  36
ENDBRANCH  23  24
ENDBRANCH   2  23
TORSDOF 9
ENDMDL
MODEL 6
REMARK VINA RESULT:      -8.6      6.167      9.042
REMARK  9 active torsions:
REMARK  status: ('A' for Active; 'I' for Inactive)
REMARK    1  A    between atoms: C5_14  and  S1_1 
REMARK    2  A    between atoms: N1_9  and  S1_1 
REMARK    3  A    between atoms: C4_13  and  O1_3 
REMARK    4  A    between atoms: C8_17  and  O1_3 
REMARK    5  A    between atoms: C1_10  and  N1_9 
REMARK    6  A    between atoms: C1_10  and  C2_11 
REMARK    7  A    between atoms: C1_10  and  C4_13 
REMARK    8  A    between atoms: C2_11  and  C3_12 
REMARK    9  A    between atoms: C19_28  and  C9_18 
ROOT
HETATM    1  O5  UNK     1      28.555  -6.767  39.453  1.00  0.00    -0.262 OA
HETATM    2  C4  UNK     1      28.822  -7.763  38.793  1.00  0.00     0.287 C 
ENDROOT
BRANCH   2   3
HETATM    3  C1  UNK     1      29.900  -7.845  37.731  1.00  0.00     0.197 C 
BRANCH   3   4
HETATM    4  N1  UNK     1      30.973  -6.920  38.173  1.00  0.00    -0.301 N 
HETATM    5  H4  UNK     1      31.203  -6.924  39.175  1.00  0.00     0.173 HD
BRANCH   4   6
HETATM    6  S1  UNK     1      31.334  -5.544  37.247  1.00  0.00     0.259 S 
HETATM    7  O3  UNK     1      32.581  -4.965  37.707  1.00  0.00    -0.201 OA
HETATM    8  O4  UNK     1      30.141  -4.722  37.149  1.00  0.00    -0.201 OA
BRANCH   6   9
HETATM    9  C5  UNK     1      31.613  -6.242  35.648  1.00  0.00     0.079 A 
HETATM   10  C15 UNK     1      30.669  -6.055  34.654  1.00  0.00     0.026 A 
HETATM   11  C21 UNK     1      30.890  -6.606  33.392  1.00  0.00     0.008 A 
HETATM   12  C20 UNK     1      32.052  -7.337  33.144  1.00  0.00    -0.062 A 
HETATM   13  C22 UNK     1      32.992  -7.517  34.158  1.00  0.00     0.008 A 
HETATM   14  C29 UNK     1      32.287  -7.928  31.795  1.00  0.00     0.048 C 
HETATM   15  C16 UNK     1      32.772  -6.965  35.420  1.00  0.00     0.026 A 
ENDBRANCH   6   9
ENDBRANCH   4   6
ENDBRANCH   3   4
BRANCH   3  16
HETATM   16  C2  UNK     1      30.481  -9.256  37.616  1.00  0.00     0.074 C 
BRANCH  16  17
HETATM   17  C3  UNK     1      30.504  -9.782  36.202  1.00  0.00    -0.056 A 
HETATM   18  C10 UNK     1      29.445  -9.496  35.353  1.00  0.00     0.007 A 
HETATM   19  C23 UNK     1      29.466  -9.982  34.046  1.00  0.00     0.001 A 
HETATM   20  C25 UNK     1      30.545 -10.748  33.604  1.00  0.00     0.000 A 
HETATM   21  C24 UNK     1      31.602 -11.028  34.469  1.00  0.00     0.001 A 
HETATM   22  C11 UNK     1      31.582 -10.542  35.776  1.00  0.00     0.007 A 
ENDBRANCH  16  17
ENDBRANCH   3  16
ENDBRANCH   2   3
BRANCH   2  23
HETATM   23  O1  UNK     1      28.157  -9.001  38.897  1.00  0.00    -0.277 OA
BRANCH  23  24
HETATM   24  C8  UNK     1      26.911  -9.020  38.351  1.00  0.00     0.082 A 
HETATM   25  C13 UNK     1      25.937  -8.130  38.806  1.00  0.00     0.075 A 
HETATM   26  C7  UNK     1      24.660  -8.151  38.245  1.00  0.00     0.092 A 
HETATM   27  C6  UNK     1      24.359  -9.058  37.235  1.00  0.00     0.049 A 
HETATM   28  O2  UNK     1      23.748  -7.255  38.734  1.00  0.00    -0.313 OA
HETATM   29  C12 UNK     1      23.006  -9.058  36.663  1.00  0.00     0.198 A 
HETATM   30  C17 UNK     1      25.331  -9.952  36.775  1.00  0.00     0.021 A 
HETATM   31  O6  UNK     1      22.693  -9.837  35.772  1.00  0.00    -0.286 OA
HETATM   32  C9  UNK     1      22.044  -8.063  37.220  1.00  0.00     0.054 A 
HETATM   33  C14 UNK     1      22.465  -7.239  38.202  1.00  0.00     0.065 A 
HETATM   34  C26 UNK     1      21.613  -6.189  38.862  1.00  0.00     0.077 C 
HETATM   35  C18 UNK     1      26.608  -9.929  37.338  1.00  0.00     0.038 A 
BRANCH  32  36
HETATM   36  C19 UNK     1      20.687  -8.011  36.691  1.00  0.00    -0.019 A 
HETATM   37  C27 UNK     1      19.696  -8.824  37.239  1.00  0.00     0.015 A 
HETATM   38  C30 UNK     1      18.397  -8.775  36.732  1.00  0.00     0.043 A 
HETATM   39  C32 UNK     1      18.092  -7.913  35.679  1.00  0.00     0.116 A 
HETATM   40  C31 UNK     1      19.085  -7.100  35.133  1.00  0.00     0.043 A 
HETATM   41  F1  UNK     1      16.845  -7.865  35.191  1.00  0.00    -0.206 F 
HETATM   42  C28 UNK     1      20.384  -7.150  35.639  1.00  0.00     0.015 A 
ENDBRANCH  32  36
ENDBRANCH  23  24
ENDBRANCH   2  23
TORSDOF 9
ENDMDL
MODEL 7
REMARK VINA RESULT:      -8.6      1.793      3.099
REMARK  9 active torsions:
REMARK  status: ('A' for Active; 'I' for Inactive)
REMARK    1  A    between atoms: C5_14  and  S1_1 
REMARK    2  A    between atoms: N1_9  and  S1_1 
REMARK    3  A    between atoms: C4_13  and  O1_3 
REMARK    4  A    between atoms: C8_17  and  O1_3 
REMARK    5  A    between atoms: C1_10  and  N1_9 
REMARK    6  A    between atoms: C1_10  and  C2_11 
REMARK    7  A    between atoms: C1_10  and  C4_13 
REMARK    8  A    between atoms: C2_11  and  C3_12 
REMARK    9  A    between atoms: C19_28  and  C9_18 
ROOT
HETATM    1  O5  UNK     1      33.846 -12.191  30.679  1.00  0.00    -0.262 OA
HETATM    2  C4  UNK     1      32.840 -11.675  31.150  1.00  0.00     0.287 C 
ENDROOT
BRANCH   2   3
HETATM    3  C1  UNK     1      32.051 -10.552  30.507  1.00  0.00     0.197 C 
BRANCH   3   4
HETATM    4  N1  UNK     1      32.968  -9.927  29.522  1.00  0.00    -0.301 N 
HETATM    5  H4  UNK     1      33.387 -10.552  28.821  1.00  0.00     0.173 HD
BRANCH   4   6
HETATM    6  S1  UNK     1      33.747  -8.468  29.901  1.00  0.00     0.259 S 
HETATM    7  O3  UNK     1      34.257  -7.862  28.686  1.00  0.00    -0.201 OA
HETATM    8  O4  UNK     1      34.630  -8.691  31.031  1.00  0.00    -0.201 OA
BRANCH   6   9
HETATM    9  C5  UNK     1      32.404  -7.477  30.483  1.00  0.00     0.079 A 
HETATM   10  C15 UNK     1      31.536  -6.911  29.566  1.00  0.00     0.026 A 
HETATM   11  C21 UNK     1      30.475  -6.129  30.025  1.00  0.00     0.008 A 
HETATM   12  C20 UNK     1      30.301  -5.925  31.395  1.00  0.00    -0.062 A 
HETATM   13  C22 UNK     1      31.186  -6.504  32.304  1.00  0.00     0.008 A 
HETATM   14  C29 UNK     1      29.168  -5.088  31.885  1.00  0.00     0.048 C 
HETATM   15  C16 UNK     1      32.246  -7.285  31.845  1.00  0.00     0.026 A 
ENDBRANCH   6   9
ENDBRANCH   4   6
ENDBRANCH   3   4
BRANCH   3  16
HETATM   16  C2  UNK     1      30.814 -11.072  29.771  1.00  0.00     0.074 C 
BRANCH  16  17
HETATM   17  C3  UNK     1      29.610 -10.176  29.914  1.00  0.00    -0.056 A 
HETATM   18  C10 UNK     1      29.334  -9.598  31.144  1.00  0.00     0.007 A 
HETATM   19  C23 UNK     1      28.220  -8.770  31.278  1.00  0.00     0.001 A 
HETATM   20  C25 UNK     1      27.395  -8.529  30.179  1.00  0.00     0.000 A 
HETATM   21  C24 UNK     1      27.684  -9.117  28.948  1.00  0.00     0.001 A 
HETATM   22  C11 UNK     1      28.798  -9.945  28.814  1.00  0.00     0.007 A 
ENDBRANCH  16  17
ENDBRANCH   3  16
ENDBRANCH   2   3
BRANCH   2  23
HETATM   23  O1  UNK     1      32.254 -12.027  32.382  1.00  0.00    -0.277 OA
BRANCH  23  24
HETATM   24  C8  UNK     1      32.127 -10.997  33.261  1.00  0.00     0.082 A 
HETATM   25  C13 UNK     1      30.859 -10.545  33.626  1.00  0.00     0.075 A 
HETATM   26  C7  UNK     1      30.730  -9.488  34.528  1.00  0.00     0.092 A 
HETATM   27  C6  UNK     1      31.864  -8.887  35.061  1.00  0.00     0.049 A 
HETATM   28  O2  UNK     1      29.460  -9.090  34.846  1.00  0.00    -0.313 OA
HETATM   29  C12 UNK     1      31.699  -7.777  36.008  1.00  0.00     0.198 A 
HETATM   30  C17 UNK     1      33.138  -9.336  34.699  1.00  0.00     0.021 A 
HETATM   31  O6  UNK     1      32.667  -7.215  36.504  1.00  0.00    -0.286 OA
HETATM   32  C9  UNK     1      30.299  -7.376  36.332  1.00  0.00     0.054 A 
HETATM   33  C14 UNK     1      29.285  -8.043  35.742  1.00  0.00     0.065 A 
HETATM   34  C26 UNK     1      27.825  -7.754  35.967  1.00  0.00     0.077 C 
HETATM   35  C18 UNK     1      33.264 -10.393  33.796  1.00  0.00     0.038 A 
BRANCH  32  36
HETATM   36  C19 UNK     1      30.069  -6.283  37.268  1.00  0.00    -0.019 A 
HETATM   37  C27 UNK     1      29.501  -6.543  38.514  1.00  0.00     0.015 A 
HETATM   38  C30 UNK     1      29.281  -5.496  39.409  1.00  0.00     0.043 A 
HETATM   39  C32 UNK     1      29.629  -4.192  39.057  1.00  0.00     0.116 A 
HETATM   40  C31 UNK     1      30.197  -3.934  37.810  1.00  0.00     0.043 A 
HETATM   41  F1  UNK     1      29.416  -3.186  39.916  1.00  0.00    -0.206 F 
HETATM   42  C28 UNK     1      30.417  -4.981  36.914  1.00  0.00     0.015 A 
ENDBRANCH  32  36
ENDBRANCH  23  24
ENDBRANCH   2  23
TORSDOF 9
ENDMDL
MODEL 8
REMARK VINA RESULT:      -8.6      5.552      7.695
REMARK  9 active torsions:
REMARK  status: ('A' for Active; 'I' for Inactive)
REMARK    1  A    between atoms: C5_14  and  S1_1 
REMARK    2  A    between atoms: N1_9  and  S1_1 
REMARK    3  A    between atoms: C4_13  and  O1_3 
REMARK    4  A    between atoms: C8_17  and  O1_3 
REMARK    5  A    between atoms: C1_10  and  N1_9 
REMARK    6  A    between atoms: C1_10  and  C2_11 
REMARK    7  A    between atoms: C1_10  and  C4_13 
REMARK    8  A    between atoms: C2_11  and  C3_12 
REMARK    9  A    between atoms: C19_28  and  C9_18 
ROOT
HETATM    1  O5  UNK     1      31.214  -8.065  38.191  1.00  0.00    -0.262 OA
HETATM    2  C4  UNK     1      30.443  -8.682  37.468  1.00  0.00     0.287 C 
ENDROOT
BRANCH   2   3
HETATM    3  C1  UNK     1      30.314  -8.500  35.969  1.00  0.00     0.197 C 
BRANCH   3   4
HETATM    4  N1  UNK     1      31.269  -7.422  35.611  1.00  0.00    -0.301 N 
HETATM    5  H4  UNK     1      32.254  -7.575  35.863  1.00  0.00     0.173 HD
BRANCH   4   6
HETATM    6  S1  UNK     1      30.708  -5.835  35.394  1.00  0.00     0.259 S 
HETATM    7  O3  UNK     1      31.835  -4.948  35.182  1.00  0.00    -0.201 OA
HETATM    8  O4  UNK     1      29.732  -5.540  36.428  1.00  0.00    -0.201 OA
BRANCH   6   9
HETATM    9  C5  UNK     1      29.822  -5.965  33.871  1.00  0.00     0.079 A 
HETATM   10  C15 UNK     1      28.472  -6.268  33.897  1.00  0.00     0.026 A 
HETATM   11  C21 UNK     1      27.773  -6.371  32.695  1.00  0.00     0.008 A 
HETATM   12  C20 UNK     1      28.436  -6.170  31.483  1.00  0.00    -0.062 A 
HETATM   13  C22 UNK     1      29.797  -5.866  31.475  1.00  0.00     0.008 A 
HETATM   14  C29 UNK     1      27.688  -6.282  30.198  1.00  0.00     0.048 C 
HETATM   15  C16 UNK     1      30.495  -5.763  32.678  1.00  0.00     0.026 A 
ENDBRANCH   6   9
ENDBRANCH   4   6
ENDBRANCH   3   4
BRANCH   3  16
HETATM   16  C2  UNK     1      30.694  -9.770  35.205  1.00  0.00     0.074 C 
BRANCH  16  17
HETATM   17  C3  UNK     1      30.443  -9.675  33.721  1.00  0.00    -0.056 A 
HETATM   18  C10 UNK     1      29.149  -9.806  33.240  1.00  0.00     0.007 A 
HETATM   19  C23 UNK     1      28.916  -9.718  31.868  1.00  0.00     0.001 A 
HETATM   20  C25 UNK     1      29.980  -9.502  30.993  1.00  0.00     0.000 A 
HETATM   21  C24 UNK     1      31.277  -9.373  31.489  1.00  0.00     0.001 A 
HETATM   22  C11 UNK     1      31.510  -9.460  32.862  1.00  0.00     0.007 A 
ENDBRANCH  16  17
ENDBRANCH   3  16
ENDBRANCH   2   3
BRANCH   2  23
HETATM   23  O1  UNK     1      29.528  -9.657  37.911  1.00  0.00    -0.277 OA
BRANCH  23  24
HETATM   24  C8  UNK     1      28.246  -9.217  38.027  1.00  0.00     0.082 A 
HETATM   25  C13 UNK     1      27.231  -9.824  37.286  1.00  0.00     0.075 A 
HETATM   26  C7  UNK     1      25.916  -9.371  37.406  1.00  0.00     0.092 A 
HETATM   27  C6  UNK     1      25.620  -8.316  38.261  1.00  0.00     0.049 A 
HETATM   28  O2  UNK     1      24.966 -10.006  36.653  1.00  0.00    -0.313 OA
HETATM   29  C12 UNK     1      24.228  -7.861  38.367  1.00  0.00     0.198 A 
HETATM   30  C17 UNK     1      26.633  -7.704  39.006  1.00  0.00     0.021 A 
HETATM   31  O6  UNK     1      23.916  -6.935  39.107  1.00  0.00    -0.286 OA
HETATM   32  C9  UNK     1      23.222  -8.581  37.535  1.00  0.00     0.054 A 
HETATM   33  C14 UNK     1      23.644  -9.590  36.743  1.00  0.00     0.065 A 
HETATM   34  C26 UNK     1      22.752 -10.406  35.849  1.00  0.00     0.077 C 
HETATM   35  C18 UNK     1      27.947  -8.159  38.885  1.00  0.00     0.038 A 
BRANCH  32  36
HETATM   36  C19 UNK     1      21.823  -8.177  37.599  1.00  0.00    -0.019 A 
HETATM   37  C27 UNK     1      21.356  -7.157  36.772  1.00  0.00     0.015 A 
HETATM   38  C30 UNK     1      20.017  -6.771  36.834  1.00  0.00     0.043 A 
HETATM   39  C32 UNK     1      19.148  -7.405  37.722  1.00  0.00     0.116 A 
HETATM   40  C31 UNK     1      19.617  -8.426  38.548  1.00  0.00     0.043 A 
HETATM   41  F1  UNK     1      17.862  -7.034  37.783  1.00  0.00    -0.206 F 
HETATM   42  C28 UNK     1      20.957  -8.812  38.486  1.00  0.00     0.015 A 
ENDBRANCH  32  36
ENDBRANCH  23  24
ENDBRANCH   2  23
TORSDOF 9
ENDMDL
MODEL 9
REMARK VINA RESULT:      -8.6      5.785      8.076
REMARK  9 active torsions:
REMARK  status: ('A' for Active; 'I' for Inactive)
REMARK    1  A    between atoms: C5_14  and  S1_1 
REMARK    2  A    between atoms: N1_9  and  S1_1 
REMARK    3  A    between atoms: C4_13  and  O1_3 
REMARK    4  A    between atoms: C8_17  and  O1_3 
REMARK    5  A    between atoms: C1_10  and  N1_9 
REMARK    6  A    between atoms: C1_10  and  C2_11 
REMARK    7  A    between atoms: C1_10  and  C4_13 
REMARK    8  A    between atoms: C2_11  and  C3_12 
REMARK    9  A    between atoms: C19_28  and  C9_18 
ROOT
HETATM    1  O5  UNK     1      30.630  -8.702  38.438  1.00  0.00    -0.262 OA
HETATM    2  C4  UNK     1      29.858  -9.194  37.625  1.00  0.00     0.287 C 
ENDROOT
BRANCH   2   3
HETATM    3  C1  UNK     1      29.844  -8.889  36.140  1.00  0.00     0.197 C 
BRANCH   3   4
HETATM    4  N1  UNK     1      30.746  -7.725  35.958  1.00  0.00    -0.301 N 
HETATM    5  H4  UNK     1      31.717  -7.840  36.276  1.00  0.00     0.173 HD
BRANCH   4   6
HETATM    6  S1  UNK     1      30.094  -6.163  35.835  1.00  0.00     0.259 S 
HETATM    7  O3  UNK     1      31.161  -5.186  35.925  1.00  0.00    -0.201 OA
HETATM    8  O4  UNK     1      28.942  -6.069  36.712  1.00  0.00    -0.201 OA
BRANCH   6   9
HETATM    9  C5  UNK     1      29.483  -6.152  34.177  1.00  0.00     0.079 A 
HETATM   10  C15 UNK     1      30.355  -5.882  33.137  1.00  0.00     0.026 A 
HETATM   11  C21 UNK     1      29.872  -5.874  31.828  1.00  0.00     0.008 A 
HETATM   12  C20 UNK     1      28.524  -6.134  31.580  1.00  0.00    -0.062 A 
HETATM   13  C22 UNK     1      27.659  -6.403  32.640  1.00  0.00     0.008 A 
HETATM   14  C29 UNK     1      28.008  -6.123  30.180  1.00  0.00     0.048 C 
HETATM   15  C16 UNK     1      28.142  -6.412  33.949  1.00  0.00     0.026 A 
ENDBRANCH   6   9
ENDBRANCH   4   6
ENDBRANCH   3   4
BRANCH   3  16
HETATM   16  C2  UNK     1      30.375 -10.062  35.312  1.00  0.00     0.074 C 
BRANCH  16  17
HETATM   17  C3  UNK     1      30.289  -9.833  33.824  1.00  0.00    -0.056 A 
HETATM   18  C10 UNK     1      31.445  -9.561  33.109  1.00  0.00     0.007 A 
HETATM   19  C23 UNK     1      31.365  -9.349  31.733  1.00  0.00     0.001 A 
HETATM   20  C25 UNK     1      30.130  -9.412  31.088  1.00  0.00     0.000 A 
HETATM   21  C24 UNK     1      28.974  -9.686  31.820  1.00  0.00     0.001 A 
HETATM   22  C11 UNK     1      29.054  -9.898  33.196  1.00  0.00     0.007 A 
ENDBRANCH  16  17
ENDBRANCH   3  16
ENDBRANCH   2   3
BRANCH   2  23
HETATM   23  O1  UNK     1      28.838 -10.114  37.935  1.00  0.00    -0.277 OA
BRANCH  23  24
HETATM   24  C8  UNK     1      27.588  -9.579  37.972  1.00  0.00     0.082 A 
HETATM   25  C13 UNK     1      26.575 -10.116  37.177  1.00  0.00     0.075 A 
HETATM   26  C7  UNK     1      25.294  -9.566  37.216  1.00  0.00     0.092 A 
HETATM   27  C6  UNK     1      25.027  -8.484  38.046  1.00  0.00     0.049 A 
HETATM   28  O2  UNK     1      24.344 -10.137  36.413  1.00  0.00    -0.313 OA
HETATM   29  C12 UNK     1      23.669  -7.926  38.068  1.00  0.00     0.198 A 
HETATM   30  C17 UNK     1      26.038  -7.941  38.846  1.00  0.00     0.021 A 
HETATM   31  O6  UNK     1      23.385  -6.972  38.782  1.00  0.00    -0.286 OA
HETATM   32  C9  UNK     1      22.662  -8.578  37.182  1.00  0.00     0.054 A 
HETATM   33  C14 UNK     1      23.053  -9.623  36.423  1.00  0.00     0.065 A 
HETATM   34  C26 UNK     1      22.156 -10.381  35.483  1.00  0.00     0.077 C 
HETATM   35  C18 UNK     1      27.319  -8.493  38.805  1.00  0.00     0.038 A 
BRANCH  32  36
HETATM   36  C19 UNK     1      21.296  -8.072  37.161  1.00  0.00    -0.019 A 
HETATM   37  C27 UNK     1      20.373  -8.524  38.103  1.00  0.00     0.015 A 
HETATM   38  C30 UNK     1      19.065  -8.039  38.082  1.00  0.00     0.043 A 
HETATM   39  C32 UNK     1      18.683  -7.104  37.120  1.00  0.00     0.116 A 
HETATM   40  C31 UNK     1      19.608  -6.653  36.179  1.00  0.00     0.043 A 
HETATM   41  F1  UNK     1      17.427  -6.639  37.099  1.00  0.00    -0.206 F 
HETATM   42  C28 UNK     1      20.916  -7.138  36.199  1.00  0.00     0.015 A 
ENDBRANCH  32  36
ENDBRANCH  23  24
ENDBRANCH   2  23
TORSDOF 9
ENDMDL
MODEL 10
REMARK VINA RESULT:      -8.5      5.738      8.204
REMARK  9 active torsions:
REMARK  status: ('A' for Active; 'I' for Inactive)
REMARK    1  A    between atoms: C5_14  and  S1_1 
REMARK    2  A    between atoms: N1_9  and  S1_1 
REMARK    3  A    between atoms: C4_13  and  O1_3 
REMARK    4  A    between atoms: C8_17  and  O1_3 
REMARK    5  A    between atoms: C1_10  and  N1_9 
REMARK    6  A    between atoms: C1_10  and  C2_11 
REMARK    7  A    between atoms: C1_10  and  C4_13 
REMARK    8  A    between atoms: C2_11  and  C3_12 
REMARK    9  A    between atoms: C19_28  and  C9_18 
ROOT
HETATM    1  O5  UNK     1      30.857 -10.586  38.352  1.00  0.00    -0.262 OA
HETATM    2  C4  UNK     1      30.342  -9.521  38.038  1.00  0.00     0.287 C 
ENDROOT
BRANCH   2   3
HETATM    3  C1  UNK     1      30.652  -8.739  36.777  1.00  0.00     0.197 C 
BRANCH   3   4
HETATM    4  N1  UNK     1      31.444  -7.563  37.215  1.00  0.00    -0.301 N 
HETATM    5  H4  UNK     1      32.132  -7.723  37.962  1.00  0.00     0.173 HD
BRANCH   4   6
HETATM    6  S1  UNK     1      30.837  -5.997  36.970  1.00  0.00     0.259 S 
HETATM    7  O3  UNK     1      31.937  -5.084  36.730  1.00  0.00    -0.201 OA
HETATM    8  O4  UNK     1      29.862  -5.708  38.006  1.00  0.00    -0.201 OA
BRANCH   6   9
HETATM    9  C5  UNK     1      29.943  -6.185  35.457  1.00  0.00     0.079 A 
HETATM   10  C15 UNK     1      30.583  -5.927  34.258  1.00  0.00     0.026 A 
HETATM   11  C21 UNK     1      29.877  -6.076  33.064  1.00  0.00     0.008 A 
HETATM   12  C20 UNK     1      28.541  -6.479  33.088  1.00  0.00    -0.062 A 
HETATM   13  C22 UNK     1      27.912  -6.733  34.306  1.00  0.00     0.008 A 
HETATM   14  C29 UNK     1      27.787  -6.635  31.811  1.00  0.00     0.048 C 
HETATM   15  C16 UNK     1      28.618  -6.585  35.500  1.00  0.00     0.026 A 
ENDBRANCH   6   9
ENDBRANCH   4   6
ENDBRANCH   3   4
BRANCH   3  16
HETATM   16  C2  UNK     1      31.487  -9.557  35.789  1.00  0.00     0.074 C 
BRANCH  16  17
HETATM   17  C3  UNK     1      30.872  -9.646  34.414  1.00  0.00    -0.056 A 
HETATM   18  C10 UNK     1      31.642  -9.337  33.304  1.00  0.00     0.007 A 
HETATM   19  C23 UNK     1      31.075  -9.418  32.032  1.00  0.00     0.001 A 
HETATM   20  C25 UNK     1      29.743  -9.808  31.888  1.00  0.00     0.000 A 
HETATM   21  C24 UNK     1      28.980 -10.115  33.013  1.00  0.00     0.001 A 
HETATM   22  C11 UNK     1      29.548 -10.034  34.285  1.00  0.00     0.007 A 
ENDBRANCH  16  17
ENDBRANCH   3  16
ENDBRANCH   2   3
BRANCH   2  23
HETATM   23  O1  UNK     1      29.386  -8.829  38.807  1.00  0.00    -0.277 OA
BRANCH  23  24
HETATM   24  C8  UNK     1      28.107  -8.956  38.363  1.00  0.00     0.082 A 
HETATM   25  C13 UNK     1      27.088  -8.202  38.946  1.00  0.00     0.075 A 
HETATM   26  C7  UNK     1      25.776  -8.334  38.490  1.00  0.00     0.092 A 
HETATM   27  C6  UNK     1      25.485  -9.216  37.456  1.00  0.00     0.049 A 
HETATM   28  O2  UNK     1      24.821  -7.568  39.102  1.00  0.00    -0.313 OA
HETATM   29  C12 UNK     1      24.096  -9.335  36.996  1.00  0.00     0.198 A 
HETATM   30  C17 UNK     1      26.502  -9.975  36.868  1.00  0.00     0.021 A 
HETATM   31  O6  UNK     1      23.789 -10.098  36.089  1.00  0.00    -0.286 OA
HETATM   32  C9  UNK     1      23.086  -8.480  37.686  1.00  0.00     0.054 A 
HETATM   33  C14 UNK     1      23.503  -7.665  38.678  1.00  0.00     0.065 A 
HETATM   34  C26 UNK     1      22.606  -6.748  39.465  1.00  0.00     0.077 C 
HETATM   35  C18 UNK     1      27.813  -9.841  37.326  1.00  0.00     0.038 A 
BRANCH  32  36
HETATM   36  C19 UNK     1      21.691  -8.550  37.272  1.00  0.00    -0.019 A 
HETATM   37  C27 UNK     1      21.224  -7.714  36.259  1.00  0.00     0.015 A 
HETATM   38  C30 UNK     1      19.887  -7.781  35.864  1.00  0.00     0.043 A 
HETATM   39  C32 UNK     1      19.021  -8.682  36.483  1.00  0.00     0.116 A 
HETATM   40  C31 UNK     1      19.491  -9.517  37.496  1.00  0.00     0.043 A 
HETATM   41  F1  UNK     1      17.738  -8.746  36.104  1.00  0.00    -0.206 F 
HETATM   42  C28 UNK     1      20.827  -9.450  37.891  1.00  0.00     0.015 A 
ENDBRANCH  32  36
ENDBRANCH  23  24
ENDBRANCH   2  23
TORSDOF 9
ENDMDL
