MODEL 1
REMARK VINA RESULT:      -8.2      0.000      0.000
REMARK  1 active torsions:
REMARK  status: ('A' for Active; 'I' for Inactive)
REMARK       I    between atoms: C7_13  and  N1_6 
REMARK    1  A    between atoms: C7_13  and  C8_14 
ROOT
HETATM    1 Cl1  UNK     1      21.010  -1.660  29.715  1.00  0.00    -0.084 Cl
HETATM    2  O3  UNK     1      18.404  -1.139  34.981  1.00  0.00    -0.274 OA
HETATM    3  O4  UNK     1      18.212  -1.763  37.170  1.00  0.00    -0.259 OA
HETATM    4  C8  UNK     1      19.878  -2.864  35.893  1.00  0.00     0.108 A 
HETATM    5  C9  UNK     1      20.488  -3.006  34.710  1.00  0.00     0.037 A 
HETATM    6  C10 UNK     1      20.078  -2.200  33.572  1.00  0.00     0.001 A 
HETATM    7  C11 UNK     1      18.774  -1.896  36.088  1.00  0.00     0.304 A 
HETATM    8  C12 UNK     1      19.044  -1.283  33.734  1.00  0.00     0.089 A 
HETATM    9  C13 UNK     1      20.687  -2.314  32.320  1.00  0.00     0.038 A 
HETATM   10  C14 UNK     1      18.603  -0.481  32.683  1.00  0.00     0.040 A 
HETATM   11  C15 UNK     1      20.256  -1.516  31.257  1.00  0.00     0.035 A 
HETATM   12  C16 UNK     1      19.217  -0.600  31.438  1.00  0.00     0.026 A 
ENDROOT
BRANCH   4  13
HETATM   13  C7  UNK     1      20.365  -3.727  36.987  1.00  0.00     0.260 C 
HETATM   14  O2  UNK     1      20.846  -3.175  37.978  1.00  0.00    -0.267 OA
HETATM   15  N1  UNK     1      20.252  -5.104  36.826  1.00  0.00    -0.343 N 
HETATM   16  C3  UNK     1      19.688  -5.809  35.668  1.00  0.00     0.157 C 
HETATM   17  C4  UNK     1      20.779  -5.997  37.858  1.00  0.00     0.157 C 
HETATM   18  C1  UNK     1      18.682  -6.876  36.111  1.00  0.00     0.136 C 
HETATM   19  O1  UNK     1      19.237  -7.721  37.124  1.00  0.00    -0.378 OA
HETATM   20  C5  UNK     1      17.343  -6.281  36.544  1.00  0.00     0.041 C 
HETATM   21  C2  UNK     1      19.718  -7.013  38.274  1.00  0.00     0.136 C 
HETATM   22  C6  UNK     1      20.294  -8.040  39.239  1.00  0.00     0.041 C 
ENDBRANCH   4  13
TORSDOF 1
ENDMDL
MODEL 2
REMARK VINA RESULT:      -8.1      7.101     10.823
REMARK  1 active torsions:
REMARK  status: ('A' for Active; 'I' for Inactive)
REMARK       I    between atoms: C7_13  and  N1_6 
REMARK    1  A    between atoms: C7_13  and  C8_14 
ROOT
HETATM    1 Cl1  UNK     1      17.953  -0.550  37.669  1.00  0.00    -0.084 Cl
HETATM    2  O3  UNK     1      17.833   2.507  32.626  1.00  0.00    -0.274 OA
HETATM    3  O4  UNK     1      18.217   4.438  31.467  1.00  0.00    -0.259 OA
HETATM    4  C8  UNK     1      18.748   4.461  33.777  1.00  0.00     0.108 A 
HETATM    5  C9  UNK     1      18.786   3.795  34.937  1.00  0.00     0.037 A 
HETATM    6  C10 UNK     1      18.339   2.412  35.003  1.00  0.00     0.001 A 
HETATM    7  C11 UNK     1      18.254   3.830  32.532  1.00  0.00     0.304 A 
HETATM    8  C12 UNK     1      17.873   1.799  33.844  1.00  0.00     0.089 A 
HETATM    9  C13 UNK     1      18.362   1.678  36.190  1.00  0.00     0.038 A 
HETATM   10  C14 UNK     1      17.431   0.478  33.840  1.00  0.00     0.040 A 
HETATM   11  C15 UNK     1      17.923   0.351  36.202  1.00  0.00     0.035 A 
HETATM   12  C16 UNK     1      17.458  -0.248  35.029  1.00  0.00     0.026 A 
ENDROOT
BRANCH   4  13
HETATM   13  C7  UNK     1      19.222   5.859  33.811  1.00  0.00     0.260 C 
HETATM   14  O2  UNK     1      20.383   6.076  33.463  1.00  0.00    -0.267 OA
HETATM   15  N1  UNK     1      18.328   6.836  34.236  1.00  0.00    -0.343 N 
HETATM   16  C3  UNK     1      16.938   6.630  34.660  1.00  0.00     0.157 C 
HETATM   17  C4  UNK     1      18.775   8.225  34.345  1.00  0.00     0.157 C 
HETATM   18  C1  UNK     1      15.998   7.620  33.965  1.00  0.00     0.136 C 
HETATM   19  O1  UNK     1      16.478   8.963  34.091  1.00  0.00    -0.378 OA
HETATM   20  C5  UNK     1      15.727   7.253  32.507  1.00  0.00     0.041 C 
HETATM   21  C2  UNK     1      17.813   9.153  33.607  1.00  0.00     0.136 C 
HETATM   22  C6  UNK     1      18.182  10.613  33.832  1.00  0.00     0.041 C 
ENDBRANCH   4  13
TORSDOF 1
ENDMDL
MODEL 3
REMARK VINA RESULT:      -8.0     17.389     19.608
REMARK  1 active torsions:
REMARK  status: ('A' for Active; 'I' for Inactive)
REMARK       I    between atoms: C7_13  and  N1_6 
REMARK    1  A    between atoms: C7_13  and  C8_14 
ROOT
HETATM    1 Cl1  UNK     1      19.384   2.376  21.797  1.00  0.00    -0.084 Cl
HETATM    2  O3  UNK     1      19.407   1.226  16.012  1.00  0.00    -0.274 OA
HETATM    3  O4  UNK     1      19.053  -0.214  14.274  1.00  0.00    -0.259 OA
HETATM    4  C8  UNK     1      18.626  -1.050  16.451  1.00  0.00     0.108 A 
HETATM    5  C9  UNK     1      18.611  -0.819  17.769  1.00  0.00     0.037 A 
HETATM    6  C10 UNK     1      19.003   0.480  18.291  1.00  0.00     0.001 A 
HETATM    7  C11 UNK     1      19.038  -0.007  15.483  1.00  0.00     0.304 A 
HETATM    8  C12 UNK     1      19.392   1.475  17.399  1.00  0.00     0.089 A 
HETATM    9  C13 UNK     1      19.002   0.765  19.658  1.00  0.00     0.038 A 
HETATM   10  C14 UNK     1      19.779   2.740  17.834  1.00  0.00     0.040 A 
HETATM   11  C15 UNK     1      19.386   2.030  20.110  1.00  0.00     0.035 A 
HETATM   12  C16 UNK     1      19.774   3.016  19.200  1.00  0.00     0.026 A 
ENDROOT
BRANCH   4  13
HETATM   13  C7  UNK     1      18.212  -2.399  16.019  1.00  0.00     0.260 C 
HETATM   14  O2  UNK     1      17.004  -2.635  15.962  1.00  0.00    -0.267 OA
HETATM   15  N1  UNK     1      19.211  -3.315  15.707  1.00  0.00    -0.343 N 
HETATM   16  C3  UNK     1      20.661  -3.084  15.759  1.00  0.00     0.157 C 
HETATM   17  C4  UNK     1      18.847  -4.682  15.335  1.00  0.00     0.157 C 
HETATM   18  C1  UNK     1      21.338  -3.557  14.468  1.00  0.00     0.136 C 
HETATM   19  O1  UNK     1      20.948  -4.895  14.140  1.00  0.00    -0.378 OA
HETATM   20  C5  UNK     1      21.113  -2.600  13.298  1.00  0.00     0.041 C 
HETATM   21  C2  UNK     1      19.531  -5.077  14.029  1.00  0.00     0.136 C 
HETATM   22  C6  UNK     1      19.281  -6.544  13.703  1.00  0.00     0.041 C 
ENDBRANCH   4  13
TORSDOF 1
ENDMDL
MODEL 4
REMARK VINA RESULT:      -8.0     27.452     29.649
REMARK  1 active torsions:
REMARK  status: ('A' for Active; 'I' for Inactive)
REMARK       I    between atoms: C7_13  and  N1_6 
REMARK    1  A    between atoms: C7_13  and  C8_14 
ROOT
HETATM    1 Cl1  UNK     1       6.631   4.814   9.975  1.00  0.00    -0.084 Cl
HETATM    2  O3  UNK     1      11.189   6.680   6.730  1.00  0.00    -0.274 OA
HETATM    3  O4  UNK     1      13.439   6.955   6.443  1.00  0.00    -0.259 OA
HETATM    4  C8  UNK     1      12.744   5.921   8.459  1.00  0.00     0.108 A 
HETATM    5  C9  UNK     1      11.730   5.489   9.219  1.00  0.00     0.037 A 
HETATM    6  C10 UNK     1      10.357   5.632   8.762  1.00  0.00     0.001 A 
HETATM    7  C11 UNK     1      12.513   6.556   7.142  1.00  0.00     0.304 A 
HETATM    8  C12 UNK     1      10.118   6.225   7.525  1.00  0.00     0.089 A 
HETATM    9  C13 UNK     1       9.270   5.194   9.520  1.00  0.00     0.038 A 
HETATM   10  C14 UNK     1       8.827   6.392   7.029  1.00  0.00     0.040 A 
HETATM   11  C15 UNK     1       7.969   5.354   9.035  1.00  0.00     0.035 A 
HETATM   12  C16 UNK     1       7.748   5.951   7.792  1.00  0.00     0.026 A 
ENDROOT
BRANCH   4  13
HETATM   13  C7  UNK     1      14.100   5.731   9.010  1.00  0.00     0.260 C 
HETATM   14  O2  UNK     1      14.712   4.713   8.683  1.00  0.00    -0.267 OA
HETATM   15  N1  UNK     1      14.596   6.712   9.863  1.00  0.00    -0.343 N 
HETATM   16  C3  UNK     1      13.909   7.940  10.283  1.00  0.00     0.157 C 
HETATM   17  C4  UNK     1      15.910   6.534  10.481  1.00  0.00     0.157 C 
HETATM   18  C1  UNK     1      14.820   9.161  10.121  1.00  0.00     0.136 C 
HETATM   19  O1  UNK     1      16.095   8.940  10.734  1.00  0.00    -0.378 OA
HETATM   20  C5  UNK     1      14.963   9.604   8.666  1.00  0.00     0.041 C 
HETATM   21  C2  UNK     1      16.775   7.772  10.257  1.00  0.00     0.136 C 
HETATM   22  C6  UNK     1      18.091   7.664  11.016  1.00  0.00     0.041 C 
ENDBRANCH   4  13
TORSDOF 1
ENDMDL
MODEL 5
REMARK VINA RESULT:      -7.9      2.632      3.363
REMARK  1 active torsions:
REMARK  status: ('A' for Active; 'I' for Inactive)
REMARK       I    between atoms: C7_13  and  N1_6 
REMARK    1  A    between atoms: C7_13  and  C8_14 
ROOT
HETATM    1 Cl1  UNK     1      14.813   1.018  36.771  1.00  0.00    -0.084 Cl
HETATM    2  O3  UNK     1      19.584  -1.431  34.315  1.00  0.00    -0.274 OA
HETATM    3  O4  UNK     1      21.299  -2.938  34.386  1.00  0.00    -0.259 OA
HETATM    4  C8  UNK     1      19.830  -2.912  36.246  1.00  0.00     0.108 A 
HETATM    5  C9  UNK     1      18.752  -2.376  36.829  1.00  0.00     0.037 A 
HETATM    6  C10 UNK     1      18.013  -1.312  36.168  1.00  0.00     0.001 A 
HETATM    7  C11 UNK     1      20.311  -2.450  34.924  1.00  0.00     0.304 A 
HETATM    8  C12 UNK     1      18.447  -0.863  34.924  1.00  0.00     0.089 A 
HETATM    9  C13 UNK     1      16.882  -0.724  36.739  1.00  0.00     0.038 A 
HETATM   10  C14 UNK     1      17.784   0.153  34.238  1.00  0.00     0.040 A 
HETATM   11  C15 UNK     1      16.207   0.296  36.062  1.00  0.00     0.035 A 
HETATM   12  C16 UNK     1      16.656   0.733  34.814  1.00  0.00     0.026 A 
ENDROOT
BRANCH   4  13
HETATM   13  C7  UNK     1      20.512  -3.986  36.995  1.00  0.00     0.260 C 
HETATM   14  O2  UNK     1      21.192  -3.659  37.969  1.00  0.00    -0.267 OA
HETATM   15  N1  UNK     1      20.344  -5.293  36.551  1.00  0.00    -0.343 N 
HETATM   16  C3  UNK     1      19.547  -5.733  35.399  1.00  0.00     0.157 C 
HETATM   17  C4  UNK     1      21.052  -6.381  37.225  1.00  0.00     0.157 C 
HETATM   18  C1  UNK     1      18.632  -6.901  35.778  1.00  0.00     0.136 C 
HETATM   19  O1  UNK     1      19.364  -7.938  36.441  1.00  0.00    -0.378 OA
HETATM   20  C5  UNK     1      17.417  -6.460  36.594  1.00  0.00     0.041 C 
HETATM   21  C2  UNK     1      20.078  -7.496  37.602  1.00  0.00     0.136 C 
HETATM   22  C6  UNK     1      20.819  -8.698  38.172  1.00  0.00     0.041 C 
ENDBRANCH   4  13
TORSDOF 1
ENDMDL
MODEL 6
REMARK VINA RESULT:      -7.9     11.179     13.137
REMARK  1 active torsions:
REMARK  status: ('A' for Active; 'I' for Inactive)
REMARK       I    between atoms: C7_13  and  N1_6 
REMARK    1  A    between atoms: C7_13  and  C8_14 
ROOT
HETATM    1 Cl1  UNK     1      26.895 -10.501  39.493  1.00  0.00    -0.084 Cl
HETATM    2  O3  UNK     1      28.704  -5.067  38.083  1.00  0.00    -0.274 OA
HETATM    3  O4  UNK     1      30.377  -3.616  37.524  1.00  0.00    -0.259 OA
HETATM    4  C8  UNK     1      31.006  -5.871  37.898  1.00  0.00     0.108 A 
HETATM    5  C9  UNK     1      30.627  -7.114  38.217  1.00  0.00     0.037 A 
HETATM    6  C10 UNK     1      29.229  -7.407  38.491  1.00  0.00     0.001 A 
HETATM    7  C11 UNK     1      30.034  -4.757  37.815  1.00  0.00     0.304 A 
HETATM    8  C12 UNK     1      28.298  -6.375  38.417  1.00  0.00     0.089 A 
HETATM    9  C13 UNK     1      28.788  -8.689  38.826  1.00  0.00     0.038 A 
HETATM   10  C14 UNK     1      26.944  -6.589  38.669  1.00  0.00     0.040 A 
HETATM   11  C15 UNK     1      27.433  -8.919  39.080  1.00  0.00     0.035 A 
HETATM   12  C16 UNK     1      26.513  -7.871  39.001  1.00  0.00     0.026 A 
ENDROOT
BRANCH   4  13
HETATM   13  C7  UNK     1      32.446  -5.674  37.638  1.00  0.00     0.260 C 
HETATM   14  O2  UNK     1      33.137  -5.231  38.556  1.00  0.00    -0.267 OA
HETATM   15  N1  UNK     1      32.925  -5.997  36.373  1.00  0.00    -0.343 N 
HETATM   16  C3  UNK     1      32.145  -6.525  35.246  1.00  0.00     0.157 C 
HETATM   17  C4  UNK     1      34.332  -5.758  36.051  1.00  0.00     0.157 C 
HETATM   18  C1  UNK     1      32.834  -7.743  34.624  1.00  0.00     0.136 C 
HETATM   19  O1  UNK     1      34.208  -7.467  34.333  1.00  0.00    -0.378 OA
HETATM   20  C5  UNK     1      32.680  -9.006  35.470  1.00  0.00     0.041 C 
HETATM   21  C2  UNK     1      34.965  -7.018  35.465  1.00  0.00     0.136 C 
HETATM   22  C6  UNK     1      36.385  -6.746  34.990  1.00  0.00     0.041 C 
ENDBRANCH   4  13
TORSDOF 1
ENDMDL
MODEL 7
REMARK VINA RESULT:      -7.8     10.769     12.610
REMARK  1 active torsions:
REMARK  status: ('A' for Active; 'I' for Inactive)
REMARK       I    between atoms: C7_13  and  N1_6 
REMARK    1  A    between atoms: C7_13  and  C8_14 
ROOT
HETATM    1 Cl1  UNK     1      27.652  -7.044  39.656  1.00  0.00    -0.084 Cl
HETATM    2  O3  UNK     1      31.668  -4.319  36.302  1.00  0.00    -0.274 OA
HETATM    3  O4  UNK     1      32.903  -4.206  34.384  1.00  0.00    -0.259 OA
HETATM    4  C8  UNK     1      31.426  -6.049  34.591  1.00  0.00     0.108 A 
HETATM    5  C9  UNK     1      30.513  -6.691  35.329  1.00  0.00     0.037 A 
HETATM    6  C10 UNK     1      30.118  -6.166  36.626  1.00  0.00     0.001 A 
HETATM    7  C11 UNK     1      32.065  -4.797  35.057  1.00  0.00     0.304 A 
HETATM    8  C12 UNK     1      30.705  -4.990  37.083  1.00  0.00     0.089 A 
HETATM    9  C13 UNK     1      29.169  -6.801  37.429  1.00  0.00     0.038 A 
HETATM   10  C14 UNK     1      30.371  -4.434  38.317  1.00  0.00     0.040 A 
HETATM   11  C15 UNK     1      28.823  -6.256  38.669  1.00  0.00     0.035 A 
HETATM   12  C16 UNK     1      29.422  -5.074  39.111  1.00  0.00     0.026 A 
ENDROOT
BRANCH   4  13
HETATM   13  C7  UNK     1      31.761  -6.660  33.289  1.00  0.00     0.260 C 
HETATM   14  O2  UNK     1      32.682  -7.478  33.262  1.00  0.00    -0.267 OA
HETATM   15  N1  UNK     1      31.017  -6.270  32.180  1.00  0.00    -0.343 N 
HETATM   16  C3  UNK     1      29.913  -5.302  32.159  1.00  0.00     0.157 C 
HETATM   17  C4  UNK     1      31.356  -6.803  30.860  1.00  0.00     0.157 C 
HETATM   18  C1  UNK     1      28.702  -5.867  31.410  1.00  0.00     0.136 C 
HETATM   19  O1  UNK     1      29.081  -6.382  30.129  1.00  0.00    -0.378 OA
HETATM   20  C5  UNK     1      27.930  -6.901  32.228  1.00  0.00     0.041 C 
HETATM   21  C2  UNK     1      30.112  -7.375  30.183  1.00  0.00     0.136 C 
HETATM   22  C6  UNK     1      30.416  -7.801  28.753  1.00  0.00     0.041 C 
ENDBRANCH   4  13
TORSDOF 1
ENDMDL
MODEL 8
REMARK VINA RESULT:      -7.8     12.006     13.738
REMARK  1 active torsions:
REMARK  status: ('A' for Active; 'I' for Inactive)
REMARK       I    between atoms: C7_13  and  N1_6 
REMARK    1  A    between atoms: C7_13  and  C8_14 
ROOT
HETATM    1 Cl1  UNK     1      27.144  -8.886  39.607  1.00  0.00    -0.084 Cl
HETATM    2  O3  UNK     1      30.158  -4.249  37.556  1.00  0.00    -0.274 OA
HETATM    3  O4  UNK     1      32.105  -3.328  36.793  1.00  0.00    -0.259 OA
HETATM    4  C8  UNK     1      32.177  -5.620  37.395  1.00  0.00     0.108 A 
HETATM    5  C9  UNK     1      31.521  -6.689  37.859  1.00  0.00     0.037 A 
HETATM    6  C10 UNK     1      30.111  -6.593  38.204  1.00  0.00     0.001 A 
HETATM    7  C11 UNK     1      31.507  -4.311  37.217  1.00  0.00     0.304 A 
HETATM    8  C12 UNK     1      29.461  -5.372  38.043  1.00  0.00     0.089 A 
HETATM    9  C13 UNK     1      29.387  -7.683  38.690  1.00  0.00     0.038 A 
HETATM   10  C14 UNK     1      28.113  -5.213  38.355  1.00  0.00     0.040 A 
HETATM   11  C15 UNK     1      28.033  -7.539  39.006  1.00  0.00     0.035 A 
HETATM   12  C16 UNK     1      27.397  -6.306  38.839  1.00  0.00     0.026 A 
ENDROOT
BRANCH   4  13
HETATM   13  C7  UNK     1      33.604  -5.818  37.073  1.00  0.00     0.260 C 
HETATM   14  O2  UNK     1      34.404  -5.832  38.010  1.00  0.00    -0.267 OA
HETATM   15  N1  UNK     1      33.951  -5.972  35.735  1.00  0.00    -0.343 N 
HETATM   16  C3  UNK     1      33.039  -5.962  34.584  1.00  0.00     0.157 C 
HETATM   17  C4  UNK     1      35.360  -6.108  35.365  1.00  0.00     0.157 C 
HETATM   18  C1  UNK     1      33.305  -7.155  33.661  1.00  0.00     0.136 C 
HETATM   19  O1  UNK     1      34.695  -7.253  33.332  1.00  0.00    -0.378 OA
HETATM   20  C5  UNK     1      32.765  -8.470  34.223  1.00  0.00     0.041 C 
HETATM   21  C2  UNK     1      35.560  -7.330  34.472  1.00  0.00     0.136 C 
HETATM   22  C6  UNK     1      36.992  -7.404  33.960  1.00  0.00     0.041 C 
ENDBRANCH   4  13
TORSDOF 1
ENDMDL
MODEL 9
REMARK VINA RESULT:      -7.6     10.434     12.106
REMARK  1 active torsions:
REMARK  status: ('A' for Active; 'I' for Inactive)
REMARK       I    between atoms: C7_13  and  N1_6 
REMARK    1  A    between atoms: C7_13  and  C8_14 
ROOT
HETATM    1 Cl1  UNK     1      28.037  -6.853  39.736  1.00  0.00    -0.084 Cl
HETATM    2  O3  UNK     1      30.732  -5.668  34.625  1.00  0.00    -0.274 OA
HETATM    3  O4  UNK     1      30.787  -5.761  32.343  1.00  0.00    -0.259 OA
HETATM    4  C8  UNK     1      28.899  -6.728  33.401  1.00  0.00     0.108 A 
HETATM    5  C9  UNK     1      28.264  -7.012  34.544  1.00  0.00     0.037 A 
HETATM    6  C10 UNK     1      28.844  -6.628  35.821  1.00  0.00     0.001 A 
HETATM    7  C11 UNK     1      30.201  -6.023  33.388  1.00  0.00     0.304 A 
HETATM    8  C12 UNK     1      30.067  -5.963  35.832  1.00  0.00     0.089 A 
HETATM    9  C13 UNK     1      28.216  -6.902  37.038  1.00  0.00     0.038 A 
HETATM   10  C14 UNK     1      30.676  -5.567  37.021  1.00  0.00     0.040 A 
HETATM   11  C15 UNK     1      28.815  -6.511  38.239  1.00  0.00     0.035 A 
HETATM   12  C16 UNK     1      30.042  -5.845  38.230  1.00  0.00     0.026 A 
ENDROOT
BRANCH   4  13
HETATM   13  C7  UNK     1      28.230  -7.159  32.158  1.00  0.00     0.260 C 
HETATM   14  O2  UNK     1      27.434  -6.376  31.637  1.00  0.00    -0.267 OA
HETATM   15  N1  UNK     1      28.541  -8.420  31.658  1.00  0.00    -0.343 N 
HETATM   16  C3  UNK     1      29.479  -9.387  32.240  1.00  0.00     0.157 C 
HETATM   17  C4  UNK     1      27.855  -8.912  30.464  1.00  0.00     0.157 C 
HETATM   18  C1  UNK     1      30.439  -9.929  31.176  1.00  0.00     0.136 C 
HETATM   19  O1  UNK     1      29.726 -10.393  30.024  1.00  0.00    -0.378 OA
HETATM   20  C5  UNK     1      31.529  -8.927  30.798  1.00  0.00     0.041 C 
HETATM   21  C2  UNK     1      28.868  -9.407  29.435  1.00  0.00     0.136 C 
HETATM   22  C6  UNK     1      28.169 -10.056  28.248  1.00  0.00     0.041 C 
ENDBRANCH   4  13
TORSDOF 1
ENDMDL
MODEL 10
REMARK VINA RESULT:      -7.6     11.936     14.795
REMARK  1 active torsions:
REMARK  status: ('A' for Active; 'I' for Inactive)
REMARK       I    between atoms: C7_13  and  N1_6 
REMARK    1  A    between atoms: C7_13  and  C8_14 
ROOT
HETATM    1 Cl1  UNK     1      12.226  12.592  38.674  1.00  0.00    -0.084 Cl
HETATM    2  O3  UNK     1      16.895  12.352  35.078  1.00  0.00    -0.274 OA
HETATM    3  O4  UNK     1      18.084  11.295  33.438  1.00  0.00    -0.259 OA
HETATM    4  C8  UNK     1      16.079  10.245  34.142  1.00  0.00     0.108 A 
HETATM    5  C9  UNK     1      15.010  10.271  34.946  1.00  0.00     0.037 A 
HETATM    6  C10 UNK     1      14.821  11.368  35.882  1.00  0.00     0.001 A 
HETATM    7  C11 UNK     1      17.102  11.315  34.172  1.00  0.00     0.304 A 
HETATM    8  C12 UNK     1      15.770  12.385  35.926  1.00  0.00     0.089 A 
HETATM    9  C13 UNK     1      13.721  11.436  36.738  1.00  0.00     0.038 A 
HETATM   10  C14 UNK     1      15.649  13.464  36.799  1.00  0.00     0.040 A 
HETATM   11  C15 UNK     1      13.585  12.512  37.619  1.00  0.00     0.035 A 
HETATM   12  C16 UNK     1      14.547  13.525  37.649  1.00  0.00     0.026 A 
ENDROOT
BRANCH   4  13
HETATM   13  C7  UNK     1      16.181   9.090  33.228  1.00  0.00     0.260 C 
HETATM   14  O2  UNK     1      15.620   9.176  32.135  1.00  0.00    -0.267 OA
HETATM   15  N1  UNK     1      16.901   7.982  33.661  1.00  0.00    -0.343 N 
HETATM   16  C3  UNK     1      17.587   7.830  34.951  1.00  0.00     0.157 C 
HETATM   17  C4  UNK     1      16.976   6.793  32.813  1.00  0.00     0.157 C 
HETATM   18  C1  UNK     1      19.018   7.320  34.755  1.00  0.00     0.136 C 
HETATM   19  O1  UNK     1      19.043   6.161  33.915  1.00  0.00    -0.378 OA
HETATM   20  C5  UNK     1      19.969   8.404  34.249  1.00  0.00     0.041 C 
HETATM   21  C2  UNK     1      18.428   6.356  32.635  1.00  0.00     0.136 C 
HETATM   22  C6  UNK     1      18.513   5.038  31.878  1.00  0.00     0.041 C 
ENDBRANCH   4  13
TORSDOF 1
ENDMDL
