MODEL 1
REMARK VINA RESULT:      -9.3      0.000      0.000
REMARK  2 active torsions:
REMARK  status: ('A' for Active; 'I' for Inactive)
REMARK    1  A    between atoms: C17_22  and  O2_2 
REMARK    2  A    between atoms: C3_8  and  C6_11 
ROOT
HETATM    1  O1  UNK     1      18.532  -0.739  35.054  1.00  0.00    -0.274 OA
HETATM    2  O3  UNK     1      18.486  -1.705  37.120  1.00  0.00    -0.259 OA
HETATM    3  C6  UNK     1      19.759  -2.825  35.449  1.00  0.00     0.086 A 
HETATM    4  C9  UNK     1      19.815  -1.763  33.263  1.00  0.00    -0.001 A 
HETATM    5  C10 UNK     1      20.192  -2.827  34.179  1.00  0.00     0.035 A 
HETATM    6  C11 UNK     1      18.990  -0.743  33.722  1.00  0.00     0.092 A 
HETATM    7  C12 UNK     1      18.883  -1.736  35.959  1.00  0.00     0.302 A 
HETATM    8  C15 UNK     1      20.249  -1.733  31.936  1.00  0.00     0.017 A 
HETATM    9  C16 UNK     1      18.587   0.304  32.896  1.00  0.00     0.075 A 
HETATM   10  C17 UNK     1      19.026   0.329  31.573  1.00  0.00     0.070 A 
HETATM   11  C18 UNK     1      19.855  -0.688  31.094  1.00  0.00     0.038 A 
ENDROOT
BRANCH   3  12
HETATM   12  C3  UNK     1      20.144  -3.892  36.321  1.00  0.00     0.145 A 
HETATM   13  N1  UNK     1      19.213  -4.860  36.577  1.00  0.00    -0.338 N 
HETATM   14  C1  UNK     1      19.782  -5.775  37.425  1.00  0.00     0.063 A 
HETATM   15  H1  UNK     1      18.272  -4.913  36.208  1.00  0.00     0.167 HD
HETATM   16  C2  UNK     1      21.070  -5.291  37.640  1.00  0.00     0.086 A 
HETATM   17  C7  UNK     1      19.296  -6.947  38.004  1.00  0.00     0.039 A 
HETATM   18  N2  UNK     1      21.276  -4.122  36.947  1.00  0.00    -0.228 NA
HETATM   19  C8  UNK     1      21.939  -6.009  38.481  1.00  0.00     0.041 A 
HETATM   20  C5  UNK     1      21.473  -7.189  39.073  1.00  0.00    -0.054 A 
HETATM   21  C14 UNK     1      22.398  -7.951  39.967  1.00  0.00     0.049 C 
HETATM   22  C4  UNK     1      20.175  -7.648  38.838  1.00  0.00    -0.054 A 
HETATM   23  C13 UNK     1      19.689  -8.911  39.475  1.00  0.00     0.049 C 
ENDBRANCH   3  12
BRANCH  10  24
HETATM   24  O2  UNK     1      18.645   1.341  30.748  1.00  0.00    -0.356 OA
HETATM   25  C19 UNK     1      19.028   1.240  29.378  1.00  0.00     0.210 C 
ENDBRANCH  10  24
TORSDOF 2
ENDMDL
MODEL 2
REMARK VINA RESULT:      -9.2      1.709      2.506
REMARK  2 active torsions:
REMARK  status: ('A' for Active; 'I' for Inactive)
REMARK    1  A    between atoms: C17_22  and  O2_2 
REMARK    2  A    between atoms: C3_8  and  C6_11 
ROOT
HETATM    1  O1  UNK     1      19.658  -1.609  33.724  1.00  0.00    -0.274 OA
HETATM    2  O3  UNK     1      20.588  -3.689  33.850  1.00  0.00    -0.259 OA
HETATM    3  C6  UNK     1      19.782  -2.758  35.887  1.00  0.00     0.086 A 
HETATM    4  C9  UNK     1      18.771  -0.553  35.724  1.00  0.00    -0.001 A 
HETATM    5  C10 UNK     1      19.178  -1.721  36.488  1.00  0.00     0.035 A 
HETATM    6  C11 UNK     1      19.023  -0.523  34.357  1.00  0.00     0.092 A 
HETATM    7  C12 UNK     1      20.051  -2.747  34.424  1.00  0.00     0.302 A 
HETATM    8  C15 UNK     1      18.139   0.543  36.317  1.00  0.00     0.017 A 
HETATM    9  C16 UNK     1      18.663   0.567  33.567  1.00  0.00     0.075 A 
HETATM   10  C17 UNK     1      18.032   1.655  34.165  1.00  0.00     0.070 A 
HETATM   11  C18 UNK     1      17.770   1.644  35.537  1.00  0.00     0.038 A 
ENDROOT
BRANCH   3  12
HETATM   12  C3  UNK     1      20.175  -3.888  36.671  1.00  0.00     0.145 A 
HETATM   13  N1  UNK     1      19.262  -4.894  36.825  1.00  0.00    -0.338 N 
HETATM   14  C1  UNK     1      19.838  -5.867  37.602  1.00  0.00     0.063 A 
HETATM   15  H1  UNK     1      18.330  -4.935  36.433  1.00  0.00     0.167 HD
HETATM   16  C2  UNK     1      21.110  -5.376  37.883  1.00  0.00     0.086 A 
HETATM   17  C7  UNK     1      19.368  -7.095  38.067  1.00  0.00     0.039 A 
HETATM   18  N2  UNK     1      21.301  -4.147  37.297  1.00  0.00    -0.228 NA
HETATM   19  C8  UNK     1      21.980  -6.145  38.676  1.00  0.00     0.041 A 
HETATM   20  C5  UNK     1      21.530  -7.382  39.154  1.00  0.00    -0.054 A 
HETATM   21  C14 UNK     1      22.457  -8.198  39.998  1.00  0.00     0.049 C 
HETATM   22  C4  UNK     1      20.247  -7.846  38.854  1.00  0.00    -0.054 A 
HETATM   23  C13 UNK     1      19.780  -9.170  39.371  1.00  0.00     0.049 C 
ENDBRANCH   3  12
BRANCH  10  24
HETATM   24  O2  UNK     1      17.671   2.731  33.414  1.00  0.00    -0.356 OA
HETATM   25  C19 UNK     1      18.260   3.985  33.752  1.00  0.00     0.210 C 
ENDBRANCH  10  24
TORSDOF 2
ENDMDL
MODEL 3
REMARK VINA RESULT:      -9.0     17.888     20.695
REMARK  2 active torsions:
REMARK  status: ('A' for Active; 'I' for Inactive)
REMARK    1  A    between atoms: C17_22  and  O2_2 
REMARK    2  A    between atoms: C3_8  and  C6_11 
ROOT
HETATM    1  O1  UNK     1      19.302   0.687  15.158  1.00  0.00    -0.274 OA
HETATM    2  O3  UNK     1      19.216  -0.760  13.395  1.00  0.00    -0.259 OA
HETATM    3  C6  UNK     1      18.802  -1.682  15.551  1.00  0.00     0.086 A 
HETATM    4  C9  UNK     1      18.874  -0.117  17.410  1.00  0.00    -0.001 A 
HETATM    5  C10 UNK     1      18.687  -1.453  16.868  1.00  0.00     0.035 A 
HETATM    6  C11 UNK     1      19.180   0.924  16.541  1.00  0.00     0.092 A 
HETATM    7  C12 UNK     1      19.120  -0.578  14.605  1.00  0.00     0.302 A 
HETATM    8  C15 UNK     1      18.760   0.157  18.775  1.00  0.00     0.017 A 
HETATM    9  C16 UNK     1      19.375   2.227  16.994  1.00  0.00     0.075 A 
HETATM   10  C17 UNK     1      19.258   2.492  18.357  1.00  0.00     0.070 A 
HETATM   11  C18 UNK     1      18.951   1.459  19.246  1.00  0.00     0.038 A 
ENDROOT
BRANCH   3  12
HETATM   12  C3  UNK     1      18.619  -3.010  15.053  1.00  0.00     0.145 A 
HETATM   13  N1  UNK     1      19.671  -3.584  14.394  1.00  0.00    -0.338 N 
HETATM   14  C1  UNK     1      19.287  -4.842  14.006  1.00  0.00     0.063 A 
HETATM   15  H1  UNK     1      20.580  -3.173  14.225  1.00  0.00     0.167 HD
HETATM   16  C2  UNK     1      17.979  -4.961  14.468  1.00  0.00     0.086 A 
HETATM   17  C7  UNK     1      19.951  -5.853  13.312  1.00  0.00     0.039 A 
HETATM   18  N2  UNK     1      17.582  -3.814  15.115  1.00  0.00    -0.228 NA
HETATM   19  C8  UNK     1      17.276  -6.155  14.231  1.00  0.00     0.041 A 
HETATM   20  C5  UNK     1      17.923  -7.185  13.537  1.00  0.00    -0.054 A 
HETATM   21  C14 UNK     1      17.173  -8.455  13.286  1.00  0.00     0.049 C 
HETATM   22  C4  UNK     1      19.236  -7.034  13.086  1.00  0.00    -0.054 A 
HETATM   23  C13 UNK     1      19.916  -8.143  12.346  1.00  0.00     0.049 C 
ENDBRANCH   3  12
BRANCH  10  24
HETATM   24  O2  UNK     1      19.445   3.757  18.823  1.00  0.00    -0.356 OA
HETATM   25  C19 UNK     1      20.667   4.403  18.473  1.00  0.00     0.210 C 
ENDBRANCH  10  24
TORSDOF 2
ENDMDL
MODEL 4
REMARK VINA RESULT:      -8.9      6.598     11.047
REMARK  2 active torsions:
REMARK  status: ('A' for Active; 'I' for Inactive)
REMARK    1  A    between atoms: C17_22  and  O2_2 
REMARK    2  A    between atoms: C3_8  and  C6_11 
ROOT
HETATM    1  O1  UNK     1      18.747   1.142  32.863  1.00  0.00    -0.274 OA
HETATM    2  O3  UNK     1      18.069   2.708  34.378  1.00  0.00    -0.259 OA
HETATM    3  C6  UNK     1      18.299   3.436  32.123  1.00  0.00     0.086 A 
HETATM    4  C9  UNK     1      18.997   1.745  30.523  1.00  0.00    -0.001 A 
HETATM    5  C10 UNK     1      18.602   3.103  30.859  1.00  0.00     0.035 A 
HETATM    6  C11 UNK     1      19.063   0.794  31.535  1.00  0.00     0.092 A 
HETATM    7  C12 UNK     1      18.355   2.430  33.217  1.00  0.00     0.302 A 
HETATM    8  C15 UNK     1      19.318   1.363  29.218  1.00  0.00     0.017 A 
HETATM    9  C16 UNK     1      19.439  -0.523  31.283  1.00  0.00     0.075 A 
HETATM   10  C17 UNK     1      19.756  -0.897  29.979  1.00  0.00     0.070 A 
HETATM   11  C18 UNK     1      19.695   0.043  28.948  1.00  0.00     0.038 A 
ENDROOT
BRANCH   3  12
HETATM   12  C3  UNK     1      17.920   4.784  32.419  1.00  0.00     0.145 A 
HETATM   13  N1  UNK     1      18.904   5.632  32.846  1.00  0.00    -0.338 N 
HETATM   14  C1  UNK     1      18.331   6.858  33.071  1.00  0.00     0.063 A 
HETATM   15  H1  UNK     1      19.885   5.415  32.969  1.00  0.00     0.167 HD
HETATM   16  C2  UNK     1      16.988   6.674  32.755  1.00  0.00     0.086 A 
HETATM   17  C7  UNK     1      18.858   8.073  33.509  1.00  0.00     0.039 A 
HETATM   18  N2  UNK     1      16.751   5.381  32.353  1.00  0.00    -0.228 NA
HETATM   19  C8  UNK     1      16.102   7.759  32.879  1.00  0.00     0.041 A 
HETATM   20  C5  UNK     1      16.608   8.989  33.317  1.00  0.00    -0.054 A 
HETATM   21  C14 UNK     1      15.663  10.141  33.448  1.00  0.00     0.049 C 
HETATM   22  C4  UNK     1      17.961   9.141  33.625  1.00  0.00    -0.054 A 
HETATM   23  C13 UNK     1      18.489  10.461  34.091  1.00  0.00     0.049 C 
ENDBRANCH   3  12
BRANCH  10  24
HETATM   24  O2  UNK     1      20.126  -2.179  29.708  1.00  0.00    -0.356 OA
HETATM   25  C19 UNK     1      20.821  -2.883  30.734  1.00  0.00     0.210 C 
ENDBRANCH  10  24
TORSDOF 2
ENDMDL
MODEL 5
REMARK VINA RESULT:      -8.8      1.312      1.641
REMARK  2 active torsions:
REMARK  status: ('A' for Active; 'I' for Inactive)
REMARK    1  A    between atoms: C17_22  and  O2_2 
REMARK    2  A    between atoms: C3_8  and  C6_11 
ROOT
HETATM    1  O1  UNK     1      18.370  -0.242  36.547  1.00  0.00    -0.274 OA
HETATM    2  O3  UNK     1      18.621  -1.544  38.405  1.00  0.00    -0.259 OA
HETATM    3  C6  UNK     1      19.257  -2.518  36.328  1.00  0.00     0.086 A 
HETATM    4  C9  UNK     1      19.006  -1.104  34.367  1.00  0.00    -0.001 A 
HETATM    5  C10 UNK     1      19.383  -2.356  35.002  1.00  0.00     0.035 A 
HETATM    6  C11 UNK     1      18.505  -0.075  35.156  1.00  0.00     0.092 A 
HETATM    7  C12 UNK     1      18.732  -1.424  37.189  1.00  0.00     0.302 A 
HETATM    8  C15 UNK     1      19.126  -0.900  32.990  1.00  0.00     0.017 A 
HETATM    9  C16 UNK     1      18.121   1.149  34.611  1.00  0.00     0.075 A 
HETATM   10  C17 UNK     1      18.245   1.345  33.237  1.00  0.00     0.070 A 
HETATM   11  C18 UNK     1      18.746   0.323  32.428  1.00  0.00     0.038 A 
ENDROOT
BRANCH   3  12
HETATM   12  C3  UNK     1      19.631  -3.767  36.918  1.00  0.00     0.145 A 
HETATM   13  N1  UNK     1      18.775  -4.820  36.753  1.00  0.00    -0.338 N 
HETATM   14  C1  UNK     1      19.319  -5.906  37.391  1.00  0.00     0.063 A 
HETATM   15  H1  UNK     1      17.900  -4.820  36.245  1.00  0.00     0.167 HD
HETATM   16  C2  UNK     1      20.513  -5.430  37.924  1.00  0.00     0.086 A 
HETATM   17  C7  UNK     1      18.881  -7.222  37.542  1.00  0.00     0.039 A 
HETATM   18  N2  UNK     1      20.690  -4.100  37.621  1.00  0.00    -0.228 NA
HETATM   19  C8  UNK     1      21.334  -6.307  38.655  1.00  0.00     0.041 A 
HETATM   20  C5  UNK     1      20.915  -7.633  38.820  1.00  0.00    -0.054 A 
HETATM   21  C14 UNK     1      21.789  -8.564  39.598  1.00  0.00     0.049 C 
HETATM   22  C4  UNK     1      19.710  -8.080  38.272  1.00  0.00    -0.054 A 
HETATM   23  C13 UNK     1      19.275  -9.499  38.454  1.00  0.00     0.049 C 
ENDBRANCH   3  12
BRANCH  10  24
HETATM   24  O2  UNK     1      17.876   2.532  32.682  1.00  0.00    -0.356 OA
HETATM   25  C19 UNK     1      18.214   3.716  33.401  1.00  0.00     0.210 C 
ENDBRANCH  10  24
TORSDOF 2
ENDMDL
MODEL 6
REMARK VINA RESULT:      -8.6      7.026     10.529
REMARK  2 active torsions:
REMARK  status: ('A' for Active; 'I' for Inactive)
REMARK    1  A    between atoms: C17_22  and  O2_2 
REMARK    2  A    between atoms: C3_8  and  C6_11 
ROOT
HETATM    1  O1  UNK     1      18.081   7.612  34.186  1.00  0.00    -0.274 OA
HETATM    2  O3  UNK     1      19.660   5.990  33.901  1.00  0.00    -0.259 OA
HETATM    3  C6  UNK     1      17.640   5.738  32.667  1.00  0.00     0.086 A 
HETATM    4  C9  UNK     1      15.983   7.492  32.966  1.00  0.00    -0.001 A 
HETATM    5  C10 UNK     1      16.436   6.248  32.366  1.00  0.00     0.035 A 
HETATM    6  C11 UNK     1      16.817   8.145  33.867  1.00  0.00     0.092 A 
HETATM    7  C12 UNK     1      18.549   6.429  33.621  1.00  0.00     0.302 A 
HETATM    8  C15 UNK     1      14.738   8.051  32.674  1.00  0.00     0.017 A 
HETATM    9  C16 UNK     1      16.444   9.338  34.481  1.00  0.00     0.075 A 
HETATM   10  C17 UNK     1      15.200   9.891  34.183  1.00  0.00     0.070 A 
HETATM   11  C18 UNK     1      14.348   9.250  33.281  1.00  0.00     0.038 A 
ENDROOT
BRANCH   3  12
HETATM   12  C3  UNK     1      18.050   4.508  32.063  1.00  0.00     0.145 A 
HETATM   13  N1  UNK     1      18.113   3.404  32.867  1.00  0.00    -0.338 N 
HETATM   14  C1  UNK     1      18.523   2.346  32.095  1.00  0.00     0.063 A 
HETATM   15  H1  UNK     1      17.890   3.356  33.853  1.00  0.00     0.167 HD
HETATM   16  C2  UNK     1      18.690   2.890  30.825  1.00  0.00     0.086 A 
HETATM   17  C7  UNK     1      18.754   1.003  32.392  1.00  0.00     0.039 A 
HETATM   18  N2  UNK     1      18.391   4.233  30.824  1.00  0.00    -0.228 NA
HETATM   19  C8  UNK     1      19.112   2.058  29.774  1.00  0.00     0.041 A 
HETATM   20  C5  UNK     1      19.350   0.705  30.048  1.00  0.00    -0.054 A 
HETATM   21  C14 UNK     1      19.800  -0.179  28.929  1.00  0.00     0.049 C 
HETATM   22  C4  UNK     1      19.174   0.189  31.334  1.00  0.00    -0.054 A 
HETATM   23  C13 UNK     1      19.431  -1.258  31.613  1.00  0.00     0.049 C 
ENDBRANCH   3  12
BRANCH  10  24
HETATM   24  O2  UNK     1      14.813  11.056  34.772  1.00  0.00    -0.356 OA
HETATM   25  C19 UNK     1      14.197  10.961  36.054  1.00  0.00     0.210 C 
ENDBRANCH  10  24
TORSDOF 2
ENDMDL
MODEL 7
REMARK VINA RESULT:      -8.4      6.644     11.625
REMARK  2 active torsions:
REMARK  status: ('A' for Active; 'I' for Inactive)
REMARK    1  A    between atoms: C17_22  and  O2_2 
REMARK    2  A    between atoms: C3_8  and  C6_11 
ROOT
HETATM    1  O1  UNK     1      19.059   2.634  30.537  1.00  0.00    -0.274 OA
HETATM    2  O3  UNK     1      18.878   4.840  29.985  1.00  0.00    -0.259 OA
HETATM    3  C6  UNK     1      18.205   4.235  32.187  1.00  0.00     0.086 A 
HETATM    4  C9  UNK     1      18.432   1.883  32.761  1.00  0.00    -0.001 A 
HETATM    5  C10 UNK     1      18.069   3.252  33.090  1.00  0.00     0.035 A 
HETATM    6  C11 UNK     1      18.917   1.605  31.488  1.00  0.00     0.092 A 
HETATM    7  C12 UNK     1      18.731   3.956  30.823  1.00  0.00     0.302 A 
HETATM    8  C15 UNK     1      18.306   0.837  33.677  1.00  0.00     0.017 A 
HETATM    9  C16 UNK     1      19.279   0.315  31.106  1.00  0.00     0.075 A 
HETATM   10  C17 UNK     1      19.151  -0.723  32.026  1.00  0.00     0.070 A 
HETATM   11  C18 UNK     1      18.666  -0.463  33.309  1.00  0.00     0.038 A 
ENDROOT
BRANCH   3  12
HETATM   12  C3  UNK     1      17.831   5.569  32.543  1.00  0.00     0.145 A 
HETATM   13  N1  UNK     1      16.567   5.975  32.218  1.00  0.00    -0.338 N 
HETATM   14  C1  UNK     1      16.420   7.270  32.644  1.00  0.00     0.063 A 
HETATM   15  H1  UNK     1      15.852   5.427  31.755  1.00  0.00     0.167 HD
HETATM   16  C2  UNK     1      17.646   7.584  33.224  1.00  0.00     0.086 A 
HETATM   17  C7  UNK     1      15.352   8.165  32.575  1.00  0.00     0.039 A 
HETATM   18  N2  UNK     1      18.510   6.516  33.152  1.00  0.00    -0.228 NA
HETATM   19  C8  UNK     1      17.836   8.864  33.772  1.00  0.00     0.041 A 
HETATM   20  C5  UNK     1      16.778   9.779  33.714  1.00  0.00    -0.054 A 
HETATM   21  C14 UNK     1      16.982  11.141  34.298  1.00  0.00     0.049 C 
HETATM   22  C4  UNK     1      15.559   9.434  33.126  1.00  0.00    -0.054 A 
HETATM   23  C13 UNK     1      14.436  10.421  33.072  1.00  0.00     0.049 C 
ENDBRANCH   3  12
BRANCH  10  24
HETATM   24  O2  UNK     1      19.498  -1.991  31.674  1.00  0.00    -0.356 OA
HETATM   25  C19 UNK     1      20.264  -2.148  30.482  1.00  0.00     0.210 C 
ENDBRANCH  10  24
TORSDOF 2
ENDMDL
MODEL 8
REMARK VINA RESULT:      -8.4      6.581     11.606
REMARK  2 active torsions:
REMARK  status: ('A' for Active; 'I' for Inactive)
REMARK    1  A    between atoms: C17_22  and  O2_2 
REMARK    2  A    between atoms: C3_8  and  C6_11 
ROOT
HETATM    1  O1  UNK     1      19.137   2.619  30.353  1.00  0.00    -0.274 OA
HETATM    2  O3  UNK     1      18.895   4.832  29.854  1.00  0.00    -0.259 OA
HETATM    3  C6  UNK     1      18.190   4.146  32.022  1.00  0.00     0.086 A 
HETATM    4  C9  UNK     1      18.482   1.789  32.540  1.00  0.00    -0.001 A 
HETATM    5  C10 UNK     1      18.066   3.135  32.896  1.00  0.00     0.035 A 
HETATM    6  C11 UNK     1      19.007   1.561  31.273  1.00  0.00     0.092 A 
HETATM    7  C12 UNK     1      18.758   3.921  30.665  1.00  0.00     0.302 A 
HETATM    8  C15 UNK     1      18.369   0.714  33.426  1.00  0.00     0.017 A 
HETATM    9  C16 UNK     1      19.421   0.294  30.866  1.00  0.00     0.075 A 
HETATM   10  C17 UNK     1      19.307  -0.772  31.756  1.00  0.00     0.070 A 
HETATM   11  C18 UNK     1      18.782  -0.563  33.033  1.00  0.00     0.038 A 
ENDROOT
BRANCH   3  12
HETATM   12  C3  UNK     1      17.764   5.457  32.404  1.00  0.00     0.145 A 
HETATM   13  N1  UNK     1      18.731   6.347  32.779  1.00  0.00    -0.338 N 
HETATM   14  C1  UNK     1      18.111   7.528  33.101  1.00  0.00     0.063 A 
HETATM   15  H1  UNK     1      19.729   6.185  32.808  1.00  0.00     0.167 HD
HETATM   16  C2  UNK     1      16.758   7.275  32.895  1.00  0.00     0.086 A 
HETATM   17  C7  UNK     1      18.604   8.756  33.541  1.00  0.00     0.039 A 
HETATM   18  N2  UNK     1      16.561   5.984  32.462  1.00  0.00    -0.228 NA
HETATM   19  C8  UNK     1      15.826   8.299  33.138  1.00  0.00     0.041 A 
HETATM   20  C5  UNK     1      16.298   9.541  33.579  1.00  0.00    -0.054 A 
HETATM   21  C14 UNK     1      15.305  10.629  33.838  1.00  0.00     0.049 C 
HETATM   22  C4  UNK     1      17.663   9.763  33.777  1.00  0.00    -0.054 A 
HETATM   23  C13 UNK     1      18.153  11.095  34.248  1.00  0.00     0.049 C 
ENDBRANCH   3  12
BRANCH  10  24
HETATM   24  O2  UNK     1      19.704  -2.018  31.380  1.00  0.00    -0.356 OA
HETATM   25  C19 UNK     1      20.349  -2.139  30.114  1.00  0.00     0.210 C 
ENDBRANCH  10  24
TORSDOF 2
ENDMDL
MODEL 9
REMARK VINA RESULT:      -8.4      7.800     10.162
REMARK  2 active torsions:
REMARK  status: ('A' for Active; 'I' for Inactive)
REMARK    1  A    between atoms: C17_22  and  O2_2 
REMARK    2  A    between atoms: C3_8  and  C6_11 
ROOT
HETATM    1  O1  UNK     1      28.127  -5.118  38.745  1.00  0.00    -0.274 OA
HETATM    2  O3  UNK     1      25.854  -4.933  38.843  1.00  0.00    -0.259 OA
HETATM    3  C6  UNK     1      26.725  -7.077  38.284  1.00  0.00     0.086 A 
HETATM    4  C9  UNK     1      29.148  -7.257  38.212  1.00  0.00    -0.001 A 
HETATM    5  C10 UNK     1      27.818  -7.829  38.085  1.00  0.00     0.035 A 
HETATM    6  C11 UNK     1      29.272  -5.911  38.537  1.00  0.00     0.092 A 
HETATM    7  C12 UNK     1      26.839  -5.637  38.642  1.00  0.00     0.302 A 
HETATM    8  C15 UNK     1      30.306  -8.011  38.013  1.00  0.00     0.017 A 
HETATM    9  C16 UNK     1      30.516  -5.298  38.669  1.00  0.00     0.075 A 
HETATM   10  C17 UNK     1      31.667  -6.058  38.472  1.00  0.00     0.070 A 
HETATM   11  C18 UNK     1      31.563  -7.412  38.144  1.00  0.00     0.038 A 
ENDROOT
BRANCH   3  12
HETATM   12  C3  UNK     1      25.431  -7.672  38.144  1.00  0.00     0.145 A 
HETATM   13  N1  UNK     1      24.495  -7.368  39.093  1.00  0.00    -0.338 N 
HETATM   14  C1  UNK     1      23.341  -8.037  38.772  1.00  0.00     0.063 A 
HETATM   15  H1  UNK     1      24.612  -6.754  39.889  1.00  0.00     0.167 HD
HETATM   16  C2  UNK     1      23.657  -8.730  37.607  1.00  0.00     0.086 A 
HETATM   17  C7  UNK     1      22.088  -8.091  39.382  1.00  0.00     0.039 A 
HETATM   18  N2  UNK     1      24.958  -8.491  37.232  1.00  0.00    -0.228 NA
HETATM   19  C8  UNK     1      22.674  -9.531  37.000  1.00  0.00     0.041 A 
HETATM   20  C5  UNK     1      21.408  -9.602  37.595  1.00  0.00    -0.054 A 
HETATM   21  C14 UNK     1      20.364 -10.455  36.948  1.00  0.00     0.049 C 
HETATM   22  C4  UNK     1      21.122  -8.894  38.764  1.00  0.00    -0.054 A 
HETATM   23  C13 UNK     1      19.766  -8.976  39.389  1.00  0.00     0.049 C 
ENDBRANCH   3  12
BRANCH  10  24
HETATM   24  O2  UNK     1      32.893  -5.481  38.595  1.00  0.00    -0.356 OA
HETATM   25  C19 UNK     1      33.901  -5.894  37.675  1.00  0.00     0.210 C 
ENDBRANCH  10  24
TORSDOF 2
ENDMDL
MODEL 10
REMARK VINA RESULT:      -8.3      3.706      8.177
REMARK  2 active torsions:
REMARK  status: ('A' for Active; 'I' for Inactive)
REMARK    1  A    between atoms: C17_22  and  O2_2 
REMARK    2  A    between atoms: C3_8  and  C6_11 
ROOT
HETATM    1  O1  UNK     1      22.235  -6.876  37.902  1.00  0.00    -0.274 OA
HETATM    2  O3  UNK     1      21.969  -4.720  38.600  1.00  0.00    -0.259 OA
HETATM    3  C6  UNK     1      20.755  -5.367  36.658  1.00  0.00     0.086 A 
HETATM    4  C9  UNK     1      21.033  -7.676  35.948  1.00  0.00    -0.001 A 
HETATM    5  C10 UNK     1      20.453  -6.351  35.797  1.00  0.00     0.035 A 
HETATM    6  C11 UNK     1      21.914  -7.907  36.998  1.00  0.00     0.092 A 
HETATM    7  C12 UNK     1      21.689  -5.600  37.793  1.00  0.00     0.302 A 
HETATM    8  C15 UNK     1      20.738  -8.723  35.073  1.00  0.00     0.017 A 
HETATM    9  C16 UNK     1      22.508  -9.151  37.198  1.00  0.00     0.075 A 
HETATM   10  C17 UNK     1      22.209 -10.192  36.321  1.00  0.00     0.070 A 
HETATM   11  C18 UNK     1      21.325  -9.978  35.260  1.00  0.00     0.038 A 
ENDROOT
BRANCH   3  12
HETATM   12  C3  UNK     1      20.171  -4.074  36.475  1.00  0.00     0.145 A 
HETATM   13  N1  UNK     1      19.492  -3.536  37.532  1.00  0.00    -0.338 N 
HETATM   14  C1  UNK     1      19.019  -2.308  37.146  1.00  0.00     0.063 A 
HETATM   15  H1  UNK     1      19.362  -3.951  38.446  1.00  0.00     0.167 HD
HETATM   16  C2  UNK     1      19.455  -2.169  35.831  1.00  0.00     0.086 A 
HETATM   17  C7  UNK     1      18.271  -1.338  37.814  1.00  0.00     0.039 A 
HETATM   18  N2  UNK     1      20.168  -3.274  35.431  1.00  0.00    -0.228 NA
HETATM   19  C8  UNK     1      19.134  -0.996  35.125  1.00  0.00     0.041 A 
HETATM   20  C5  UNK     1      18.384  -0.008  35.775  1.00  0.00    -0.054 A 
HETATM   21  C14 UNK     1      18.043   1.238  35.022  1.00  0.00     0.049 C 
HETATM   22  C4  UNK     1      17.962  -0.178  37.096  1.00  0.00    -0.054 A 
HETATM   23  C13 UNK     1      17.162   0.885  37.779  1.00  0.00     0.049 C 
ENDBRANCH   3  12
BRANCH  10  24
HETATM   24  O2  UNK     1      22.777 -11.415  36.496  1.00  0.00    -0.356 OA
HETATM   25  C19 UNK     1      23.952 -11.699  35.738  1.00  0.00     0.210 C 
ENDBRANCH  10  24
TORSDOF 2
ENDMDL
