MODEL 1
REMARK VINA RESULT:      -9.3      0.000      0.000
REMARK  1 active torsions:
REMARK  status: ('A' for Active; 'I' for Inactive)
REMARK    1  A    between atoms: C2_5  and  C8_11 
ROOT
HETATM    1  O1  UNK     1      20.222   7.446  33.467  1.00  0.00    -0.321 OA
HETATM    2  O2  UNK     1      16.453  10.050  34.982  1.00  0.00    -0.275 OA
HETATM    3  O3  UNK     1      14.623  11.242  35.664  1.00  0.00    -0.260 OA
HETATM    4  C1  UNK     1      18.132   6.884  32.819  1.00  0.00     0.012 A 
HETATM    5  C2  UNK     1      19.050   5.968  32.241  1.00  0.00     0.009 A 
HETATM    6  C3  UNK     1      16.149   8.119  33.515  1.00  0.00     0.005 A 
HETATM    7  C4  UNK     1      18.901   7.771  33.563  1.00  0.00     0.088 A 
HETATM    8  C5  UNK     1      16.733   7.059  32.793  1.00  0.00     0.030 A 
HETATM    9  C6  UNK     1      16.986   8.971  34.240  1.00  0.00     0.093 A 
HETATM   10  C7  UNK     1      18.379   8.833  34.292  1.00  0.00     0.076 A 
HETATM   11  C9  UNK     1      14.700   8.369  33.539  1.00  0.00    -0.043 A 
HETATM   12  C10 UNK     1      20.301   6.353  32.665  1.00  0.00     0.155 A 
HETATM   13  C13 UNK     1      14.226   9.400  34.252  1.00  0.00     0.090 A 
HETATM   14  C14 UNK     1      13.772   7.473  32.769  1.00  0.00     0.049 C 
HETATM   15  C16 UNK     1      15.091  10.307  35.023  1.00  0.00     0.288 A 
ENDROOT
BRANCH   5  16
HETATM   16  C8  UNK     1      18.829   4.843  31.382  1.00  0.00    -0.023 A 
HETATM   17  C11 UNK     1      19.088   4.944  30.014  1.00  0.00     0.013 A 
HETATM   18  C17 UNK     1      18.874   3.848  29.178  1.00  0.00     0.007 A 
HETATM   19  C15 UNK     1      18.399   2.649  29.708  1.00  0.00    -0.062 A 
HETATM   20  C18 UNK     1      18.138   2.544  31.074  1.00  0.00     0.007 A 
HETATM   21  C19 UNK     1      18.171   1.477  28.814  1.00  0.00     0.048 C 
HETATM   22  C12 UNK     1      18.353   3.640  31.911  1.00  0.00     0.013 A 
ENDBRANCH   5  16
TORSDOF 1
ENDMDL
MODEL 2
REMARK VINA RESULT:      -8.7      3.247      7.351
REMARK  1 active torsions:
REMARK  status: ('A' for Active; 'I' for Inactive)
REMARK    1  A    between atoms: C2_5  and  C8_11 
ROOT
HETATM    1  O1  UNK     1      18.918   4.720  29.565  1.00  0.00    -0.321 OA
HETATM    2  O2  UNK     1      18.910   0.365  31.644  1.00  0.00    -0.275 OA
HETATM    3  O3  UNK     1      18.886  -1.668  32.691  1.00  0.00    -0.260 OA
HETATM    4  C1  UNK     1      18.388   4.517  31.751  1.00  0.00     0.012 A 
HETATM    5  C2  UNK     1      18.316   5.889  31.389  1.00  0.00     0.009 A 
HETATM    6  C3  UNK     1      18.348   2.377  32.915  1.00  0.00     0.005 A 
HETATM    7  C4  UNK     1      18.762   3.841  30.596  1.00  0.00     0.088 A 
HETATM    8  C5  UNK     1      18.177   3.775  32.931  1.00  0.00     0.030 A 
HETATM    9  C6  UNK     1      18.725   1.765  31.716  1.00  0.00     0.093 A 
HETATM   10  C7  UNK     1      18.944   2.466  30.523  1.00  0.00     0.076 A 
HETATM   11  C9  UNK     1      18.148   1.532  34.103  1.00  0.00    -0.043 A 
HETATM   12  C10 UNK     1      18.647   5.957  30.056  1.00  0.00     0.155 A 
HETATM   13  C13 UNK     1      18.331   0.208  34.001  1.00  0.00     0.090 A 
HETATM   14  C14 UNK     1      17.744   2.156  35.407  1.00  0.00     0.049 C 
HETATM   15  C16 UNK     1      18.726  -0.454  32.748  1.00  0.00     0.288 A 
ENDROOT
BRANCH   5  16
HETATM   16  C8  UNK     1      17.980   7.042  32.170  1.00  0.00    -0.023 A 
HETATM   17  C11 UNK     1      16.758   7.689  31.976  1.00  0.00     0.013 A 
HETATM   18  C17 UNK     1      16.431   8.811  32.737  1.00  0.00     0.007 A 
HETATM   19  C15 UNK     1      17.325   9.289  33.695  1.00  0.00    -0.062 A 
HETATM   20  C18 UNK     1      18.547   8.646  33.891  1.00  0.00     0.007 A 
HETATM   21  C19 UNK     1      16.975  10.489  34.509  1.00  0.00     0.048 C 
HETATM   22  C12 UNK     1      18.874   7.523  33.130  1.00  0.00     0.013 A 
ENDBRANCH   5  16
TORSDOF 1
ENDMDL
MODEL 3
REMARK VINA RESULT:      -8.6      4.747      7.876
REMARK  1 active torsions:
REMARK  status: ('A' for Active; 'I' for Inactive)
REMARK    1  A    between atoms: C2_5  and  C8_11 
ROOT
HETATM    1  O1  UNK     1      18.497   1.787  31.488  1.00  0.00    -0.321 OA
HETATM    2  O2  UNK     1      18.210  -1.414  35.088  1.00  0.00    -0.275 OA
HETATM    3  O3  UNK     1      18.066  -2.877  36.840  1.00  0.00    -0.260 OA
HETATM    4  C1  UNK     1      18.239   2.504  33.615  1.00  0.00     0.012 A 
HETATM    5  C2  UNK     1      18.295   3.634  32.755  1.00  0.00     0.009 A 
HETATM    6  C3  UNK     1      18.081   0.989  35.517  1.00  0.00     0.005 A 
HETATM    7  C4  UNK     1      18.368   1.395  32.787  1.00  0.00     0.088 A 
HETATM    8  C5  UNK     1      18.093   2.301  35.002  1.00  0.00     0.030 A 
HETATM    9  C6  UNK     1      18.216  -0.078  34.624  1.00  0.00     0.093 A 
HETATM   10  C7  UNK     1      18.362   0.081  33.241  1.00  0.00     0.076 A 
HETATM   11  C9  UNK     1      17.935   0.693  36.950  1.00  0.00    -0.043 A 
HETATM   12  C10 UNK     1      18.452   3.145  31.480  1.00  0.00     0.155 A 
HETATM   13  C13 UNK     1      17.933  -0.584  37.357  1.00  0.00     0.090 A 
HETATM   14  C14 UNK     1      17.790   1.816  37.937  1.00  0.00     0.049 C 
HETATM   15  C16 UNK     1      18.072  -1.720  36.432  1.00  0.00     0.288 A 
ENDROOT
BRANCH   5  16
HETATM   16  C8  UNK     1      18.215   5.034  33.050  1.00  0.00    -0.023 A 
HETATM   17  C11 UNK     1      19.212   5.648  33.811  1.00  0.00     0.013 A 
HETATM   18  C17 UNK     1      19.134   7.012  34.096  1.00  0.00     0.007 A 
HETATM   19  C15 UNK     1      18.060   7.764  33.623  1.00  0.00    -0.062 A 
HETATM   20  C18 UNK     1      17.061   7.153  32.863  1.00  0.00     0.007 A 
HETATM   21  C19 UNK     1      17.978   9.221  33.927  1.00  0.00     0.048 C 
HETATM   22  C12 UNK     1      17.139   5.790  32.577  1.00  0.00     0.013 A 
ENDBRANCH   5  16
TORSDOF 1
ENDMDL
MODEL 4
REMARK VINA RESULT:      -8.3      7.651     10.772
REMARK  1 active torsions:
REMARK  status: ('A' for Active; 'I' for Inactive)
REMARK    1  A    between atoms: C2_5  and  C8_11 
ROOT
HETATM    1  O1  UNK     1      18.330  -0.881  36.552  1.00  0.00    -0.321 OA
HETATM    2  O2  UNK     1      18.674   0.800  32.042  1.00  0.00    -0.275 OA
HETATM    3  O3  UNK     1      18.873   1.538  29.886  1.00  0.00    -0.260 OA
HETATM    4  C1  UNK     1      19.408  -2.092  34.979  1.00  0.00     0.012 A 
HETATM    5  C2  UNK     1      19.448  -2.802  36.208  1.00  0.00     0.009 A 
HETATM    6  C3  UNK     1      19.649  -1.352  32.669  1.00  0.00     0.005 A 
HETATM    7  C4  UNK     1      18.710  -0.919  35.244  1.00  0.00     0.088 A 
HETATM    8  C5  UNK     1      19.886  -2.314  33.671  1.00  0.00     0.030 A 
HETATM    9  C6  UNK     1      18.940  -0.197  33.009  1.00  0.00     0.093 A 
HETATM   10  C7  UNK     1      18.448   0.062  34.295  1.00  0.00     0.076 A 
HETATM   11  C9  UNK     1      20.115  -1.509  31.283  1.00  0.00    -0.043 A 
HETATM   12  C10 UNK     1      18.782  -2.026  37.127  1.00  0.00     0.155 A 
HETATM   13  C13 UNK     1      19.846  -0.546  30.390  1.00  0.00     0.090 A 
HETATM   14  C14 UNK     1      20.881  -2.737  30.883  1.00  0.00     0.049 C 
HETATM   15  C16 UNK     1      19.100   0.677  30.729  1.00  0.00     0.288 A 
ENDROOT
BRANCH   5  16
HETATM   16  C8  UNK     1      20.033  -4.069  36.533  1.00  0.00    -0.023 A 
HETATM   17  C11 UNK     1      19.683  -5.210  35.808  1.00  0.00     0.013 A 
HETATM   18  C17 UNK     1      20.255  -6.442  36.125  1.00  0.00     0.007 A 
HETATM   19  C15 UNK     1      21.177  -6.537  37.167  1.00  0.00    -0.062 A 
HETATM   20  C18 UNK     1      21.528  -5.399  37.893  1.00  0.00     0.007 A 
HETATM   21  C19 UNK     1      21.788  -7.855  37.504  1.00  0.00     0.048 C 
HETATM   22  C12 UNK     1      20.957  -4.166  37.576  1.00  0.00     0.013 A 
ENDBRANCH   5  16
TORSDOF 1
ENDMDL
MODEL 5
REMARK VINA RESULT:      -8.3     22.594     24.537
REMARK  1 active torsions:
REMARK  status: ('A' for Active; 'I' for Inactive)
REMARK    1  A    between atoms: C2_5  and  C8_11 
ROOT
HETATM    1  O1  UNK     1      15.502   6.072  10.524  1.00  0.00    -0.321 OA
HETATM    2  O2  UNK     1      18.224  10.042  10.182  1.00  0.00    -0.275 OA
HETATM    3  O3  UNK     1      19.467  11.951   9.975  1.00  0.00    -0.260 OA
HETATM    4  C1  UNK     1      14.844   7.777   9.196  1.00  0.00     0.012 A 
HETATM    5  C2  UNK     1      13.876   6.740   9.120  1.00  0.00     0.009 A 
HETATM    6  C3  UNK     1      16.130   9.832   8.939  1.00  0.00     0.005 A 
HETATM    7  C4  UNK     1      15.822   7.318  10.071  1.00  0.00     0.088 A 
HETATM    8  C5  UNK     1      14.999   9.055   8.619  1.00  0.00     0.030 A 
HETATM    9  C6  UNK     1      17.071   9.304   9.827  1.00  0.00     0.093 A 
HETATM   10  C7  UNK     1      16.955   8.041  10.421  1.00  0.00     0.076 A 
HETATM   11  C9  UNK     1      16.365  11.172   8.380  1.00  0.00    -0.043 A 
HETATM   12  C10 UNK     1      14.323   5.732   9.941  1.00  0.00     0.155 A 
HETATM   13  C13 UNK     1      17.467  11.845   8.737  1.00  0.00     0.090 A 
HETATM   14  C14 UNK     1      15.374  11.768   7.422  1.00  0.00     0.049 C 
HETATM   15  C16 UNK     1      18.469  11.307   9.671  1.00  0.00     0.288 A 
ENDROOT
BRANCH   5  16
HETATM   16  C8  UNK     1      12.656   6.658   8.374  1.00  0.00    -0.023 A 
HETATM   17  C11 UNK     1      11.426   6.698   9.036  1.00  0.00     0.013 A 
HETATM   18  C17 UNK     1      10.238   6.619   8.309  1.00  0.00     0.007 A 
HETATM   19  C15 UNK     1      10.276   6.500   6.920  1.00  0.00    -0.062 A 
HETATM   20  C18 UNK     1      11.503   6.458   6.256  1.00  0.00     0.007 A 
HETATM   21  C19 UNK     1       9.006   6.416   6.144  1.00  0.00     0.048 C 
HETATM   22  C12 UNK     1      12.691   6.538   6.983  1.00  0.00     0.013 A 
ENDBRANCH   5  16
TORSDOF 1
ENDMDL
MODEL 6
REMARK VINA RESULT:      -7.9     18.635     21.876
REMARK  1 active torsions:
REMARK  status: ('A' for Active; 'I' for Inactive)
REMARK    1  A    between atoms: C2_5  and  C8_11 
ROOT
HETATM    1  O1  UNK     1      36.138  -6.090  35.864  1.00  0.00    -0.321 OA
HETATM    2  O2  UNK     1      35.948  -7.703  31.320  1.00  0.00    -0.275 OA
HETATM    3  O3  UNK     1      35.787  -8.461  29.168  1.00  0.00    -0.260 OA
HETATM    4  C1  UNK     1      34.143  -6.293  34.824  1.00  0.00     0.012 A 
HETATM    5  C2  UNK     1      33.924  -5.803  36.139  1.00  0.00     0.009 A 
HETATM    6  C3  UNK     1      33.915  -7.096  32.534  1.00  0.00     0.005 A 
HETATM    7  C4  UNK     1      35.519  -6.453  34.705  1.00  0.00     0.088 A 
HETATM    8  C5  UNK     1      33.326  -6.620  33.722  1.00  0.00     0.030 A 
HETATM    9  C6  UNK     1      35.305  -7.231  32.488  1.00  0.00     0.093 A 
HETATM   10  C7  UNK     1      36.152  -6.918  33.558  1.00  0.00     0.076 A 
HETATM   11  C9  UNK     1      33.133  -7.458  31.342  1.00  0.00    -0.043 A 
HETATM   12  C10 UNK     1      35.164  -5.698  36.726  1.00  0.00     0.155 A 
HETATM   13  C13 UNK     1      33.772  -7.903  30.251  1.00  0.00     0.090 A 
HETATM   14  C14 UNK     1      31.637  -7.327  31.358  1.00  0.00     0.049 C 
HETATM   15  C16 UNK     1      35.235  -8.050  30.183  1.00  0.00     0.288 A 
ENDROOT
BRANCH   5  16
HETATM   16  C8  UNK     1      32.709  -5.458  36.814  1.00  0.00    -0.023 A 
HETATM   17  C11 UNK     1      32.122  -6.359  37.705  1.00  0.00     0.013 A 
HETATM   18  C17 UNK     1      30.940  -6.021  38.364  1.00  0.00     0.007 A 
HETATM   19  C15 UNK     1      30.341  -4.783  38.134  1.00  0.00    -0.062 A 
HETATM   20  C18 UNK     1      30.925  -3.880  37.244  1.00  0.00     0.007 A 
HETATM   21  C19 UNK     1      29.078  -4.422  38.839  1.00  0.00     0.048 C 
HETATM   22  C12 UNK     1      32.108  -4.217  36.585  1.00  0.00     0.013 A 
ENDBRANCH   5  16
TORSDOF 1
ENDMDL
MODEL 7
REMARK VINA RESULT:      -7.9     22.716     24.314
REMARK  1 active torsions:
REMARK  status: ('A' for Active; 'I' for Inactive)
REMARK    1  A    between atoms: C2_5  and  C8_11 
ROOT
HETATM    1  O1  UNK     1      14.771   5.177   8.937  1.00  0.00    -0.321 OA
HETATM    2  O2  UNK     1       9.982   5.091   8.356  1.00  0.00    -0.275 OA
HETATM    3  O3  UNK     1       7.709   5.120   8.097  1.00  0.00    -0.260 OA
HETATM    4  C1  UNK     1      13.562   7.055   9.276  1.00  0.00     0.012 A 
HETATM    5  C2  UNK     1      14.933   7.346   9.510  1.00  0.00     0.009 A 
HETATM    6  C3  UNK     1      11.141   7.140   9.015  1.00  0.00     0.005 A 
HETATM    7  C4  UNK     1      13.516   5.710   8.927  1.00  0.00     0.088 A 
HETATM    8  C5  UNK     1      12.356   7.784   9.322  1.00  0.00     0.030 A 
HETATM    9  C6  UNK     1      11.172   5.785   8.673  1.00  0.00     0.093 A 
HETATM   10  C7  UNK     1      12.348   5.026   8.616  1.00  0.00     0.076 A 
HETATM   11  C9  UNK     1       9.841   7.829   9.041  1.00  0.00    -0.043 A 
HETATM   12  C10 UNK     1      15.621   6.175   9.292  1.00  0.00     0.155 A 
HETATM   13  C13 UNK     1       8.731   7.142   8.735  1.00  0.00     0.090 A 
HETATM   14  C14 UNK     1       9.771   9.283   9.406  1.00  0.00     0.049 C 
HETATM   15  C16 UNK     1       8.745   5.717   8.370  1.00  0.00     0.288 A 
ENDROOT
BRANCH   5  16
HETATM   16  C8  UNK     1      15.573   8.567   9.897  1.00  0.00    -0.023 A 
HETATM   17  C11 UNK     1      16.883   8.831   9.492  1.00  0.00     0.013 A 
HETATM   18  C17 UNK     1      17.505  10.022   9.869  1.00  0.00     0.007 A 
HETATM   19  C15 UNK     1      16.819  10.951  10.650  1.00  0.00    -0.062 A 
HETATM   20  C18 UNK     1      15.511  10.690  11.057  1.00  0.00     0.007 A 
HETATM   21  C19 UNK     1      17.485  12.224  11.051  1.00  0.00     0.048 C 
HETATM   22  C12 UNK     1      14.888   9.500  10.680  1.00  0.00     0.013 A 
ENDBRANCH   5  16
TORSDOF 1
ENDMDL
MODEL 8
REMARK VINA RESULT:      -7.8     18.256     20.629
REMARK  1 active torsions:
REMARK  status: ('A' for Active; 'I' for Inactive)
REMARK    1  A    between atoms: C2_5  and  C8_11 
ROOT
HETATM    1  O1  UNK     1      33.906  -3.112  34.967  1.00  0.00    -0.321 OA
HETATM    2  O2  UNK     1      30.254  -3.942  38.011  1.00  0.00    -0.275 OA
HETATM    3  O3  UNK     1      28.537  -4.405  39.450  1.00  0.00    -0.260 OA
HETATM    4  C1  UNK     1      33.405  -5.230  35.574  1.00  0.00     0.012 A 
HETATM    5  C2  UNK     1      34.509  -5.260  34.681  1.00  0.00     0.009 A 
HETATM    6  C3  UNK     1      31.587  -5.778  37.102  1.00  0.00     0.005 A 
HETATM    7  C4  UNK     1      33.072  -3.888  35.717  1.00  0.00     0.088 A 
HETATM    8  C5  UNK     1      32.652  -6.193  36.277  1.00  0.00     0.030 A 
HETATM    9  C6  UNK     1      31.311  -4.412  37.197  1.00  0.00     0.093 A 
HETATM   10  C7  UNK     1      32.034  -3.424  36.516  1.00  0.00     0.076 A 
HETATM   11  C9  UNK     1      30.754  -6.719  37.867  1.00  0.00    -0.043 A 
HETATM   12  C10 UNK     1      34.771  -3.953  34.343  1.00  0.00     0.155 A 
HETATM   13  C13 UNK     1      29.760  -6.242  38.629  1.00  0.00     0.090 A 
HETATM   14  C14 UNK     1      31.022  -8.194  37.786  1.00  0.00     0.049 C 
HETATM   15  C16 UNK     1      29.455  -4.806  38.743  1.00  0.00     0.288 A 
ENDROOT
BRANCH   5  16
HETATM   16  C8  UNK     1      35.265  -6.365  34.172  1.00  0.00    -0.023 A 
HETATM   17  C11 UNK     1      34.892  -6.976  32.973  1.00  0.00     0.013 A 
HETATM   18  C17 UNK     1      35.630  -8.051  32.476  1.00  0.00     0.007 A 
HETATM   19  C15 UNK     1      36.742  -8.518  33.177  1.00  0.00    -0.062 A 
HETATM   20  C18 UNK     1      37.117  -7.910  34.376  1.00  0.00     0.007 A 
HETATM   21  C19 UNK     1      37.530  -9.666  32.646  1.00  0.00     0.048 C 
HETATM   22  C12 UNK     1      36.379  -6.834  34.872  1.00  0.00     0.013 A 
ENDBRANCH   5  16
TORSDOF 1
ENDMDL
MODEL 9
REMARK VINA RESULT:      -7.7     17.709     21.466
REMARK  1 active torsions:
REMARK  status: ('A' for Active; 'I' for Inactive)
REMARK    1  A    between atoms: C2_5  and  C8_11 
ROOT
HETATM    1  O1  UNK     1      33.272  -9.035  28.882  1.00  0.00    -0.321 OA
HETATM    2  O2  UNK     1      36.394  -7.861  32.369  1.00  0.00    -0.275 OA
HETATM    3  O3  UNK     1      37.820  -7.274  34.058  1.00  0.00    -0.260 OA
HETATM    4  C1  UNK     1      32.550  -7.924  30.712  1.00  0.00     0.012 A 
HETATM    5  C2  UNK     1      31.445  -8.147  29.848  1.00  0.00     0.009 A 
HETATM    6  C3  UNK     1      34.026  -7.275  32.539  1.00  0.00     0.005 A 
HETATM    7  C4  UNK     1      33.648  -8.489  30.073  1.00  0.00     0.088 A 
HETATM    8  C5  UNK     1      32.740  -7.307  31.965  1.00  0.00     0.030 A 
HETATM    9  C6  UNK     1      35.083  -7.864  31.838  1.00  0.00     0.093 A 
HETATM   10  C7  UNK     1      34.937  -8.487  30.593  1.00  0.00     0.076 A 
HETATM   11  C9  UNK     1      34.307  -6.650  33.840  1.00  0.00    -0.043 A 
HETATM   12  C10 UNK     1      31.936  -8.822  28.755  1.00  0.00     0.155 A 
HETATM   13  C13 UNK     1      35.560  -6.664  34.315  1.00  0.00     0.090 A 
HETATM   14  C14 UNK     1      33.196  -6.007  34.619  1.00  0.00     0.049 C 
HETATM   15  C16 UNK     1      36.685  -7.280  33.594  1.00  0.00     0.288 A 
ENDROOT
BRANCH   5  16
HETATM   16  C8  UNK     1      30.066  -7.785  29.987  1.00  0.00    -0.023 A 
HETATM   17  C11 UNK     1      29.709  -6.452  30.205  1.00  0.00     0.013 A 
HETATM   18  C17 UNK     1      28.366  -6.100  30.339  1.00  0.00     0.007 A 
HETATM   19  C15 UNK     1      27.376  -7.079  30.255  1.00  0.00    -0.062 A 
HETATM   20  C18 UNK     1      27.729  -8.411  30.037  1.00  0.00     0.007 A 
HETATM   21  C19 UNK     1      25.941  -6.702  30.397  1.00  0.00     0.048 C 
HETATM   22  C12 UNK     1      29.073  -8.764  29.903  1.00  0.00     0.013 A 
ENDBRANCH   5  16
TORSDOF 1
ENDMDL
MODEL 10
REMARK VINA RESULT:      -7.7     17.905     19.150
REMARK  1 active torsions:
REMARK  status: ('A' for Active; 'I' for Inactive)
REMARK    1  A    between atoms: C2_5  and  C8_11 
ROOT
HETATM    1  O1  UNK     1      26.979  -9.356  36.957  1.00  0.00    -0.321 OA
HETATM    2  O2  UNK     1      28.651  -5.407  39.168  1.00  0.00    -0.275 OA
HETATM    3  O3  UNK     1      29.489  -3.525  40.162  1.00  0.00    -0.260 OA
HETATM    4  C1  UNK     1      28.636  -8.150  36.006  1.00  0.00     0.012 A 
HETATM    5  C2  UNK     1      28.330  -9.250  35.161  1.00  0.00     0.009 A 
HETATM    6  C3  UNK     1      29.565  -6.139  37.022  1.00  0.00     0.005 A 
HETATM    7  C4  UNK     1      27.779  -8.260  37.095  1.00  0.00     0.088 A 
HETATM    8  C5  UNK     1      29.545  -7.072  35.967  1.00  0.00     0.030 A 
HETATM    9  C6  UNK     1      28.673  -6.315  38.084  1.00  0.00     0.093 A 
HETATM   10  C7  UNK     1      27.756  -7.370  38.161  1.00  0.00     0.076 A 
HETATM   11  C9  UNK     1      30.482  -4.989  37.056  1.00  0.00    -0.043 A 
HETATM   12  C10 UNK     1      27.322  -9.949  35.783  1.00  0.00     0.155 A 
HETATM   13  C13 UNK     1      30.436  -4.147  38.098  1.00  0.00     0.090 A 
HETATM   14  C14 UNK     1      31.454  -4.772  35.933  1.00  0.00     0.049 C 
HETATM   15  C16 UNK     1      29.503  -4.315  39.225  1.00  0.00     0.288 A 
ENDROOT
BRANCH   5  16
HETATM   16  C8  UNK     1      28.893  -9.644  33.905  1.00  0.00    -0.023 A 
HETATM   17  C11 UNK     1      28.628  -8.900  32.753  1.00  0.00     0.013 A 
HETATM   18  C17 UNK     1      29.178  -9.283  31.530  1.00  0.00     0.007 A 
HETATM   19  C15 UNK     1      29.993 -10.412  31.454  1.00  0.00    -0.062 A 
HETATM   20  C18 UNK     1      30.259 -11.159  32.602  1.00  0.00     0.007 A 
HETATM   21  C19 UNK     1      30.581 -10.821  30.146  1.00  0.00     0.048 C 
HETATM   22  C12 UNK     1      29.710 -10.775  33.826  1.00  0.00     0.013 A 
ENDBRANCH   5  16
TORSDOF 1
ENDMDL
