MODEL 1
REMARK VINA RESULT:      -9.6      0.000      0.000
REMARK  3 active torsions:
REMARK  status: ('A' for Active; 'I' for Inactive)
REMARK       I    between atoms: C8_14  and  N1_5 
REMARK    1  A    between atoms: N1_5  and  N2_6 
REMARK       I    between atoms: C12_18  and  N2_6 
REMARK    2  A    between atoms: C3_9  and  C8_14 
REMARK    3  A    between atoms: C11_17  and  C12_18 
ROOT
HETATM    1  O3  UNK     1      20.898  -4.257  37.548  1.00  0.00    -0.266 OA
HETATM    2  N1  UNK     1      19.390  -5.083  35.978  1.00  0.00    -0.263 N 
HETATM    3  C8  UNK     1      20.043  -4.091  36.679  1.00  0.00     0.276 C 
HETATM    4  H6  UNK     1      18.661  -4.915  35.292  1.00  0.00     0.190 HD
ENDROOT
BRANCH   3   5
HETATM    5  C3  UNK     1      19.615  -2.744  36.286  1.00  0.00     0.110 A 
HETATM    6  C4  UNK     1      18.900  -2.063  37.189  1.00  0.00     0.037 A 
HETATM    7  C1  UNK     1      18.429  -0.719  36.890  1.00  0.00    -0.001 A 
HETATM    8  C2  UNK     1      18.734  -0.159  35.654  1.00  0.00     0.089 A 
HETATM    9  C5  UNK     1      17.681   0.027  37.803  1.00  0.00     0.014 A 
HETATM   10  O1  UNK     1      19.487  -0.880  34.707  1.00  0.00    -0.274 OA
HETATM   11  C6  UNK     1      18.313   1.123  35.306  1.00  0.00     0.038 A 
HETATM   12  C7  UNK     1      19.952  -2.167  34.964  1.00  0.00     0.304 A 
HETATM   13  O2  UNK     1      20.606  -2.789  34.134  1.00  0.00    -0.259 OA
HETATM   14  C10 UNK     1      17.567   1.861  36.223  1.00  0.00     0.003 A 
HETATM   15  C9  UNK     1      17.252   1.315  37.468  1.00  0.00     0.001 A 
ENDBRANCH   3   5
BRANCH   2  16
HETATM   16  N2  UNK     1      19.691  -6.397  36.244  1.00  0.00    -0.263 N 
HETATM   17  C12 UNK     1      20.365  -7.132  35.287  1.00  0.00     0.270 C 
HETATM   18  O4  UNK     1      20.727  -6.701  34.195  1.00  0.00    -0.266 OA
HETATM   19  H7  UNK     1      19.334  -6.770  37.117  1.00  0.00     0.190 HD
BRANCH  17  20
HETATM   20  C11 UNK     1      20.674  -8.538  35.654  1.00  0.00     0.033 A 
HETATM   21  C13 UNK     1      20.069  -9.083  36.767  1.00  0.00     0.017 A 
HETATM   22  C15 UNK     1      20.359 -10.403  37.113  1.00  0.00     0.001 A 
HETATM   23  C17 UNK     1      21.246 -11.147  36.336  1.00  0.00     0.000 A 
HETATM   24  C16 UNK     1      21.845 -10.572  35.215  1.00  0.00     0.001 A 
HETATM   25  C14 UNK     1      21.554  -9.252  34.871  1.00  0.00     0.017 A 
ENDBRANCH  17  20
ENDBRANCH   2  16
TORSDOF 3
ENDMDL
MODEL 2
REMARK VINA RESULT:      -9.6      0.031      1.008
REMARK  3 active torsions:
REMARK  status: ('A' for Active; 'I' for Inactive)
REMARK       I    between atoms: C8_14  and  N1_5 
REMARK    1  A    between atoms: N1_5  and  N2_6 
REMARK       I    between atoms: C12_18  and  N2_6 
REMARK    2  A    between atoms: C3_9  and  C8_14 
REMARK    3  A    between atoms: C11_17  and  C12_18 
ROOT
HETATM    1  O3  UNK     1      20.862  -4.252  37.593  1.00  0.00    -0.266 OA
HETATM    2  N1  UNK     1      19.385  -5.074  35.991  1.00  0.00    -0.263 N 
HETATM    3  C8  UNK     1      20.026  -4.084  36.707  1.00  0.00     0.276 C 
HETATM    4  H6  UNK     1      18.671  -4.904  35.290  1.00  0.00     0.190 HD
ENDROOT
BRANCH   3   5
HETATM    5  C3  UNK     1      19.607  -2.736  36.307  1.00  0.00     0.110 A 
HETATM    6  C4  UNK     1      18.884  -2.051  37.202  1.00  0.00     0.037 A 
HETATM    7  C1  UNK     1      18.422  -0.706  36.896  1.00  0.00    -0.001 A 
HETATM    8  C2  UNK     1      18.744  -0.148  35.664  1.00  0.00     0.089 A 
HETATM    9  C5  UNK     1      17.666   0.044  37.799  1.00  0.00     0.014 A 
HETATM   10  O1  UNK     1      19.505  -0.873  34.726  1.00  0.00    -0.274 OA
HETATM   11  C6  UNK     1      18.332   1.136  35.309  1.00  0.00     0.038 A 
HETATM   12  C7  UNK     1      19.962  -2.161  34.990  1.00  0.00     0.304 A 
HETATM   13  O2  UNK     1      20.623  -2.787  34.167  1.00  0.00    -0.259 OA
HETATM   14  C10 UNK     1      17.578   1.877  36.216  1.00  0.00     0.003 A 
HETATM   15  C9  UNK     1      17.245   1.333  37.458  1.00  0.00     0.001 A 
ENDBRANCH   3   5
BRANCH   2  16
HETATM   16  N2  UNK     1      19.679  -6.389  36.261  1.00  0.00    -0.263 N 
HETATM   17  C12 UNK     1      20.361  -7.126  35.311  1.00  0.00     0.270 C 
HETATM   18  O4  UNK     1      20.735  -6.697  34.222  1.00  0.00    -0.266 OA
HETATM   19  H7  UNK     1      19.312  -6.760  37.130  1.00  0.00     0.190 HD
BRANCH  17  20
HETATM   20  C11 UNK     1      20.661  -8.533  35.681  1.00  0.00     0.033 A 
HETATM   21  C13 UNK     1      21.550  -9.250  34.907  1.00  0.00     0.017 A 
HETATM   22  C15 UNK     1      21.832 -10.571  35.254  1.00  0.00     0.001 A 
HETATM   23  C17 UNK     1      21.218 -11.145  36.367  1.00  0.00     0.000 A 
HETATM   24  C16 UNK     1      20.323 -10.399  37.133  1.00  0.00     0.001 A 
HETATM   25  C14 UNK     1      20.042  -9.078  36.786  1.00  0.00     0.017 A 
ENDBRANCH  17  20
ENDBRANCH   2  16
TORSDOF 3
ENDMDL
MODEL 3
REMARK VINA RESULT:      -9.5      8.459     10.901
REMARK  3 active torsions:
REMARK  status: ('A' for Active; 'I' for Inactive)
REMARK       I    between atoms: C8_14  and  N1_5 
REMARK    1  A    between atoms: N1_5  and  N2_6 
REMARK       I    between atoms: C12_18  and  N2_6 
REMARK    2  A    between atoms: C3_9  and  C8_14 
REMARK    3  A    between atoms: C11_17  and  C12_18 
ROOT
HETATM    1  O3  UNK     1      19.261   6.188  29.842  1.00  0.00    -0.266 OA
HETATM    2  N1  UNK     1      18.677   4.629  31.470  1.00  0.00    -0.263 N 
HETATM    3  C8  UNK     1      18.802   5.898  30.945  1.00  0.00     0.276 C 
HETATM    4  H6  UNK     1      18.327   4.425  32.400  1.00  0.00     0.190 HD
ENDROOT
BRANCH   3   5
HETATM    5  C3  UNK     1      18.315   6.938  31.859  1.00  0.00     0.110 A 
HETATM    6  C4  UNK     1      17.093   7.423  31.607  1.00  0.00     0.037 A 
HETATM    7  C1  UNK     1      16.524   8.457  32.458  1.00  0.00    -0.001 A 
HETATM    8  C2  UNK     1      17.271   8.931  33.531  1.00  0.00     0.089 A 
HETATM    9  C5  UNK     1      15.254   8.991  32.232  1.00  0.00     0.014 A 
HETATM   10  O1  UNK     1      18.557   8.418  33.791  1.00  0.00    -0.274 OA
HETATM   11  C6  UNK     1      16.785   9.922  34.383  1.00  0.00     0.038 A 
HETATM   12  C7  UNK     1      19.127   7.428  32.996  1.00  0.00     0.304 A 
HETATM   13  O2  UNK     1      20.248   6.987  33.229  1.00  0.00    -0.259 OA
HETATM   14  C10 UNK     1      15.516  10.448  34.150  1.00  0.00     0.003 A 
HETATM   15  C9  UNK     1      14.752   9.985  33.078  1.00  0.00     0.001 A 
ENDBRANCH   3   5
BRANCH   2  16
HETATM   16  N2  UNK     1      19.095   3.554  30.722  1.00  0.00    -0.263 N 
HETATM   17  C12 UNK     1      18.652   2.291  31.068  1.00  0.00     0.270 C 
HETATM   18  O4  UNK     1      17.900   2.042  32.007  1.00  0.00    -0.266 OA
HETATM   19  H7  UNK     1      19.767   3.753  29.990  1.00  0.00     0.190 HD
BRANCH  17  20
HETATM   20  C11 UNK     1      19.129   1.182  30.202  1.00  0.00     0.033 A 
HETATM   21  C13 UNK     1      20.108   0.338  30.681  1.00  0.00     0.017 A 
HETATM   22  C15 UNK     1      20.557  -0.703  29.868  1.00  0.00     0.001 A 
HETATM   23  C17 UNK     1      20.015  -0.875  28.595  1.00  0.00     0.000 A 
HETATM   24  C16 UNK     1      19.025  -0.007  28.133  1.00  0.00     0.001 A 
HETATM   25  C14 UNK     1      18.578   1.034  28.947  1.00  0.00     0.017 A 
ENDBRANCH  17  20
ENDBRANCH   2  16
TORSDOF 3
ENDMDL
MODEL 4
REMARK VINA RESULT:      -9.4      1.517      8.609
REMARK  3 active torsions:
REMARK  status: ('A' for Active; 'I' for Inactive)
REMARK       I    between atoms: C8_14  and  N1_5 
REMARK    1  A    between atoms: N1_5  and  N2_6 
REMARK       I    between atoms: C12_18  and  N2_6 
REMARK    2  A    between atoms: C3_9  and  C8_14 
REMARK    3  A    between atoms: C11_17  and  C12_18 
ROOT
HETATM    1  O3  UNK     1      17.192  -5.885  36.742  1.00  0.00    -0.266 OA
HETATM    2  N1  UNK     1      18.978  -4.424  36.433  1.00  0.00    -0.263 N 
HETATM    3  C8  UNK     1      18.372  -5.661  36.476  1.00  0.00     0.276 C 
HETATM    4  H6  UNK     1      19.965  -4.275  36.245  1.00  0.00     0.190 HD
ENDROOT
BRANCH   3   5
HETATM    5  C3  UNK     1      19.297  -6.756  36.161  1.00  0.00     0.110 A 
HETATM    6  C4  UNK     1      19.218  -7.840  36.943  1.00  0.00     0.037 A 
HETATM    7  C1  UNK     1      20.095  -8.977  36.710  1.00  0.00    -0.001 A 
HETATM    8  C2  UNK     1      21.013  -8.916  35.667  1.00  0.00     0.089 A 
HETATM    9  C5  UNK     1      20.046 -10.128  37.499  1.00  0.00     0.014 A 
HETATM   10  O1  UNK     1      21.092  -7.773  34.848  1.00  0.00    -0.274 OA
HETATM   11  C6  UNK     1      21.881  -9.972  35.391  1.00  0.00     0.038 A 
HETATM   12  C7  UNK     1      20.266  -6.670  35.045  1.00  0.00     0.304 A 
HETATM   13  O2  UNK     1      20.342  -5.678  34.328  1.00  0.00    -0.259 OA
HETATM   14  C10 UNK     1      21.826 -11.116  36.184  1.00  0.00     0.003 A 
HETATM   15  C9  UNK     1      20.912 -11.195  37.235  1.00  0.00     0.001 A 
ENDBRANCH   3   5
BRANCH   2  16
HETATM   16  N2  UNK     1      18.230  -3.304  36.707  1.00  0.00    -0.263 N 
HETATM   17  C12 UNK     1      18.623  -2.093  36.168  1.00  0.00     0.270 C 
HETATM   18  O4  UNK     1      19.605  -1.929  35.448  1.00  0.00    -0.266 OA
HETATM   19  H7  UNK     1      17.460  -3.429  37.354  1.00  0.00     0.190 HD
BRANCH  17  20
HETATM   20  C11 UNK     1      17.754  -0.933  36.491  1.00  0.00     0.033 A 
HETATM   21  C13 UNK     1      16.663  -0.674  35.687  1.00  0.00     0.017 A 
HETATM   22  C15 UNK     1      15.847   0.416  35.989  1.00  0.00     0.001 A 
HETATM   23  C17 UNK     1      16.140   1.222  37.089  1.00  0.00     0.000 A 
HETATM   24  C16 UNK     1      17.250   0.940  37.886  1.00  0.00     0.001 A 
HETATM   25  C14 UNK     1      18.065  -0.151  37.583  1.00  0.00     0.017 A 
ENDBRANCH  17  20
ENDBRANCH   2  16
TORSDOF 3
ENDMDL
MODEL 5
REMARK VINA RESULT:      -9.4      8.430     10.480
REMARK  3 active torsions:
REMARK  status: ('A' for Active; 'I' for Inactive)
REMARK       I    between atoms: C8_14  and  N1_5 
REMARK    1  A    between atoms: N1_5  and  N2_6 
REMARK       I    between atoms: C12_18  and  N2_6 
REMARK    2  A    between atoms: C3_9  and  C8_14 
REMARK    3  A    between atoms: C11_17  and  C12_18 
ROOT
HETATM    1  O3  UNK     1      18.348   3.902  33.296  1.00  0.00    -0.266 OA
HETATM    2  N1  UNK     1      18.860   4.657  31.153  1.00  0.00    -0.263 N 
HETATM    3  C8  UNK     1      18.379   4.785  32.439  1.00  0.00     0.276 C 
HETATM    4  H6  UNK     1      18.838   5.395  30.457  1.00  0.00     0.190 HD
ENDROOT
BRANCH   3   5
HETATM    5  C3  UNK     1      17.877   6.134  32.724  1.00  0.00     0.110 A 
HETATM    6  C4  UNK     1      16.546   6.276  32.750  1.00  0.00     0.037 A 
HETATM    7  C1  UNK     1      15.953   7.577  33.023  1.00  0.00    -0.001 A 
HETATM    8  C2  UNK     1      16.790   8.662  33.255  1.00  0.00     0.089 A 
HETATM    9  C5  UNK     1      14.570   7.771  33.061  1.00  0.00     0.014 A 
HETATM   10  O1  UNK     1      18.190   8.507  33.227  1.00  0.00    -0.274 OA
HETATM   11  C6  UNK     1      16.286   9.934  33.522  1.00  0.00     0.038 A 
HETATM   12  C7  UNK     1      18.787   7.276  32.969  1.00  0.00     0.304 A 
HETATM   13  O2  UNK     1      20.006   7.149  32.945  1.00  0.00    -0.259 OA
HETATM   14  C10 UNK     1      14.906  10.119  33.557  1.00  0.00     0.003 A 
HETATM   15  C9  UNK     1      14.049   9.041  33.327  1.00  0.00     0.001 A 
ENDBRANCH   3   5
BRANCH   2  16
HETATM   16  N2  UNK     1      19.362   3.445  30.746  1.00  0.00    -0.263 N 
HETATM   17  C12 UNK     1      18.478   2.443  30.394  1.00  0.00     0.270 C 
HETATM   18  O4  UNK     1      17.254   2.545  30.413  1.00  0.00    -0.266 OA
HETATM   19  H7  UNK     1      20.369   3.340  30.794  1.00  0.00     0.190 HD
BRANCH  17  20
HETATM   20  C11 UNK     1      19.095   1.168  29.944  1.00  0.00     0.033 A 
HETATM   21  C13 UNK     1      18.835   0.717  28.667  1.00  0.00     0.017 A 
HETATM   22  C15 UNK     1      19.413  -0.480  28.244  1.00  0.00     0.001 A 
HETATM   23  C17 UNK     1      20.239  -1.198  29.109  1.00  0.00     0.000 A 
HETATM   24  C16 UNK     1      20.486  -0.720  30.396  1.00  0.00     0.001 A 
HETATM   25  C14 UNK     1      19.907   0.477  30.817  1.00  0.00     0.017 A 
ENDBRANCH  17  20
ENDBRANCH   2  16
TORSDOF 3
ENDMDL
MODEL 6
REMARK VINA RESULT:      -9.2      3.231      4.607
REMARK  3 active torsions:
REMARK  status: ('A' for Active; 'I' for Inactive)
REMARK       I    between atoms: C8_14  and  N1_5 
REMARK    1  A    between atoms: N1_5  and  N2_6 
REMARK       I    between atoms: C12_18  and  N2_6 
REMARK    2  A    between atoms: C3_9  and  C8_14 
REMARK    3  A    between atoms: C11_17  and  C12_18 
ROOT
HETATM    1  O3  UNK     1      21.350  -2.247  35.403  1.00  0.00    -0.266 OA
HETATM    2  N1  UNK     1      19.272  -3.275  35.193  1.00  0.00    -0.263 N 
HETATM    3  C8  UNK     1      20.267  -2.388  34.839  1.00  0.00     0.276 C 
HETATM    4  H6  UNK     1      18.372  -3.342  34.729  1.00  0.00     0.190 HD
ENDROOT
BRANCH   3   5
HETATM    5  C3  UNK     1      19.911  -1.576  33.669  1.00  0.00     0.110 A 
HETATM    6  C4  UNK     1      20.469  -1.937  32.507  1.00  0.00     0.037 A 
HETATM    7  C1  UNK     1      20.178  -1.193  31.291  1.00  0.00    -0.001 A 
HETATM    8  C2  UNK     1      19.314  -0.105  31.360  1.00  0.00     0.089 A 
HETATM    9  C5  UNK     1      20.737  -1.534  30.058  1.00  0.00     0.014 A 
HETATM   10  O1  UNK     1      18.730   0.271  32.585  1.00  0.00    -0.274 OA
HETATM   11  C6  UNK     1      18.994   0.650  30.232  1.00  0.00     0.038 A 
HETATM   12  C7  UNK     1      18.989  -0.422  33.764  1.00  0.00     0.304 A 
HETATM   13  O2  UNK     1      18.477  -0.088  34.828  1.00  0.00    -0.259 OA
HETATM   14  C10 UNK     1      19.557   0.303  29.006  1.00  0.00     0.003 A 
HETATM   15  C9  UNK     1      20.425  -0.786  28.918  1.00  0.00     0.001 A 
ENDBRANCH   3   5
BRANCH   2  16
HETATM   16  N2  UNK     1      19.468  -4.101  36.273  1.00  0.00    -0.263 N 
HETATM   17  C12 UNK     1      19.901  -5.395  36.052  1.00  0.00     0.270 C 
HETATM   18  O4  UNK     1      20.131  -5.881  34.947  1.00  0.00    -0.266 OA
HETATM   19  H7  UNK     1      19.215  -3.721  37.178  1.00  0.00     0.190 HD
BRANCH  17  20
HETATM   20  C11 UNK     1      20.111  -6.221  37.269  1.00  0.00     0.033 A 
HETATM   21  C13 UNK     1      21.198  -5.955  38.074  1.00  0.00     0.017 A 
HETATM   22  C15 UNK     1      21.397  -6.730  39.216  1.00  0.00     0.001 A 
HETATM   23  C17 UNK     1      20.501  -7.754  39.527  1.00  0.00     0.000 A 
HETATM   24  C16 UNK     1      19.409  -8.003  38.696  1.00  0.00     0.001 A 
HETATM   25  C14 UNK     1      19.212  -7.227  37.554  1.00  0.00     0.017 A 
ENDBRANCH  17  20
ENDBRANCH   2  16
TORSDOF 3
ENDMDL
MODEL 7
REMARK VINA RESULT:      -9.1      1.442      8.402
REMARK  3 active torsions:
REMARK  status: ('A' for Active; 'I' for Inactive)
REMARK       I    between atoms: C8_14  and  N1_5 
REMARK    1  A    between atoms: N1_5  and  N2_6 
REMARK       I    between atoms: C12_18  and  N2_6 
REMARK    2  A    between atoms: C3_9  and  C8_14 
REMARK    3  A    between atoms: C11_17  and  C12_18 
ROOT
HETATM    1  O3  UNK     1      20.289  -4.386  34.934  1.00  0.00    -0.266 OA
HETATM    2  N1  UNK     1      18.588  -4.548  36.515  1.00  0.00    -0.263 N 
HETATM    3  C8  UNK     1      19.614  -5.034  35.732  1.00  0.00     0.276 C 
HETATM    4  H6  UNK     1      18.024  -5.118  37.138  1.00  0.00     0.190 HD
ENDROOT
BRANCH   3   5
HETATM    5  C3  UNK     1      19.852  -6.467  35.935  1.00  0.00     0.110 A 
HETATM    6  C4  UNK     1      19.458  -6.971  37.111  1.00  0.00     0.037 A 
HETATM    7  C1  UNK     1      19.652  -8.383  37.406  1.00  0.00    -0.001 A 
HETATM    8  C2  UNK     1      20.252  -9.193  36.449  1.00  0.00     0.089 A 
HETATM    9  C5  UNK     1      19.256  -8.951  38.619  1.00  0.00     0.014 A 
HETATM   10  O1  UNK     1      20.665  -8.658  35.213  1.00  0.00    -0.274 OA
HETATM   11  C6  UNK     1      20.467 -10.553  36.669  1.00  0.00     0.038 A 
HETATM   12  C7  UNK     1      20.492  -7.312  34.901  1.00  0.00     0.304 A 
HETATM   13  O2  UNK     1      20.855  -6.853  33.823  1.00  0.00    -0.259 OA
HETATM   14  C10 UNK     1      20.069 -11.111  37.882  1.00  0.00     0.003 A 
HETATM   15  C9  UNK     1      19.466 -10.313  38.854  1.00  0.00     0.001 A 
ENDBRANCH   3   5
BRANCH   2  16
HETATM   16  N2  UNK     1      18.253  -3.219  36.428  1.00  0.00    -0.263 N 
HETATM   17  C12 UNK     1      18.952  -2.305  37.194  1.00  0.00     0.270 C 
HETATM   18  O4  UNK     1      19.868  -2.587  37.964  1.00  0.00    -0.266 OA
HETATM   19  H7  UNK     1      17.455  -2.996  35.844  1.00  0.00     0.190 HD
BRANCH  17  20
HETATM   20  C11 UNK     1      18.549  -0.885  37.031  1.00  0.00     0.033 A 
HETATM   21  C13 UNK     1      17.854  -0.269  38.052  1.00  0.00     0.017 A 
HETATM   22  C15 UNK     1      17.474   1.064  37.900  1.00  0.00     0.001 A 
HETATM   23  C17 UNK     1      17.798   1.751  36.730  1.00  0.00     0.000 A 
HETATM   24  C16 UNK     1      18.500   1.105  35.712  1.00  0.00     0.001 A 
HETATM   25  C14 UNK     1      18.880  -0.228  35.866  1.00  0.00     0.017 A 
ENDBRANCH  17  20
ENDBRANCH   2  16
TORSDOF 3
ENDMDL
MODEL 8
REMARK VINA RESULT:      -9.1      8.676     10.784
REMARK  3 active torsions:
REMARK  status: ('A' for Active; 'I' for Inactive)
REMARK       I    between atoms: C8_14  and  N1_5 
REMARK    1  A    between atoms: N1_5  and  N2_6 
REMARK       I    between atoms: C12_18  and  N2_6 
REMARK    2  A    between atoms: C3_9  and  C8_14 
REMARK    3  A    between atoms: C11_17  and  C12_18 
ROOT
HETATM    1  O3  UNK     1      19.028   4.434  33.347  1.00  0.00    -0.266 OA
HETATM    2  N1  UNK     1      18.654   4.931  31.103  1.00  0.00    -0.263 N 
HETATM    3  C8  UNK     1      18.622   5.182  32.458  1.00  0.00     0.276 C 
HETATM    4  H6  UNK     1      18.277   5.553  30.395  1.00  0.00     0.190 HD
ENDROOT
BRANCH   3   5
HETATM    5  C3  UNK     1      18.032   6.487  32.779  1.00  0.00     0.110 A 
HETATM    6  C4  UNK     1      18.876   7.425  33.224  1.00  0.00     0.037 A 
HETATM    7  C1  UNK     1      18.385   8.750  33.569  1.00  0.00    -0.001 A 
HETATM    8  C2  UNK     1      17.028   9.022  33.428  1.00  0.00     0.089 A 
HETATM    9  C5  UNK     1      19.230   9.759  34.036  1.00  0.00     0.014 A 
HETATM   10  O1  UNK     1      16.144   8.031  32.959  1.00  0.00    -0.274 OA
HETATM   11  C6  UNK     1      16.494  10.271  33.741  1.00  0.00     0.038 A 
HETATM   12  C7  UNK     1      16.584   6.754  32.621  1.00  0.00     0.304 A 
HETATM   13  O2  UNK     1      15.808   5.896  32.214  1.00  0.00    -0.259 OA
HETATM   14  C10 UNK     1      17.344  11.271  34.207  1.00  0.00     0.003 A 
HETATM   15  C9  UNK     1      18.708  11.017  34.355  1.00  0.00     0.001 A 
ENDBRANCH   3   5
BRANCH   2  16
HETATM   16  N2  UNK     1      19.181   3.743  30.656  1.00  0.00    -0.263 N 
HETATM   17  C12 UNK     1      18.334   2.665  30.479  1.00  0.00     0.270 C 
HETATM   18  O4  UNK     1      17.124   2.677  30.691  1.00  0.00    -0.266 OA
HETATM   19  H7  UNK     1      20.188   3.714  30.546  1.00  0.00     0.190 HD
BRANCH  17  20
HETATM   20  C11 UNK     1      18.972   1.421  29.974  1.00  0.00     0.033 A 
HETATM   21  C13 UNK     1      19.884   0.768  30.778  1.00  0.00     0.017 A 
HETATM   22  C15 UNK     1      20.484  -0.399  30.305  1.00  0.00     0.001 A 
HETATM   23  C17 UNK     1      20.158  -0.886  29.039  1.00  0.00     0.000 A 
HETATM   24  C16 UNK     1      19.234  -0.206  28.246  1.00  0.00     0.001 A 
HETATM   25  C14 UNK     1      18.634   0.961  28.720  1.00  0.00     0.017 A 
ENDBRANCH  17  20
ENDBRANCH   2  16
TORSDOF 3
ENDMDL
MODEL 9
REMARK VINA RESULT:      -9.1      6.934      9.284
REMARK  3 active torsions:
REMARK  status: ('A' for Active; 'I' for Inactive)
REMARK       I    between atoms: C8_14  and  N1_5 
REMARK    1  A    between atoms: N1_5  and  N2_6 
REMARK       I    between atoms: C12_18  and  N2_6 
REMARK    2  A    between atoms: C3_9  and  C8_14 
REMARK    3  A    between atoms: C11_17  and  C12_18 
ROOT
HETATM    1  O3  UNK     1      26.315  -9.123  39.621  1.00  0.00    -0.266 OA
HETATM    2  N1  UNK     1      25.097  -7.826  38.119  1.00  0.00    -0.263 N 
HETATM    3  C8  UNK     1      26.195  -8.139  38.893  1.00  0.00     0.276 C 
HETATM    4  H6  UNK     1      25.013  -6.985  37.557  1.00  0.00     0.190 HD
ENDROOT
BRANCH   3   5
HETATM    5  C3  UNK     1      27.271  -7.149  38.775  1.00  0.00     0.110 A 
HETATM    6  C4  UNK     1      28.513  -7.636  38.658  1.00  0.00     0.037 A 
HETATM    7  C1  UNK     1      29.646  -6.732  38.536  1.00  0.00    -0.001 A 
HETATM    8  C2  UNK     1      29.417  -5.361  38.544  1.00  0.00     0.089 A 
HETATM    9  C5  UNK     1      30.958  -7.196  38.412  1.00  0.00     0.014 A 
HETATM   10  O1  UNK     1      28.108  -4.854  38.666  1.00  0.00    -0.274 OA
HETATM   11  C6  UNK     1      30.459  -4.442  38.431  1.00  0.00     0.038 A 
HETATM   12  C7  UNK     1      27.004  -5.693  38.784  1.00  0.00     0.304 A 
HETATM   13  O2  UNK     1      25.868  -5.243  38.892  1.00  0.00    -0.259 OA
HETATM   14  C10 UNK     1      31.764  -4.913  38.308  1.00  0.00     0.003 A 
HETATM   15  C9  UNK     1      32.014  -6.287  38.298  1.00  0.00     0.001 A 
ENDBRANCH   3   5
BRANCH   2  16
HETATM   16  N2  UNK     1      24.010  -8.666  38.132  1.00  0.00    -0.263 N 
HETATM   17  C12 UNK     1      22.745  -8.119  38.030  1.00  0.00     0.270 C 
HETATM   18  O4  UNK     1      22.503  -6.919  37.927  1.00  0.00    -0.266 OA
HETATM   19  H7  UNK     1      24.207  -9.649  38.285  1.00  0.00     0.190 HD
BRANCH  17  20
HETATM   20  C11 UNK     1      21.621  -9.091  38.030  1.00  0.00     0.033 A 
HETATM   21  C13 UNK     1      21.522  -9.993  36.991  1.00  0.00     0.017 A 
HETATM   22  C15 UNK     1      20.467 -10.905  36.990  1.00  0.00     0.001 A 
HETATM   23  C17 UNK     1      19.535 -10.895  38.028  1.00  0.00     0.000 A 
HETATM   24  C16 UNK     1      19.658  -9.972  39.067  1.00  0.00     0.001 A 
HETATM   25  C14 UNK     1      20.713  -9.060  39.067  1.00  0.00     0.017 A 
ENDBRANCH  17  20
ENDBRANCH   2  16
TORSDOF 3
ENDMDL
MODEL 10
REMARK VINA RESULT:      -9.0      7.935     12.595
REMARK  3 active torsions:
REMARK  status: ('A' for Active; 'I' for Inactive)
REMARK       I    between atoms: C8_14  and  N1_5 
REMARK    1  A    between atoms: N1_5  and  N2_6 
REMARK       I    between atoms: C12_18  and  N2_6 
REMARK    2  A    between atoms: C3_9  and  C8_14 
REMARK    3  A    between atoms: C11_17  and  C12_18 
ROOT
HETATM    1  O3  UNK     1      17.368   3.746  32.114  1.00  0.00    -0.266 OA
HETATM    2  N1  UNK     1      19.079   4.846  30.980  1.00  0.00    -0.263 N 
HETATM    3  C8  UNK     1      18.304   3.755  31.316  1.00  0.00     0.276 C 
HETATM    4  H6  UNK     1      19.869   4.814  30.344  1.00  0.00     0.190 HD
ENDROOT
BRANCH   3   5
HETATM    5  C3  UNK     1      18.707   2.535  30.608  1.00  0.00     0.110 A 
HETATM    6  C4  UNK     1      19.190   1.543  31.365  1.00  0.00     0.037 A 
HETATM    7  C1  UNK     1      19.616   0.294  30.753  1.00  0.00    -0.001 A 
HETATM    8  C2  UNK     1      19.514   0.152  29.373  1.00  0.00     0.089 A 
HETATM    9  C5  UNK     1      20.125  -0.768  31.505  1.00  0.00     0.014 A 
HETATM   10  O1  UNK     1      19.006   1.199  28.581  1.00  0.00    -0.274 OA
HETATM   11  C6  UNK     1      19.906  -1.019  28.725  1.00  0.00     0.038 A 
HETATM   12  C7  UNK     1      18.590   2.406  29.137  1.00  0.00     0.304 A 
HETATM   13  O2  UNK     1      18.149   3.313  28.440  1.00  0.00    -0.259 OA
HETATM   14  C10 UNK     1      20.412  -2.072  29.483  1.00  0.00     0.003 A 
HETATM   15  C9  UNK     1      20.522  -1.948  30.869  1.00  0.00     0.001 A 
ENDBRANCH   3   5
BRANCH   2  16
HETATM   16  N2  UNK     1      18.814   6.059  31.569  1.00  0.00    -0.263 N 
HETATM   17  C12 UNK     1      19.529   6.421  32.696  1.00  0.00     0.270 C 
HETATM   18  O4  UNK     1      20.400   5.736  33.227  1.00  0.00    -0.266 OA
HETATM   19  H7  UNK     1      18.051   6.593  31.170  1.00  0.00     0.190 HD
BRANCH  17  20
HETATM   20  C11 UNK     1      19.203   7.754  33.264  1.00  0.00     0.033 A 
HETATM   21  C13 UNK     1      17.931   8.259  33.089  1.00  0.00     0.017 A 
HETATM   22  C15 UNK     1      17.624   9.511  33.621  1.00  0.00     0.001 A 
HETATM   23  C17 UNK     1      18.597  10.230  34.317  1.00  0.00     0.000 A 
HETATM   24  C16 UNK     1      19.876   9.697  34.479  1.00  0.00     0.001 A 
HETATM   25  C14 UNK     1      20.181   8.445  33.946  1.00  0.00     0.017 A 
ENDBRANCH  17  20
ENDBRANCH   2  16
TORSDOF 3
ENDMDL
