MODEL 1
REMARK VINA RESULT:      -9.2      0.000      0.000
REMARK  6 active torsions:
REMARK  status: ('A' for Active; 'I' for Inactive)
REMARK    1  A    between atoms: C2_7  and  O1_3 
REMARK    2  A    between atoms: C5_10  and  O1_3 
REMARK    3  A    between atoms: C3_8  and  O2_4 
REMARK    4  A    between atoms: C1_6  and  C9_14 
REMARK    5  A    between atoms: C5_10  and  C8_13 
REMARK    6  A    between atoms: C10_15  and  C11_16 
ROOT
HETATM    1  N1  UNK     1      22.132  -1.758  35.329  1.00  0.00    -0.191 NA
HETATM    2  C9  UNK     1      18.758  -2.427  35.968  1.00  0.00     0.036 C 
HETATM    3  C10 UNK     1      19.986  -2.923  36.170  1.00  0.00     0.055 C 
HETATM    4  C23 UNK     1      21.170  -2.286  35.709  1.00  0.00     0.100 C 
ENDROOT
BRANCH   3   5
HETATM    5  C11 UNK     1      20.099  -4.196  36.864  1.00  0.00    -0.015 A 
HETATM    6  C14 UNK     1      21.194  -4.443  37.693  1.00  0.00     0.014 A 
HETATM    7  C19 UNK     1      21.303  -5.664  38.358  1.00  0.00     0.024 A 
HETATM    8  C21 UNK     1      20.318  -6.638  38.195  1.00  0.00     0.034 A 
HETATM    9  C20 UNK     1      19.223  -6.391  37.367  1.00  0.00     0.024 A 
HETATM   10 Cl1  UNK     1      20.453  -8.144  39.016  1.00  0.00    -0.084 Cl
HETATM   11  C15 UNK     1      19.114  -5.170  36.700  1.00  0.00     0.014 A 
ENDBRANCH   3   5
BRANCH   2  12
HETATM   12  C1  UNK     1      18.458  -1.162  35.281  1.00  0.00    -0.015 A 
HETATM   13  C4  UNK     1      18.673  -1.120  33.910  1.00  0.00     0.052 A 
HETATM   14  C3  UNK     1      18.405   0.054  33.207  1.00  0.00     0.102 A 
HETATM   15  C2  UNK     1      17.926   1.176  33.880  1.00  0.00     0.103 A 
HETATM   16  C7  UNK     1      17.713   1.125  35.259  1.00  0.00     0.059 A 
HETATM   17  C6  UNK     1      17.980  -0.050  35.961  1.00  0.00     0.024 A 
HETATM   18 Br1  UNK     1      17.668  -0.053  37.836  1.00  0.00    -0.050 Br
BRANCH  14  19
HETATM   19  O2  UNK     1      18.617   0.092  31.861  1.00  0.00    -0.353 OA
HETATM   20  C22 UNK     1      19.699  -0.686  31.353  1.00  0.00     0.210 C 
ENDBRANCH  14  19
BRANCH  15  21
HETATM   21  O1  UNK     1      17.660   2.329  33.205  1.00  0.00    -0.344 OA
BRANCH  21  22
HETATM   22  C5  UNK     1      18.279   3.521  33.685  1.00  0.00     0.214 C 
BRANCH  22  23
HETATM   23  C8  UNK     1      18.655   4.383  32.516  1.00  0.00    -0.034 A 
HETATM   24  C12 UNK     1      18.615   3.856  31.230  1.00  0.00     0.009 A 
HETATM   25  C16 UNK     1      18.964   4.658  30.144  1.00  0.00     0.001 A 
HETATM   26  C18 UNK     1      19.352   5.981  30.350  1.00  0.00     0.000 A 
HETATM   27  C17 UNK     1      19.390   6.504  31.643  1.00  0.00     0.001 A 
HETATM   28  C13 UNK     1      19.040   5.701  32.730  1.00  0.00     0.009 A 
ENDBRANCH  22  23
ENDBRANCH  21  22
ENDBRANCH  15  21
ENDBRANCH   2  12
TORSDOF 6
ENDMDL
MODEL 2
REMARK VINA RESULT:      -8.9      6.139     10.737
REMARK  6 active torsions:
REMARK  status: ('A' for Active; 'I' for Inactive)
REMARK    1  A    between atoms: C2_7  and  O1_3 
REMARK    2  A    between atoms: C5_10  and  O1_3 
REMARK    3  A    between atoms: C3_8  and  O2_4 
REMARK    4  A    between atoms: C1_6  and  C9_14 
REMARK    5  A    between atoms: C5_10  and  C8_13 
REMARK    6  A    between atoms: C10_15  and  C11_16 
ROOT
HETATM    1  N1  UNK     1      15.084   6.837  32.176  1.00  0.00    -0.191 NA
HETATM    2  C9  UNK     1      18.448   6.724  33.133  1.00  0.00     0.036 C 
HETATM    3  C10 UNK     1      17.395   7.551  33.082  1.00  0.00     0.055 C 
HETATM    4  C23 UNK     1      16.122   7.163  32.584  1.00  0.00     0.100 C 
ENDROOT
BRANCH   3   5
HETATM    5  C11 UNK     1      17.587   8.922  33.527  1.00  0.00    -0.015 A 
HETATM    6  C14 UNK     1      16.482   9.750  33.728  1.00  0.00     0.014 A 
HETATM    7  C19 UNK     1      16.665  11.066  34.155  1.00  0.00     0.024 A 
HETATM    8  C21 UNK     1      17.953  11.553  34.379  1.00  0.00     0.034 A 
HETATM    9  C20 UNK     1      19.057  10.725  34.177  1.00  0.00     0.024 A 
HETATM   10 Cl1  UNK     1      18.179  13.176  34.904  1.00  0.00    -0.084 Cl
HETATM   11  C15 UNK     1      18.874   9.410  33.750  1.00  0.00     0.014 A 
ENDBRANCH   3   5
BRANCH   2  12
HETATM   12  C1  UNK     1      18.437   5.313  32.719  1.00  0.00    -0.015 A 
HETATM   13  C4  UNK     1      18.200   4.365  33.706  1.00  0.00     0.052 A 
HETATM   14  C3  UNK     1      18.179   3.012  33.369  1.00  0.00     0.102 A 
HETATM   15  C2  UNK     1      18.396   2.617  32.050  1.00  0.00     0.103 A 
HETATM   16  C7  UNK     1      18.633   3.578  31.065  1.00  0.00     0.059 A 
HETATM   17  C6  UNK     1      18.654   4.931  31.401  1.00  0.00     0.024 A 
HETATM   18 Br1  UNK     1      18.983   6.186  30.013  1.00  0.00    -0.050 Br
BRANCH  14  19
HETATM   19  O2  UNK     1      17.946   2.084  34.339  1.00  0.00    -0.353 OA
HETATM   20  C22 UNK     1      18.738   2.169  35.522  1.00  0.00     0.210 C 
ENDBRANCH  14  19
BRANCH  15  21
HETATM   21  O1  UNK     1      18.377   1.299  31.708  1.00  0.00    -0.344 OA
BRANCH  21  22
HETATM   22  C5  UNK     1      19.028   0.934  30.493  1.00  0.00     0.214 C 
BRANCH  22  23
HETATM   23  C8  UNK     1      19.663  -0.415  30.664  1.00  0.00    -0.034 A 
HETATM   24  C12 UNK     1      19.635  -1.037  31.907  1.00  0.00     0.009 A 
HETATM   25  C16 UNK     1      20.226  -2.291  32.065  1.00  0.00     0.001 A 
HETATM   26  C18 UNK     1      20.841  -2.914  30.980  1.00  0.00     0.000 A 
HETATM   27  C17 UNK     1      20.866  -2.284  29.736  1.00  0.00     0.001 A 
HETATM   28  C13 UNK     1      20.275  -1.030  29.577  1.00  0.00     0.009 A 
ENDBRANCH  22  23
ENDBRANCH  21  22
ENDBRANCH  15  21
ENDBRANCH   2  12
TORSDOF 6
ENDMDL
MODEL 3
REMARK VINA RESULT:      -8.7      6.357      8.857
REMARK  6 active torsions:
REMARK  status: ('A' for Active; 'I' for Inactive)
REMARK    1  A    between atoms: C2_7  and  O1_3 
REMARK    2  A    between atoms: C5_10  and  O1_3 
REMARK    3  A    between atoms: C3_8  and  O2_4 
REMARK    4  A    between atoms: C1_6  and  C9_14 
REMARK    5  A    between atoms: C5_10  and  C8_13 
REMARK    6  A    between atoms: C10_15  and  C11_16 
ROOT
HETATM    1  N1  UNK     1      18.237   2.922  34.451  1.00  0.00    -0.191 NA
HETATM    2  C9  UNK     1      18.011   4.781  31.495  1.00  0.00     0.036 C 
HETATM    3  C10 UNK     1      18.236   3.539  31.943  1.00  0.00     0.055 C 
HETATM    4  C23 UNK     1      18.239   3.195  33.322  1.00  0.00     0.100 C 
ENDROOT
BRANCH   3   5
HETATM    5  C11 UNK     1      18.529   2.506  30.961  1.00  0.00    -0.015 A 
HETATM    6  C14 UNK     1      18.033   2.619  29.662  1.00  0.00     0.014 A 
HETATM    7  C19 UNK     1      18.313   1.628  28.721  1.00  0.00     0.024 A 
HETATM    8  C21 UNK     1      19.087   0.525  29.078  1.00  0.00     0.034 A 
HETATM    9  C20 UNK     1      19.582   0.411  30.377  1.00  0.00     0.024 A 
HETATM   10 Cl1  UNK     1      19.431  -0.697  27.917  1.00  0.00    -0.084 Cl
HETATM   11  C15 UNK     1      19.302   1.401  31.319  1.00  0.00     0.014 A 
ENDBRANCH   3   5
BRANCH   2  12
HETATM   12  C1  UNK     1      17.710   5.944  32.342  1.00  0.00    -0.015 A 
HETATM   13  C4  UNK     1      16.370   6.243  32.555  1.00  0.00     0.052 A 
HETATM   14  C3  UNK     1      16.026   7.335  33.350  1.00  0.00     0.102 A 
HETATM   15  C2  UNK     1      17.023   8.121  33.925  1.00  0.00     0.103 A 
HETATM   16  C7  UNK     1      18.367   7.814  33.705  1.00  0.00     0.059 A 
HETATM   17  C6  UNK     1      18.711   6.721  32.911  1.00  0.00     0.024 A 
HETATM   18 Br1  UNK     1      20.558   6.359  32.652  1.00  0.00    -0.050 Br
BRANCH  14  19
HETATM   19  O2  UNK     1      14.711   7.625  33.557  1.00  0.00    -0.353 OA
HETATM   20  C22 UNK     1      13.805   7.322  32.498  1.00  0.00     0.210 C 
ENDBRANCH  14  19
BRANCH  15  21
HETATM   21  O1  UNK     1      16.700   9.191  34.704  1.00  0.00    -0.344 OA
BRANCH  21  22
HETATM   22  C5  UNK     1      16.641  10.465  34.066  1.00  0.00     0.214 C 
BRANCH  22  23
HETATM   23  C8  UNK     1      15.230  10.973  34.115  1.00  0.00    -0.034 A 
HETATM   24  C12 UNK     1      14.470  11.009  32.952  1.00  0.00     0.009 A 
HETATM   25  C16 UNK     1      13.158  11.481  32.999  1.00  0.00     0.001 A 
HETATM   26  C18 UNK     1      12.616  11.915  34.208  1.00  0.00     0.000 A 
HETATM   27  C17 UNK     1      13.385  11.877  35.371  1.00  0.00     0.001 A 
HETATM   28  C13 UNK     1      14.697  11.405  35.325  1.00  0.00     0.009 A 
ENDBRANCH  22  23
ENDBRANCH  21  22
ENDBRANCH  15  21
ENDBRANCH   2  12
TORSDOF 6
ENDMDL
MODEL 4
REMARK VINA RESULT:      -8.6      5.743     10.269
REMARK  6 active torsions:
REMARK  status: ('A' for Active; 'I' for Inactive)
REMARK    1  A    between atoms: C2_7  and  O1_3 
REMARK    2  A    between atoms: C5_10  and  O1_3 
REMARK    3  A    between atoms: C3_8  and  O2_4 
REMARK    4  A    between atoms: C1_6  and  C9_14 
REMARK    5  A    between atoms: C5_10  and  C8_13 
REMARK    6  A    between atoms: C10_15  and  C11_16 
ROOT
HETATM    1  N1  UNK     1      21.833   6.173  32.719  1.00  0.00    -0.191 NA
HETATM    2  C9  UNK     1      18.336   6.270  32.782  1.00  0.00     0.036 C 
HETATM    3  C10 UNK     1      19.415   7.023  33.036  1.00  0.00     0.055 C 
HETATM    4  C23 UNK     1      20.747   6.559  32.864  1.00  0.00     0.100 C 
ENDROOT
BRANCH   3   5
HETATM    5  C11 UNK     1      19.200   8.367  33.548  1.00  0.00    -0.015 A 
HETATM    6  C14 UNK     1      17.946   8.966  33.427  1.00  0.00     0.014 A 
HETATM    7  C19 UNK     1      17.739  10.256  33.917  1.00  0.00     0.024 A 
HETATM    8  C21 UNK     1      18.786  10.945  34.528  1.00  0.00     0.034 A 
HETATM    9  C20 UNK     1      20.040  10.346  34.649  1.00  0.00     0.024 A 
HETATM   10 Cl1  UNK     1      18.531  12.536  35.133  1.00  0.00    -0.084 Cl
HETATM   11  C15 UNK     1      20.247   9.057  34.158  1.00  0.00     0.014 A 
ENDBRANCH   3   5
BRANCH   2  12
HETATM   12  C1  UNK     1      18.366   4.892  32.270  1.00  0.00    -0.015 A 
HETATM   13  C4  UNK     1      18.056   3.877  33.166  1.00  0.00     0.052 A 
HETATM   14  C3  UNK     1      18.069   2.551  32.735  1.00  0.00     0.102 A 
HETATM   15  C2  UNK     1      18.394   2.250  31.412  1.00  0.00     0.103 A 
HETATM   16  C7  UNK     1      18.705   3.277  30.520  1.00  0.00     0.059 A 
HETATM   17  C6  UNK     1      18.691   4.603  30.951  1.00  0.00     0.024 A 
HETATM   18 Br1  UNK     1      19.124   5.953  29.685  1.00  0.00    -0.050 Br
BRANCH  14  19
HETATM   19  O2  UNK     1      17.763   1.557  33.615  1.00  0.00    -0.353 OA
HETATM   20  C22 UNK     1      18.347   1.639  34.914  1.00  0.00     0.210 C 
ENDBRANCH  14  19
BRANCH  15  21
HETATM   21  O1  UNK     1      18.410   0.959  30.979  1.00  0.00    -0.344 OA
BRANCH  21  22
HETATM   22  C5  UNK     1      19.512   0.561  30.166  1.00  0.00     0.214 C 
BRANCH  22  23
HETATM   23  C8  UNK     1      20.012  -0.773  30.639  1.00  0.00    -0.034 A 
HETATM   24  C12 UNK     1      20.486  -1.697  29.715  1.00  0.00     0.009 A 
HETATM   25  C16 UNK     1      20.950  -2.938  30.155  1.00  0.00     0.001 A 
HETATM   26  C18 UNK     1      20.937  -3.245  31.514  1.00  0.00     0.000 A 
HETATM   27  C17 UNK     1      20.459  -2.313  32.436  1.00  0.00     0.001 A 
HETATM   28  C13 UNK     1      19.994  -1.072  31.996  1.00  0.00     0.009 A 
ENDBRANCH  22  23
ENDBRANCH  21  22
ENDBRANCH  15  21
ENDBRANCH   2  12
TORSDOF 6
ENDMDL
MODEL 5
REMARK VINA RESULT:      -8.4      6.534      9.095
REMARK  6 active torsions:
REMARK  status: ('A' for Active; 'I' for Inactive)
REMARK    1  A    between atoms: C2_7  and  O1_3 
REMARK    2  A    between atoms: C5_10  and  O1_3 
REMARK    3  A    between atoms: C3_8  and  O2_4 
REMARK    4  A    between atoms: C1_6  and  C9_14 
REMARK    5  A    between atoms: C5_10  and  C8_13 
REMARK    6  A    between atoms: C10_15  and  C11_16 
ROOT
HETATM    1  N1  UNK     1      18.171   3.247  34.241  1.00  0.00    -0.191 NA
HETATM    2  C9  UNK     1      18.315   5.055  31.249  1.00  0.00     0.036 C 
HETATM    3  C10 UNK     1      18.348   3.804  31.725  1.00  0.00     0.055 C 
HETATM    4  C23 UNK     1      18.252   3.492  33.108  1.00  0.00     0.100 C 
ENDROOT
BRANCH   3   5
HETATM    5  C11 UNK     1      18.529   2.719  30.773  1.00  0.00    -0.015 A 
HETATM    6  C14 UNK     1      19.232   1.574  31.147  1.00  0.00     0.014 A 
HETATM    7  C19 UNK     1      19.407   0.533  30.234  1.00  0.00     0.024 A 
HETATM    8  C21 UNK     1      18.880   0.640  28.947  1.00  0.00     0.034 A 
HETATM    9  C20 UNK     1      18.178   1.785  28.572  1.00  0.00     0.024 A 
HETATM   10 Cl1  UNK     1      19.096  -0.643  27.820  1.00  0.00    -0.084 Cl
HETATM   11  C15 UNK     1      18.003   2.826  29.485  1.00  0.00     0.014 A 
ENDBRANCH   3   5
BRANCH   2  12
HETATM   12  C1  UNK     1      18.147   6.267  32.064  1.00  0.00    -0.015 A 
HETATM   13  C4  UNK     1      16.861   6.781  32.179  1.00  0.00     0.052 A 
HETATM   14  C3  UNK     1      16.644   7.928  32.940  1.00  0.00     0.102 A 
HETATM   15  C2  UNK     1      17.713   8.555  33.580  1.00  0.00     0.103 A 
HETATM   16  C7  UNK     1      19.001   8.031  33.459  1.00  0.00     0.059 A 
HETATM   17  C6  UNK     1      19.219   6.883  32.698  1.00  0.00     0.024 A 
HETATM   18 Br1  UNK     1      20.996   6.223  32.574  1.00  0.00    -0.050 Br
BRANCH  14  19
HETATM   19  O2  UNK     1      15.382   8.430  33.051  1.00  0.00    -0.353 OA
HETATM   20  C22 UNK     1      14.440   7.656  33.790  1.00  0.00     0.210 C 
ENDBRANCH  14  19
BRANCH  15  21
HETATM   21  O1  UNK     1      17.514   9.676  34.327  1.00  0.00    -0.344 OA
BRANCH  21  22
HETATM   22  C5  UNK     1      18.352  10.797  34.052  1.00  0.00     0.214 C 
BRANCH  22  23
HETATM   23  C8  UNK     1      17.529  12.050  34.107  1.00  0.00    -0.034 A 
HETATM   24  C12 UNK     1      16.196  11.982  34.498  1.00  0.00     0.009 A 
HETATM   25  C16 UNK     1      15.431  13.147  34.549  1.00  0.00     0.001 A 
HETATM   26  C18 UNK     1      16.003  14.372  34.209  1.00  0.00     0.000 A 
HETATM   27  C17 UNK     1      17.341  14.433  33.818  1.00  0.00     0.001 A 
HETATM   28  C13 UNK     1      18.106  13.268  33.767  1.00  0.00     0.009 A 
ENDBRANCH  22  23
ENDBRANCH  21  22
ENDBRANCH  15  21
ENDBRANCH   2  12
TORSDOF 6
ENDMDL
MODEL 6
REMARK VINA RESULT:      -8.2     26.296     28.622
REMARK  6 active torsions:
REMARK  status: ('A' for Active; 'I' for Inactive)
REMARK    1  A    between atoms: C2_7  and  O1_3 
REMARK    2  A    between atoms: C5_10  and  O1_3 
REMARK    3  A    between atoms: C3_8  and  O2_4 
REMARK    4  A    between atoms: C1_6  and  C9_14 
REMARK    5  A    between atoms: C5_10  and  C8_13 
REMARK    6  A    between atoms: C10_15  and  C11_16 
ROOT
HETATM    1  N1  UNK     1      16.179  12.610  11.552  1.00  0.00    -0.191 NA
HETATM    2  C9  UNK     1      17.787  10.279   9.497  1.00  0.00     0.036 C 
HETATM    3  C10 UNK     1      18.017  11.392  10.206  1.00  0.00     0.055 C 
HETATM    4  C23 UNK     1      17.009  12.066  10.948  1.00  0.00     0.100 C 
ENDROOT
BRANCH   3   5
HETATM    5  C11 UNK     1      19.359  11.951  10.178  1.00  0.00    -0.015 A 
HETATM    6  C14 UNK     1      19.908  12.503  11.336  1.00  0.00     0.014 A 
HETATM    7  C19 UNK     1      21.196  13.040  11.309  1.00  0.00     0.024 A 
HETATM    8  C21 UNK     1      21.933  13.024  10.125  1.00  0.00     0.034 A 
HETATM    9  C20 UNK     1      21.384  12.473   8.968  1.00  0.00     0.024 A 
HETATM   10 Cl1  UNK     1      23.521  13.686  10.092  1.00  0.00    -0.084 Cl
HETATM   11  C15 UNK     1      20.097  11.937   8.994  1.00  0.00     0.014 A 
ENDBRANCH   3   5
BRANCH   2  12
HETATM   12  C1  UNK     1      16.495   9.585   9.405  1.00  0.00    -0.015 A 
HETATM   13  C4  UNK     1      16.335   8.438  10.173  1.00  0.00     0.052 A 
HETATM   14  C3  UNK     1      15.130   7.740  10.125  1.00  0.00     0.102 A 
HETATM   15  C2  UNK     1      14.093   8.192   9.309  1.00  0.00     0.103 A 
HETATM   16  C7  UNK     1      14.263   9.345   8.541  1.00  0.00     0.059 A 
HETATM   17  C6  UNK     1      15.468  10.044   8.590  1.00  0.00     0.024 A 
HETATM   18 Br1  UNK     1      15.633  11.605   7.519  1.00  0.00    -0.050 Br
BRANCH  14  19
HETATM   19  O2  UNK     1      14.976   6.616  10.880  1.00  0.00    -0.353 OA
HETATM   20  C22 UNK     1      15.237   5.367  10.243  1.00  0.00     0.210 C 
ENDBRANCH  14  19
BRANCH  15  21
HETATM   21  O1  UNK     1      12.910   7.518   9.254  1.00  0.00    -0.344 OA
BRANCH  21  22
HETATM   22  C5  UNK     1      11.742   8.281   8.960  1.00  0.00     0.214 C 
BRANCH  22  23
HETATM   23  C8  UNK     1      10.875   7.504   8.014  1.00  0.00    -0.034 A 
HETATM   24  C12 UNK     1      11.394   7.073   6.799  1.00  0.00     0.009 A 
HETATM   25  C16 UNK     1      10.587   6.350   5.920  1.00  0.00     0.001 A 
HETATM   26  C18 UNK     1       9.266   6.065   6.261  1.00  0.00     0.000 A 
HETATM   27  C17 UNK     1       8.751   6.501   7.482  1.00  0.00     0.001 A 
HETATM   28  C13 UNK     1       9.558   7.224   8.362  1.00  0.00     0.009 A 
ENDBRANCH  22  23
ENDBRANCH  21  22
ENDBRANCH  15  21
ENDBRANCH   2  12
TORSDOF 6
ENDMDL
MODEL 7
REMARK VINA RESULT:      -8.2     11.714     13.932
REMARK  6 active torsions:
REMARK  status: ('A' for Active; 'I' for Inactive)
REMARK    1  A    between atoms: C2_7  and  O1_3 
REMARK    2  A    between atoms: C5_10  and  O1_3 
REMARK    3  A    between atoms: C3_8  and  O2_4 
REMARK    4  A    between atoms: C1_6  and  C9_14 
REMARK    5  A    between atoms: C5_10  and  C8_13 
REMARK    6  A    between atoms: C10_15  and  C11_16 
ROOT
HETATM    1  N1  UNK     1      27.221 -10.303  39.974  1.00  0.00    -0.191 NA
HETATM    2  C9  UNK     1      27.406  -8.680  36.880  1.00  0.00     0.036 C 
HETATM    3  C10 UNK     1      26.615  -9.486  37.600  1.00  0.00     0.055 C 
HETATM    4  C23 UNK     1      26.944  -9.939  38.906  1.00  0.00     0.100 C 
ENDROOT
BRANCH   3   5
HETATM    5  C11 UNK     1      25.376  -9.944  36.990  1.00  0.00    -0.015 A 
HETATM    6  C14 UNK     1      24.241  -9.134  37.027  1.00  0.00     0.014 A 
HETATM    7  C19 UNK     1      23.053  -9.573  36.442  1.00  0.00     0.024 A 
HETATM    8  C21 UNK     1      23.000 -10.821  35.822  1.00  0.00     0.034 A 
HETATM    9  C20 UNK     1      24.135 -11.630  35.786  1.00  0.00     0.024 A 
HETATM   10 Cl1  UNK     1      21.535 -11.363  35.101  1.00  0.00    -0.084 Cl
HETATM   11  C15 UNK     1      25.323 -11.192  36.371  1.00  0.00     0.014 A 
ENDBRANCH   3   5
BRANCH   2  12
HETATM   12  C1  UNK     1      28.692  -8.130  37.334  1.00  0.00    -0.015 A 
HETATM   13  C4  UNK     1      29.840  -8.824  36.973  1.00  0.00     0.052 A 
HETATM   14  C3  UNK     1      31.087  -8.349  37.376  1.00  0.00     0.102 A 
HETATM   15  C2  UNK     1      31.177  -7.184  38.137  1.00  0.00     0.103 A 
HETATM   16  C7  UNK     1      30.018  -6.493  38.495  1.00  0.00     0.059 A 
HETATM   17  C6  UNK     1      28.771  -6.969  38.091  1.00  0.00     0.024 A 
HETATM   18 Br1  UNK     1      27.234  -5.981  38.613  1.00  0.00    -0.050 Br
BRANCH  14  19
HETATM   19  O2  UNK     1      32.211  -9.031  37.020  1.00  0.00    -0.353 OA
HETATM   20  C22 UNK     1      32.637  -8.917  35.663  1.00  0.00     0.210 C 
ENDBRANCH  14  19
BRANCH  15  21
HETATM   21  O1  UNK     1      32.390  -6.708  38.536  1.00  0.00    -0.344 OA
BRANCH  21  22
HETATM   22  C5  UNK     1      32.668  -5.335  38.272  1.00  0.00     0.214 C 
BRANCH  22  23
HETATM   23  C8  UNK     1      33.450  -5.230  36.996  1.00  0.00    -0.034 A 
HETATM   24  C12 UNK     1      34.619  -5.966  36.842  1.00  0.00     0.009 A 
HETATM   25  C16 UNK     1      35.346  -5.868  35.655  1.00  0.00     0.001 A 
HETATM   26  C18 UNK     1      34.899  -5.035  34.631  1.00  0.00     0.000 A 
HETATM   27  C17 UNK     1      33.724  -4.300  34.792  1.00  0.00     0.001 A 
HETATM   28  C13 UNK     1      32.997  -4.397  35.979  1.00  0.00     0.009 A 
ENDBRANCH  22  23
ENDBRANCH  21  22
ENDBRANCH  15  21
ENDBRANCH   2  12
TORSDOF 6
ENDMDL
MODEL 8
REMARK VINA RESULT:      -8.0     26.798     28.524
REMARK  6 active torsions:
REMARK  status: ('A' for Active; 'I' for Inactive)
REMARK    1  A    between atoms: C2_7  and  O1_3 
REMARK    2  A    between atoms: C5_10  and  O1_3 
REMARK    3  A    between atoms: C3_8  and  O2_4 
REMARK    4  A    between atoms: C1_6  and  C9_14 
REMARK    5  A    between atoms: C5_10  and  C8_13 
REMARK    6  A    between atoms: C10_15  and  C11_16 
ROOT
HETATM    1  N1  UNK     1      15.336  11.158   7.472  1.00  0.00    -0.191 NA
HETATM    2  C9  UNK     1      16.602   9.768  10.422  1.00  0.00     0.036 C 
HETATM    3  C10 UNK     1      16.825  10.754   9.543  1.00  0.00     0.055 C 
HETATM    4  C23 UNK     1      16.008  10.980   8.401  1.00  0.00     0.100 C 
ENDROOT
BRANCH   3   5
HETATM    5  C11 UNK     1      17.984  11.607   9.757  1.00  0.00    -0.015 A 
HETATM    6  C14 UNK     1      18.171  12.231  10.990  1.00  0.00     0.014 A 
HETATM    7  C19 UNK     1      19.282  13.050  11.196  1.00  0.00     0.024 A 
HETATM    8  C21 UNK     1      20.205  13.243  10.168  1.00  0.00     0.034 A 
HETATM    9  C20 UNK     1      20.018  12.618   8.935  1.00  0.00     0.024 A 
HETATM   10 Cl1  UNK     1      21.575  14.252  10.421  1.00  0.00    -0.084 Cl
HETATM   11  C15 UNK     1      18.907  11.801   8.729  1.00  0.00     0.014 A 
ENDBRANCH   3   5
BRANCH   2  12
HETATM   12  C1  UNK     1      15.488   8.811  10.357  1.00  0.00    -0.015 A 
HETATM   13  C4  UNK     1      14.212   9.309  10.587  1.00  0.00     0.052 A 
HETATM   14  C3  UNK     1      13.118   8.446  10.538  1.00  0.00     0.102 A 
HETATM   15  C2  UNK     1      13.308   7.093  10.261  1.00  0.00     0.103 A 
HETATM   16  C7  UNK     1      14.594   6.602  10.032  1.00  0.00     0.059 A 
HETATM   17  C6  UNK     1      15.688   7.465  10.080  1.00  0.00     0.024 A 
HETATM   18 Br1  UNK     1      17.412   6.732   9.759  1.00  0.00    -0.050 Br
BRANCH  14  19
HETATM   19  O2  UNK     1      11.867   8.937  10.763  1.00  0.00    -0.353 OA
HETATM   20  C22 UNK     1      11.147   9.421   9.630  1.00  0.00     0.210 C 
ENDBRANCH  14  19
BRANCH  15  21
HETATM   21  O1  UNK     1      12.247   6.239  10.210  1.00  0.00    -0.344 OA
BRANCH  21  22
HETATM   22  C5  UNK     1      12.251   5.260   9.173  1.00  0.00     0.214 C 
BRANCH  22  23
HETATM   23  C8  UNK     1      11.265   5.662   8.116  1.00  0.00    -0.034 A 
HETATM   24  C12 UNK     1      11.688   5.812   6.801  1.00  0.00     0.009 A 
HETATM   25  C16 UNK     1      10.771   6.186   5.818  1.00  0.00     0.001 A 
HETATM   26  C18 UNK     1       9.437   6.408   6.158  1.00  0.00     0.000 A 
HETATM   27  C17 UNK     1       9.019   6.255   7.481  1.00  0.00     0.001 A 
HETATM   28  C13 UNK     1       9.936   5.881   8.463  1.00  0.00     0.009 A 
ENDBRANCH  22  23
ENDBRANCH  21  22
ENDBRANCH  15  21
ENDBRANCH   2  12
TORSDOF 6
ENDMDL
MODEL 9
REMARK VINA RESULT:      -8.0     26.730     28.667
REMARK  6 active torsions:
REMARK  status: ('A' for Active; 'I' for Inactive)
REMARK    1  A    between atoms: C2_7  and  O1_3 
REMARK    2  A    between atoms: C5_10  and  O1_3 
REMARK    3  A    between atoms: C3_8  and  O2_4 
REMARK    4  A    between atoms: C1_6  and  C9_14 
REMARK    5  A    between atoms: C5_10  and  C8_13 
REMARK    6  A    between atoms: C10_15  and  C11_16 
ROOT
HETATM    1  N1  UNK     1      16.214  11.789   7.220  1.00  0.00    -0.191 NA
HETATM    2  C9  UNK     1      17.241  10.104  10.109  1.00  0.00     0.036 C 
HETATM    3  C10 UNK     1      17.658  11.009   9.213  1.00  0.00     0.055 C 
HETATM    4  C23 UNK     1      16.868  11.441   8.114  1.00  0.00     0.100 C 
ENDROOT
BRANCH   3   5
HETATM    5  C11 UNK     1      19.004  11.541   9.363  1.00  0.00    -0.015 A 
HETATM    6  C14 UNK     1      19.782  11.794   8.233  1.00  0.00     0.014 A 
HETATM    7  C19 UNK     1      21.073  12.304   8.375  1.00  0.00     0.024 A 
HETATM    8  C21 UNK     1      21.585  12.559   9.647  1.00  0.00     0.034 A 
HETATM    9  C20 UNK     1      20.807  12.305  10.777  1.00  0.00     0.024 A 
HETATM   10 Cl1  UNK     1      23.177  13.187   9.823  1.00  0.00    -0.084 Cl
HETATM   11  C15 UNK     1      19.517  11.795  10.634  1.00  0.00     0.014 A 
ENDBRANCH   3   5
BRANCH   2  12
HETATM   12  C1  UNK     1      15.920   9.458  10.107  1.00  0.00    -0.015 A 
HETATM   13  C4  UNK     1      15.836   8.188   9.550  1.00  0.00     0.052 A 
HETATM   14  C3  UNK     1      14.609   7.529   9.521  1.00  0.00     0.102 A 
HETATM   15  C2  UNK     1      13.473   8.144  10.048  1.00  0.00     0.103 A 
HETATM   16  C7  UNK     1      13.567   9.420  10.605  1.00  0.00     0.059 A 
HETATM   17  C6  UNK     1      14.795  10.079  10.634  1.00  0.00     0.024 A 
HETATM   18 Br1  UNK     1      14.853  11.815  11.407  1.00  0.00    -0.050 Br
BRANCH  14  19
HETATM   19  O2  UNK     1      14.530   6.283   8.975  1.00  0.00    -0.353 OA
HETATM   20  C22 UNK     1      15.000   5.196   9.770  1.00  0.00     0.210 C 
ENDBRANCH  14  19
BRANCH  15  21
HETATM   21  O1  UNK     1      12.268   7.509  10.026  1.00  0.00    -0.344 OA
BRANCH  21  22
HETATM   22  C5  UNK     1      11.173   8.216   9.448  1.00  0.00     0.214 C 
BRANCH  22  23
HETATM   23  C8  UNK     1      10.663   7.447   8.265  1.00  0.00    -0.034 A 
HETATM   24  C12 UNK     1      11.481   7.269   7.155  1.00  0.00     0.009 A 
HETATM   25  C16 UNK     1      11.007   6.553   6.055  1.00  0.00     0.001 A 
HETATM   26  C18 UNK     1       9.718   6.021   6.072  1.00  0.00     0.000 A 
HETATM   27  C17 UNK     1       8.903   6.204   7.190  1.00  0.00     0.001 A 
HETATM   28  C13 UNK     1       9.377   6.920   8.290  1.00  0.00     0.009 A 
ENDBRANCH  22  23
ENDBRANCH  21  22
ENDBRANCH  15  21
ENDBRANCH   2  12
TORSDOF 6
ENDMDL
MODEL 10
REMARK VINA RESULT:      -7.8      1.908      2.801
REMARK  6 active torsions:
REMARK  status: ('A' for Active; 'I' for Inactive)
REMARK    1  A    between atoms: C2_7  and  O1_3 
REMARK    2  A    between atoms: C5_10  and  O1_3 
REMARK    3  A    between atoms: C3_8  and  O2_4 
REMARK    4  A    between atoms: C1_6  and  C9_14 
REMARK    5  A    between atoms: C5_10  and  C8_13 
REMARK    6  A    between atoms: C10_15  and  C11_16 
ROOT
HETATM    1  N1  UNK     1      22.291  -1.668  35.425  1.00  0.00    -0.191 NA
HETATM    2  C9  UNK     1      18.866  -2.335  35.683  1.00  0.00     0.036 C 
HETATM    3  C10 UNK     1      20.065  -2.919  35.812  1.00  0.00     0.055 C 
HETATM    4  C23 UNK     1      21.292  -2.235  35.600  1.00  0.00     0.100 C 
ENDROOT
BRANCH   3   5
HETATM    5  C11 UNK     1      20.098  -4.333  36.151  1.00  0.00    -0.015 A 
HETATM    6  C14 UNK     1      20.258  -4.727  37.480  1.00  0.00     0.014 A 
HETATM    7  C19 UNK     1      20.290  -6.083  37.806  1.00  0.00     0.024 A 
HETATM    8  C21 UNK     1      20.165  -7.044  36.803  1.00  0.00     0.034 A 
HETATM    9  C20 UNK     1      20.005  -6.650  35.474  1.00  0.00     0.024 A 
HETATM   10 Cl1  UNK     1      20.205  -8.717  37.204  1.00  0.00    -0.084 Cl
HETATM   11  C15 UNK     1      19.973  -5.294  35.148  1.00  0.00     0.014 A 
ENDBRANCH   3   5
BRANCH   2  12
HETATM   12  C1  UNK     1      18.645  -0.923  35.339  1.00  0.00    -0.015 A 
HETATM   13  C4  UNK     1      18.372  -0.051  36.385  1.00  0.00     0.052 A 
HETATM   14  C3  UNK     1      18.154   1.300  36.116  1.00  0.00     0.102 A 
HETATM   15  C2  UNK     1      18.209   1.768  34.804  1.00  0.00     0.103 A 
HETATM   16  C7  UNK     1      18.484   0.885  33.759  1.00  0.00     0.059 A 
HETATM   17  C6  UNK     1      18.702  -0.466  34.028  1.00  0.00     0.024 A 
HETATM   18 Br1  UNK     1      19.071  -1.615  32.560  1.00  0.00    -0.050 Br
BRANCH  14  19
HETATM   19  O2  UNK     1      17.887   2.153  37.145  1.00  0.00    -0.353 OA
HETATM   20  C22 UNK     1      17.517   1.569  38.392  1.00  0.00     0.210 C 
ENDBRANCH  14  19
BRANCH  15  21
HETATM   21  O1  UNK     1      17.998   3.086  34.529  1.00  0.00    -0.344 OA
BRANCH  21  22
HETATM   22  C5  UNK     1      18.199   3.507  33.182  1.00  0.00     0.214 C 
BRANCH  22  23
HETATM   23  C8  UNK     1      18.283   5.005  33.145  1.00  0.00    -0.034 A 
HETATM   24  C12 UNK     1      19.303   5.655  33.830  1.00  0.00     0.009 A 
HETATM   25  C16 UNK     1      19.380   7.048  33.795  1.00  0.00     0.001 A 
HETATM   26  C18 UNK     1      18.437   7.781  33.076  1.00  0.00     0.000 A 
HETATM   27  C17 UNK     1      17.416   7.122  32.391  1.00  0.00     0.001 A 
HETATM   28  C13 UNK     1      17.339   5.729  32.426  1.00  0.00     0.009 A 
ENDBRANCH  22  23
ENDBRANCH  21  22
ENDBRANCH  15  21
ENDBRANCH   2  12
TORSDOF 6
ENDMDL
