MODEL 1
REMARK VINA RESULT:      -9.6      0.000      0.000
REMARK  3 active torsions:
REMARK  status: ('A' for Active; 'I' for Inactive)
REMARK    1  A    between atoms: C21_28  and  O4_5 
REMARK    2  A    between atoms: C1_8  and  C8_15 
REMARK    3  A    between atoms: C6_13  and  C9_16 
ROOT
HETATM    1  O1  UNK     1      33.102 -10.232  34.216  1.00  0.00    -0.293 OA
HETATM    2  N1  UNK     1      28.926  -9.826  31.841  1.00  0.00    -0.357 N 
HETATM    3  N2  UNK     1      30.890  -7.575  32.173  1.00  0.00    -0.375 N 
HETATM    4  C1  UNK     1      31.393 -12.606  32.120  1.00  0.00     0.031 C 
HETATM    5  C2  UNK     1      30.004 -11.964  32.120  1.00  0.00     0.067 C 
HETATM    6  C3  UNK     1      31.065  -9.879  33.018  1.00  0.00     0.037 C 
HETATM    7  C4  UNK     1      32.114 -12.234  33.408  1.00  0.00     0.093 C 
HETATM    8  C5  UNK     1      30.042 -10.460  32.354  1.00  0.00     0.022 C 
HETATM    9  C6  UNK     1      31.148  -8.408  33.336  1.00  0.00     0.160 C 
HETATM   10  C7  UNK     1      32.177 -10.734  33.575  1.00  0.00     0.160 C 
HETATM   11  C10 UNK     1      28.716  -8.492  31.436  1.00  0.00     0.059 A 
HETATM   12  C11 UNK     1      29.665  -7.461  31.533  1.00  0.00     0.055 A 
HETATM   13  C16 UNK     1      27.466  -8.208  30.836  1.00  0.00     0.032 A 
HETATM   14  C17 UNK     1      29.345  -6.199  30.982  1.00  0.00     0.031 A 
HETATM   15  C22 UNK     1      27.165  -6.950  30.317  1.00  0.00     0.002 A 
HETATM   16  C23 UNK     1      28.113  -5.943  30.382  1.00  0.00     0.002 A 
HETATM   17  H7  UNK     1      28.158 -10.453  31.617  1.00  0.00     0.166 HD
HETATM   18  H8  UNK     1      31.548  -6.818  32.015  1.00  0.00     0.160 HD
ENDROOT
BRANCH   9  19
HETATM   19  C9  UNK     1      30.274  -8.005  34.487  1.00  0.00     0.042 A 
HETATM   20  C14 UNK     1      30.659  -6.816  35.289  1.00  0.00     0.195 A 
HETATM   21  O3  UNK     1      31.662  -6.160  35.040  1.00  0.00    -0.287 OA
HETATM   22  C18 UNK     1      29.766  -6.466  36.408  1.00  0.00     0.050 A 
HETATM   23  C24 UNK     1      28.636  -7.250  36.645  1.00  0.00     0.089 A 
HETATM   24  C25 UNK     1      30.043  -5.365  37.223  1.00  0.00     0.042 A 
HETATM   25  O2  UNK     1      28.316  -8.341  35.878  1.00  0.00    -0.321 OA
HETATM   26  C26 UNK     1      27.776  -6.936  37.699  1.00  0.00     0.040 A 
HETATM   27  C15 UNK     1      29.158  -8.656  34.840  1.00  0.00     0.156 A 
HETATM   28  C28 UNK     1      28.051  -5.837  38.514  1.00  0.00     0.026 A 
HETATM   29  C27 UNK     1      29.181  -5.053  38.275  1.00  0.00     0.035 A 
HETATM   30 Cl1  UNK     1      29.513  -3.699  39.286  1.00  0.00    -0.084 Cl
ENDBRANCH   9  19
BRANCH   4  31
HETATM   31  C8  UNK     1      31.331 -14.107  31.910  1.00  0.00    -0.053 A 
HETATM   32  C12 UNK     1      31.495 -14.636  30.631  1.00  0.00     0.010 A 
HETATM   33  C19 UNK     1      31.437 -16.016  30.439  1.00  0.00     0.037 A 
HETATM   34  C21 UNK     1      31.215 -16.864  31.524  1.00  0.00     0.068 A 
HETATM   35  C20 UNK     1      31.052 -16.331  32.803  1.00  0.00     0.037 A 
HETATM   36  C13 UNK     1      31.109 -14.951  32.995  1.00  0.00     0.010 A 
BRANCH  34  37
HETATM   37  O4  UNK     1      31.159 -18.211  31.335  1.00  0.00    -0.356 OA
HETATM   38  C29 UNK     1      30.331 -18.684  30.274  1.00  0.00     0.210 C 
ENDBRANCH  34  37
ENDBRANCH   4  31
TORSDOF 3
ENDMDL
MODEL 2
REMARK VINA RESULT:      -9.5     33.077     34.769
REMARK  3 active torsions:
REMARK  status: ('A' for Active; 'I' for Inactive)
REMARK    1  A    between atoms: C21_28  and  O4_5 
REMARK    2  A    between atoms: C1_8  and  C8_15 
REMARK    3  A    between atoms: C6_13  and  C9_16 
ROOT
HETATM    1  O1  UNK     1      17.571   7.942  10.112  1.00  0.00    -0.293 OA
HETATM    2  N1  UNK     1      15.122  11.580   8.110  1.00  0.00    -0.357 N 
HETATM    3  N2  UNK     1      18.086  11.189   7.805  1.00  0.00    -0.375 N 
HETATM    4  C1  UNK     1      14.264   8.001   8.696  1.00  0.00     0.031 C 
HETATM    5  C2  UNK     1      14.031   9.513   8.700  1.00  0.00     0.067 C 
HETATM    6  C3  UNK     1      16.494   9.801   9.066  1.00  0.00     0.037 C 
HETATM    7  C4  UNK     1      15.235   7.642   9.811  1.00  0.00     0.093 C 
HETATM    8  C5  UNK     1      15.323  10.315   8.629  1.00  0.00     0.022 C 
HETATM    9  C6  UNK     1      17.802  10.550   9.080  1.00  0.00     0.160 C 
HETATM   10  C7  UNK     1      16.523   8.419   9.673  1.00  0.00     0.160 C 
HETATM   11  C10 UNK     1      16.003  12.477   7.472  1.00  0.00     0.059 A 
HETATM   12  C11 UNK     1      17.376  12.255   7.274  1.00  0.00     0.055 A 
HETATM   13  C16 UNK     1      15.426  13.658   6.949  1.00  0.00     0.032 A 
HETATM   14  C17 UNK     1      18.108  13.199   6.519  1.00  0.00     0.031 A 
HETATM   15  C22 UNK     1      16.171  14.585   6.224  1.00  0.00     0.002 A 
HETATM   16  C23 UNK     1      17.517  14.350   5.999  1.00  0.00     0.002 A 
HETATM   17  H7  UNK     1      14.148  11.869   8.087  1.00  0.00     0.166 HD
HETATM   18  H8  UNK     1      19.024  11.050   7.440  1.00  0.00     0.160 HD
ENDROOT
BRANCH   9  19
HETATM   19  C9  UNK     1      17.903  11.535  10.207  1.00  0.00     0.042 A 
HETATM   20  C14 UNK     1      19.246  12.034  10.595  1.00  0.00     0.195 A 
HETATM   21  O3  UNK     1      20.266  11.667  10.026  1.00  0.00    -0.287 OA
HETATM   22  C18 UNK     1      19.289  13.000  11.708  1.00  0.00     0.050 A 
HETATM   23  C24 UNK     1      18.094  13.383  12.319  1.00  0.00     0.089 A 
HETATM   24  C25 UNK     1      20.505  13.527  12.149  1.00  0.00     0.042 A 
HETATM   25  O2  UNK     1      16.872  12.897  11.928  1.00  0.00    -0.321 OA
HETATM   26  C26 UNK     1      18.110  14.296  13.375  1.00  0.00     0.040 A 
HETATM   27  C15 UNK     1      16.848  11.998  10.891  1.00  0.00     0.156 A 
HETATM   28  C28 UNK     1      19.324  14.823  13.816  1.00  0.00     0.026 A 
HETATM   29  C27 UNK     1      20.518  14.440  13.204  1.00  0.00     0.035 A 
HETATM   30 Cl1  UNK     1      22.012  15.096  13.754  1.00  0.00    -0.084 Cl
ENDBRANCH   9  19
BRANCH   4  31
HETATM   31  C8  UNK     1      12.966   7.221   8.791  1.00  0.00    -0.053 A 
HETATM   32  C12 UNK     1      12.967   5.933   9.323  1.00  0.00     0.010 A 
HETATM   33  C19 UNK     1      11.774   5.216   9.409  1.00  0.00     0.037 A 
HETATM   34  C21 UNK     1      10.582   5.789   8.964  1.00  0.00     0.068 A 
HETATM   35  C20 UNK     1      10.584   7.078   8.433  1.00  0.00     0.037 A 
HETATM   36  C13 UNK     1      11.777   7.795   8.346  1.00  0.00     0.010 A 
BRANCH  34  37
HETATM   37  O4  UNK     1       9.418   5.089   9.049  1.00  0.00    -0.356 OA
HETATM   38  C29 UNK     1       8.251   5.700   8.501  1.00  0.00     0.210 C 
ENDBRANCH  34  37
ENDBRANCH   4  31
TORSDOF 3
ENDMDL
MODEL 3
REMARK VINA RESULT:      -9.2      0.908      1.233
REMARK  3 active torsions:
REMARK  status: ('A' for Active; 'I' for Inactive)
REMARK    1  A    between atoms: C21_28  and  O4_5 
REMARK    2  A    between atoms: C1_8  and  C8_15 
REMARK    3  A    between atoms: C6_13  and  C9_16 
ROOT
HETATM    1  O1  UNK     1      33.659 -10.953  33.477  1.00  0.00    -0.293 OA
HETATM    2  N1  UNK     1      29.224 -10.326  31.695  1.00  0.00    -0.357 N 
HETATM    3  N2  UNK     1      31.315  -8.169  31.779  1.00  0.00    -0.375 N 
HETATM    4  C1  UNK     1      31.576 -13.216  31.610  1.00  0.00     0.031 C 
HETATM    5  C2  UNK     1      30.230 -12.514  31.804  1.00  0.00     0.067 C 
HETATM    6  C3  UNK     1      31.497 -10.491  32.570  1.00  0.00     0.037 C 
HETATM    7  C4  UNK     1      32.481 -12.896  32.791  1.00  0.00     0.093 C 
HETATM    8  C5  UNK     1      30.368 -11.017  32.045  1.00  0.00     0.022 C 
HETATM    9  C6  UNK     1      31.690  -9.030  32.888  1.00  0.00     0.160 C 
HETATM   10  C7  UNK     1      32.634 -11.403  32.962  1.00  0.00     0.160 C 
HETATM   11  C10 UNK     1      29.021  -8.978  31.335  1.00  0.00     0.059 A 
HETATM   12  C11 UNK     1      30.021  -7.991  31.312  1.00  0.00     0.055 A 
HETATM   13  C16 UNK     1      27.717  -8.630  30.913  1.00  0.00     0.032 A 
HETATM   14  C17 UNK     1      29.688  -6.708  30.822  1.00  0.00     0.031 A 
HETATM   15  C22 UNK     1      27.406  -7.352  30.452  1.00  0.00     0.002 A 
HETATM   16  C23 UNK     1      28.399  -6.389  30.397  1.00  0.00     0.002 A 
HETATM   17  H7  UNK     1      28.405 -10.915  31.571  1.00  0.00     0.166 HD
HETATM   18  H8  UNK     1      31.980  -7.439  31.541  1.00  0.00     0.160 HD
ENDROOT
BRANCH   9  19
HETATM   19  C9  UNK     1      30.999  -8.608  34.151  1.00  0.00     0.042 A 
HETATM   20  C14 UNK     1      31.169  -7.210  34.620  1.00  0.00     0.195 A 
HETATM   21  O3  UNK     1      31.852  -6.398  34.010  1.00  0.00    -0.287 OA
HETATM   22  C18 UNK     1      30.469  -6.848  35.866  1.00  0.00     0.050 A 
HETATM   23  C24 UNK     1      29.703  -7.815  36.519  1.00  0.00     0.089 A 
HETATM   24  C25 UNK     1      30.567  -5.557  36.390  1.00  0.00     0.042 A 
HETATM   25  O2  UNK     1      29.571  -9.098  36.050  1.00  0.00    -0.321 OA
HETATM   26  C26 UNK     1      29.031  -7.496  37.699  1.00  0.00     0.040 A 
HETATM   27  C15 UNK     1      30.230  -9.420  34.889  1.00  0.00     0.156 A 
HETATM   28  C28 UNK     1      29.128  -6.207  38.224  1.00  0.00     0.026 A 
HETATM   29  C27 UNK     1      29.894  -5.240  37.570  1.00  0.00     0.035 A 
HETATM   30 Cl1  UNK     1      30.008  -3.651  38.225  1.00  0.00    -0.084 Cl
ENDBRANCH   9  19
BRANCH   4  31
HETATM   31  C8  UNK     1      31.417 -14.709  31.395  1.00  0.00    -0.053 A 
HETATM   32  C12 UNK     1      31.225 -15.552  32.488  1.00  0.00     0.010 A 
HETATM   33  C19 UNK     1      31.081 -16.924  32.289  1.00  0.00     0.037 A 
HETATM   34  C21 UNK     1      31.128 -17.452  30.999  1.00  0.00     0.068 A 
HETATM   35  C20 UNK     1      31.320 -16.606  29.907  1.00  0.00     0.037 A 
HETATM   36  C13 UNK     1      31.465 -15.233  30.105  1.00  0.00     0.010 A 
BRANCH  34  37
HETATM   37  O4  UNK     1      30.986 -18.792  30.806  1.00  0.00    -0.356 OA
HETATM   38  C29 UNK     1      29.672 -19.331  30.939  1.00  0.00     0.210 C 
ENDBRANCH  34  37
ENDBRANCH   4  31
TORSDOF 3
ENDMDL
MODEL 4
REMARK VINA RESULT:      -9.0      1.653      2.093
REMARK  3 active torsions:
REMARK  status: ('A' for Active; 'I' for Inactive)
REMARK    1  A    between atoms: C21_28  and  O4_5 
REMARK    2  A    between atoms: C1_8  and  C8_15 
REMARK    3  A    between atoms: C6_13  and  C9_16 
ROOT
HETATM    1  O1  UNK     1      34.184 -11.319  32.953  1.00  0.00    -0.293 OA
HETATM    2  N1  UNK     1      29.571 -10.539  31.790  1.00  0.00    -0.357 N 
HETATM    3  N2  UNK     1      31.812  -8.660  31.099  1.00  0.00    -0.375 N 
HETATM    4  C1  UNK     1      31.629 -13.642  31.941  1.00  0.00     0.031 C 
HETATM    5  C2  UNK     1      30.400 -12.766  32.192  1.00  0.00     0.067 C 
HETATM    6  C3  UNK     1      31.941 -10.794  32.316  1.00  0.00     0.037 C 
HETATM    7  C4  UNK     1      32.750 -13.209  32.876  1.00  0.00     0.093 C 
HETATM    8  C5  UNK     1      30.699 -11.277  32.094  1.00  0.00     0.022 C 
HETATM    9  C6  UNK     1      32.305  -9.331  32.291  1.00  0.00     0.160 C 
HETATM   10  C7  UNK     1      33.052 -11.738  32.708  1.00  0.00     0.160 C 
HETATM   11  C10 UNK     1      29.419  -9.270  31.194  1.00  0.00     0.059 A 
HETATM   12  C11 UNK     1      30.476  -8.427  30.812  1.00  0.00     0.055 A 
HETATM   13  C16 UNK     1      28.093  -8.862  30.917  1.00  0.00     0.032 A 
HETATM   14  C17 UNK     1      30.167  -7.231  30.125  1.00  0.00     0.031 A 
HETATM   15  C22 UNK     1      27.812  -7.668  30.255  1.00  0.00     0.002 A 
HETATM   16  C23 UNK     1      28.855  -6.853  29.848  1.00  0.00     0.002 A 
HETATM   17  H7  UNK     1      28.698 -11.043  31.919  1.00  0.00     0.166 HD
HETATM   18  H8  UNK     1      32.483  -8.070  30.615  1.00  0.00     0.160 HD
ENDROOT
BRANCH   9  19
HETATM   19  C9  UNK     1      31.882  -8.600  33.531  1.00  0.00     0.042 A 
HETATM   20  C14 UNK     1      32.240  -7.165  33.665  1.00  0.00     0.195 A 
HETATM   21  O3  UNK     1      32.866  -6.567  32.800  1.00  0.00    -0.287 OA
HETATM   22  C18 UNK     1      31.800  -6.495  34.903  1.00  0.00     0.050 A 
HETATM   23  C24 UNK     1      31.089  -7.227  35.855  1.00  0.00     0.089 A 
HETATM   24  C25 UNK     1      32.089  -5.146  35.125  1.00  0.00     0.042 A 
HETATM   25  O2  UNK     1      30.778  -8.552  35.690  1.00  0.00    -0.321 OA
HETATM   26  C26 UNK     1      30.663  -6.613  37.033  1.00  0.00     0.040 A 
HETATM   27  C15 UNK     1      31.194  -9.164  34.533  1.00  0.00     0.156 A 
HETATM   28  C28 UNK     1      30.950  -5.266  37.256  1.00  0.00     0.026 A 
HETATM   29  C27 UNK     1      31.662  -4.535  36.303  1.00  0.00     0.035 A 
HETATM   30 Cl1  UNK     1      32.012  -2.872  36.586  1.00  0.00    -0.084 Cl
ENDBRANCH   9  19
BRANCH   4  31
HETATM   31  C8  UNK     1      31.315 -15.121  32.067  1.00  0.00    -0.053 A 
HETATM   32  C12 UNK     1      30.852 -15.632  33.278  1.00  0.00     0.010 A 
HETATM   33  C19 UNK     1      30.565 -16.991  33.393  1.00  0.00     0.037 A 
HETATM   34  C21 UNK     1      30.740 -17.837  32.298  1.00  0.00     0.068 A 
HETATM   35  C20 UNK     1      31.203 -17.323  31.087  1.00  0.00     0.037 A 
HETATM   36  C13 UNK     1      31.491 -15.963  30.972  1.00  0.00     0.010 A 
BRANCH  34  37
HETATM   37  O4  UNK     1      30.458 -19.164  32.412  1.00  0.00    -0.356 OA
HETATM   38  C29 UNK     1      29.786 -19.781  31.315  1.00  0.00     0.210 C 
ENDBRANCH  34  37
ENDBRANCH   4  31
TORSDOF 3
ENDMDL
MODEL 5
REMARK VINA RESULT:      -8.8      4.717      7.169
REMARK  3 active torsions:
REMARK  status: ('A' for Active; 'I' for Inactive)
REMARK    1  A    between atoms: C21_28  and  O4_5 
REMARK    2  A    between atoms: C1_8  and  C8_15 
REMARK    3  A    between atoms: C6_13  and  C9_16 
ROOT
HETATM    1  O1  UNK     1      33.260 -12.301  31.075  1.00  0.00    -0.293 OA
HETATM    2  N1  UNK     1      34.026  -9.054  34.556  1.00  0.00    -0.357 N 
HETATM    3  N2  UNK     1      31.566 -10.769  34.379  1.00  0.00    -0.375 N 
HETATM    4  C1  UNK     1      36.311 -11.374  32.742  1.00  0.00     0.031 C 
HETATM    5  C2  UNK     1      35.860 -10.039  33.339  1.00  0.00     0.067 C 
HETATM    6  C3  UNK     1      33.498 -10.725  32.857  1.00  0.00     0.037 C 
HETATM    7  C4  UNK     1      35.508 -11.654  31.480  1.00  0.00     0.093 C 
HETATM    8  C5  UNK     1      34.357  -9.970  33.576  1.00  0.00     0.022 C 
HETATM    9  C6  UNK     1      31.998 -10.674  32.994  1.00  0.00     0.160 C 
HETATM   10  C7  UNK     1      34.026 -11.630  31.770  1.00  0.00     0.160 C 
HETATM   11  C10 UNK     1      32.897  -8.949  35.392  1.00  0.00     0.059 A 
HETATM   12  C11 UNK     1      31.779  -9.800  35.347  1.00  0.00     0.055 A 
HETATM   13  C16 UNK     1      32.940  -7.940  36.383  1.00  0.00     0.032 A 
HETATM   14  C17 UNK     1      30.771  -9.638  36.325  1.00  0.00     0.031 A 
HETATM   15  C22 UNK     1      31.925  -7.787  37.325  1.00  0.00     0.002 A 
HETATM   16  C23 UNK     1      30.840  -8.647  37.302  1.00  0.00     0.002 A 
HETATM   17  H7  UNK     1      34.775  -8.407  34.788  1.00  0.00     0.166 HD
HETATM   18  H8  UNK     1      30.815 -11.428  34.564  1.00  0.00     0.160 HD
ENDROOT
BRANCH   9  19
HETATM   19  C9  UNK     1      31.387  -9.479  32.324  1.00  0.00     0.042 A 
HETATM   20  C14 UNK     1      29.909  -9.419  32.189  1.00  0.00     0.195 A 
HETATM   21  O3  UNK     1      29.181 -10.310  32.606  1.00  0.00    -0.287 OA
HETATM   22  C18 UNK     1      29.362  -8.223  31.522  1.00  0.00     0.050 A 
HETATM   23  C24 UNK     1      30.240  -7.238  31.068  1.00  0.00     0.089 A 
HETATM   24  C25 UNK     1      27.984  -8.073  31.346  1.00  0.00     0.042 A 
HETATM   25  O2  UNK     1      31.601  -7.333  31.214  1.00  0.00    -0.321 OA
HETATM   26  C26 UNK     1      29.745  -6.098  30.434  1.00  0.00     0.040 A 
HETATM   27  C15 UNK     1      32.096  -8.453  31.836  1.00  0.00     0.156 A 
HETATM   28  C28 UNK     1      28.369  -5.946  30.257  1.00  0.00     0.026 A 
HETATM   29  C27 UNK     1      27.491  -6.932  30.713  1.00  0.00     0.035 A 
HETATM   30 Cl1  UNK     1      25.795  -6.737  30.490  1.00  0.00    -0.084 Cl
ENDBRANCH   9  19
BRANCH   4  31
HETATM   31  C8  UNK     1      37.807 -11.413  32.492  1.00  0.00    -0.053 A 
HETATM   32  C12 UNK     1      38.324 -10.923  31.294  1.00  0.00     0.010 A 
HETATM   33  C19 UNK     1      39.699 -10.960  31.065  1.00  0.00     0.037 A 
HETATM   34  C21 UNK     1      40.554 -11.486  32.033  1.00  0.00     0.068 A 
HETATM   35  C20 UNK     1      40.034 -11.975  33.231  1.00  0.00     0.037 A 
HETATM   36  C13 UNK     1      38.659 -11.939  33.461  1.00  0.00     0.010 A 
BRANCH  34  37
HETATM   37  O4  UNK     1      41.896 -11.521  31.809  1.00  0.00    -0.356 OA
HETATM   38  C29 UNK     1      42.742 -11.043  32.853  1.00  0.00     0.210 C 
ENDBRANCH  34  37
ENDBRANCH   4  31
TORSDOF 3
ENDMDL
MODEL 6
REMARK VINA RESULT:      -8.7      4.342      5.228
REMARK  3 active torsions:
REMARK  status: ('A' for Active; 'I' for Inactive)
REMARK    1  A    between atoms: C21_28  and  O4_5 
REMARK    2  A    between atoms: C1_8  and  C8_15 
REMARK    3  A    between atoms: C6_13  and  C9_16 
ROOT
HETATM    1  O1  UNK     1      33.897  -7.071  35.665  1.00  0.00    -0.293 OA
HETATM    2  N1  UNK     1      31.659  -8.141  31.531  1.00  0.00    -0.357 N 
HETATM    3  N2  UNK     1      30.974  -5.766  33.239  1.00  0.00    -0.375 N 
HETATM    4  C1  UNK     1      35.212  -8.451  32.613  1.00  0.00     0.031 C 
HETATM    5  C2  UNK     1      33.899  -8.912  31.976  1.00  0.00     0.067 C 
HETATM    6  C3  UNK     1      32.692  -7.479  33.641  1.00  0.00     0.037 C 
HETATM    7  C4  UNK     1      35.061  -8.456  34.127  1.00  0.00     0.093 C 
HETATM    8  C5  UNK     1      32.694  -8.108  32.445  1.00  0.00     0.022 C 
HETATM    9  C6  UNK     1      31.522  -6.711  34.198  1.00  0.00     0.160 C 
HETATM   10  C7  UNK     1      33.889  -7.604  34.553  1.00  0.00     0.160 C 
HETATM   11  C10 UNK     1      30.582  -7.259  31.309  1.00  0.00     0.059 A 
HETATM   12  C11 UNK     1      30.309  -6.112  32.073  1.00  0.00     0.055 A 
HETATM   13  C16 UNK     1      29.761  -7.539  30.191  1.00  0.00     0.032 A 
HETATM   14  C17 UNK     1      29.256  -5.264  31.660  1.00  0.00     0.031 A 
HETATM   15  C22 UNK     1      28.715  -6.698  29.814  1.00  0.00     0.002 A 
HETATM   16  C23 UNK     1      28.468  -5.550  30.546  1.00  0.00     0.002 A 
HETATM   17  H7  UNK     1      31.750  -8.869  30.827  1.00  0.00     0.166 HD
HETATM   18  H8  UNK     1      30.801  -4.828  33.591  1.00  0.00     0.160 HD
ENDROOT
BRANCH   9  19
HETATM   19  C9  UNK     1      30.445  -7.598  34.750  1.00  0.00     0.042 A 
HETATM   20  C14 UNK     1      29.474  -7.022  35.714  1.00  0.00     0.195 A 
HETATM   21  O3  UNK     1      29.527  -5.852  36.070  1.00  0.00    -0.287 OA
HETATM   22  C18 UNK     1      28.438  -7.938  36.225  1.00  0.00     0.050 A 
HETATM   23  C24 UNK     1      28.426  -9.262  35.784  1.00  0.00     0.089 A 
HETATM   24  C25 UNK     1      27.479  -7.491  37.138  1.00  0.00     0.042 A 
HETATM   25  O2  UNK     1      29.342  -9.754  34.890  1.00  0.00    -0.321 OA
HETATM   26  C26 UNK     1      27.454 -10.146  36.254  1.00  0.00     0.040 A 
HETATM   27  C15 UNK     1      30.302  -8.890  34.423  1.00  0.00     0.156 A 
HETATM   28  C28 UNK     1      26.496  -9.702  37.165  1.00  0.00     0.026 A 
HETATM   29  C27 UNK     1      26.508  -8.377  37.606  1.00  0.00     0.035 A 
HETATM   30 Cl1  UNK     1      25.321  -7.837  38.731  1.00  0.00    -0.084 Cl
ENDBRANCH   9  19
BRANCH   4  31
HETATM   31  C8  UNK     1      36.395  -9.281  32.151  1.00  0.00    -0.053 A 
HETATM   32  C12 UNK     1      36.452  -9.736  30.835  1.00  0.00     0.010 A 
HETATM   33  C19 UNK     1      37.540 -10.500  30.412  1.00  0.00     0.037 A 
HETATM   34  C21 UNK     1      38.568 -10.805  31.304  1.00  0.00     0.068 A 
HETATM   35  C20 UNK     1      38.508 -10.348  32.620  1.00  0.00     0.037 A 
HETATM   36  C13 UNK     1      37.420  -9.585  33.044  1.00  0.00     0.010 A 
BRANCH  34  37
HETATM   37  O4  UNK     1      39.629 -11.550  30.889  1.00  0.00    -0.356 OA
HETATM   38  C29 UNK     1      40.905 -11.224  31.439  1.00  0.00     0.210 C 
ENDBRANCH  34  37
ENDBRANCH   4  31
TORSDOF 3
ENDMDL
MODEL 7
REMARK VINA RESULT:      -8.6      1.594      1.926
REMARK  3 active torsions:
REMARK  status: ('A' for Active; 'I' for Inactive)
REMARK    1  A    between atoms: C21_28  and  O4_5 
REMARK    2  A    between atoms: C1_8  and  C8_15 
REMARK    3  A    between atoms: C6_13  and  C9_16 
ROOT
HETATM    1  O1  UNK     1      34.219  -9.380  32.583  1.00  0.00    -0.293 OA
HETATM    2  N1  UNK     1      29.631  -9.831  31.172  1.00  0.00    -0.357 N 
HETATM    3  N2  UNK     1      31.058  -7.197  31.411  1.00  0.00    -0.375 N 
HETATM    4  C1  UNK     1      32.659 -11.918  30.565  1.00  0.00     0.031 C 
HETATM    5  C2  UNK     1      31.198 -11.647  30.931  1.00  0.00     0.067 C 
HETATM    6  C3  UNK     1      31.937  -9.447  31.878  1.00  0.00     0.037 C 
HETATM    7  C4  UNK     1      33.551 -11.489  31.721  1.00  0.00     0.093 C 
HETATM    8  C5  UNK     1      30.948 -10.207  31.359  1.00  0.00     0.022 C 
HETATM    9  C6  UNK     1      31.756  -8.034  32.373  1.00  0.00     0.160 C 
HETATM   10  C7  UNK     1      33.310 -10.040  32.077  1.00  0.00     0.160 C 
HETATM   11  C10 UNK     1      29.038  -8.563  31.006  1.00  0.00     0.059 A 
HETATM   12  C11 UNK     1      29.726  -7.339  31.052  1.00  0.00     0.055 A 
HETATM   13  C16 UNK     1      27.654  -8.551  30.713  1.00  0.00     0.032 A 
HETATM   14  C17 UNK     1      29.013  -6.155  30.756  1.00  0.00     0.031 A 
HETATM   15  C22 UNK     1      26.967  -7.369  30.444  1.00  0.00     0.002 A 
HETATM   16  C23 UNK     1      27.652  -6.166  30.456  1.00  0.00     0.002 A 
HETATM   17  H7  UNK     1      28.994 -10.609  31.022  1.00  0.00     0.166 HD
HETATM   18  H8  UNK     1      31.475  -6.288  31.231  1.00  0.00     0.160 HD
ENDROOT
BRANCH   9  19
HETATM   19  C9  UNK     1      31.099  -7.964  33.720  1.00  0.00     0.042 A 
HETATM   20  C14 UNK     1      31.044  -6.653  34.415  1.00  0.00     0.195 A 
HETATM   21  O3  UNK     1      31.515  -5.636  33.924  1.00  0.00    -0.287 OA
HETATM   22  C18 UNK     1      30.388  -6.640  35.735  1.00  0.00     0.050 A 
HETATM   23  C24 UNK     1      29.868  -7.831  36.246  1.00  0.00     0.089 A 
HETATM   24  C25 UNK     1      30.286  -5.455  36.470  1.00  0.00     0.042 A 
HETATM   25  O2  UNK     1      29.940  -9.021  35.570  1.00  0.00    -0.321 OA
HETATM   26  C26 UNK     1      29.243  -7.842  37.494  1.00  0.00     0.040 A 
HETATM   27  C15 UNK     1      30.554  -9.019  34.341  1.00  0.00     0.156 A 
HETATM   28  C28 UNK     1      29.140  -6.660  38.228  1.00  0.00     0.026 A 
HETATM   29  C27 UNK     1      29.660  -5.470  37.716  1.00  0.00     0.035 A 
HETATM   30 Cl1  UNK     1      29.529  -4.015  38.629  1.00  0.00    -0.084 Cl
ENDBRANCH   9  19
BRANCH   4  31
HETATM   31  C8  UNK     1      32.891 -13.362  30.166  1.00  0.00    -0.053 A 
HETATM   32  C12 UNK     1      31.966 -14.340  30.526  1.00  0.00     0.010 A 
HETATM   33  C19 UNK     1      32.181 -15.668  30.159  1.00  0.00     0.037 A 
HETATM   34  C21 UNK     1      33.320 -16.016  29.433  1.00  0.00     0.068 A 
HETATM   35  C20 UNK     1      34.244 -15.036  29.074  1.00  0.00     0.037 A 
HETATM   36  C13 UNK     1      34.030 -13.707  29.441  1.00  0.00     0.010 A 
BRANCH  34  37
HETATM   37  O4  UNK     1      33.529 -17.313  29.075  1.00  0.00    -0.356 OA
HETATM   38  C29 UNK     1      33.071 -18.318  29.978  1.00  0.00     0.210 C 
ENDBRANCH  34  37
ENDBRANCH   4  31
TORSDOF 3
ENDMDL
MODEL 8
REMARK VINA RESULT:      -8.6     32.924     36.189
REMARK  3 active torsions:
REMARK  status: ('A' for Active; 'I' for Inactive)
REMARK    1  A    between atoms: C21_28  and  O4_5 
REMARK    2  A    between atoms: C1_8  and  C8_15 
REMARK    3  A    between atoms: C6_13  and  C9_16 
ROOT
HETATM    1  O1  UNK     1      15.158  13.446   8.588  1.00  0.00    -0.293 OA
HETATM    2  N1  UNK     1      19.482  11.455   9.351  1.00  0.00    -0.357 N 
HETATM    3  N2  UNK     1      18.767  14.262  10.150  1.00  0.00    -0.375 N 
HETATM    4  C1  UNK     1      16.025  10.068   9.475  1.00  0.00     0.031 C 
HETATM    5  C2  UNK     1      17.507  10.096   9.096  1.00  0.00     0.067 C 
HETATM    6  C3  UNK     1      17.349  12.597   9.025  1.00  0.00     0.037 C 
HETATM    7  C4  UNK     1      15.271  11.074   8.618  1.00  0.00     0.093 C 
HETATM    8  C5  UNK     1      18.113  11.491   9.165  1.00  0.00     0.022 C 
HETATM    9  C6  UNK     1      17.881  14.007   9.026  1.00  0.00     0.160 C 
HETATM   10  C7  UNK     1      15.870  12.454   8.757  1.00  0.00     0.160 C 
HETATM   11  C10 UNK     1      20.376  12.404   9.887  1.00  0.00     0.059 A 
HETATM   12  C11 UNK     1      20.019  13.692  10.321  1.00  0.00     0.055 A 
HETATM   13  C16 UNK     1      21.718  11.985  10.043  1.00  0.00     0.032 A 
HETATM   14  C17 UNK     1      21.008  14.491  10.939  1.00  0.00     0.031 A 
HETATM   15  C22 UNK     1      22.681  12.797  10.637  1.00  0.00     0.002 A 
HETATM   16  C23 UNK     1      22.322  14.053  11.096  1.00  0.00     0.002 A 
HETATM   17  H7  UNK     1      19.901  10.546   9.171  1.00  0.00     0.166 HD
HETATM   18  H8  UNK     1      18.593  15.120  10.665  1.00  0.00     0.160 HD
ENDROOT
BRANCH   9  19
HETATM   19  C9  UNK     1      18.535  14.389   7.731  1.00  0.00     0.042 A 
HETATM   20  C14 UNK     1      19.031  15.780   7.570  1.00  0.00     0.195 A 
HETATM   21  O3  UNK     1      18.921  16.617   8.456  1.00  0.00    -0.287 OA
HETATM   22  C18 UNK     1      19.664  16.102   6.278  1.00  0.00     0.050 A 
HETATM   23  C24 UNK     1      19.763  15.107   5.304  1.00  0.00     0.089 A 
HETATM   24  C25 UNK     1      20.162  17.384   6.028  1.00  0.00     0.042 A 
HETATM   25  O2  UNK     1      19.292  13.833   5.495  1.00  0.00    -0.321 OA
HETATM   26  C26 UNK     1      20.359  15.390   4.074  1.00  0.00     0.040 A 
HETATM   27  C15 UNK     1      18.703  13.548   6.703  1.00  0.00     0.156 A 
HETATM   28  C28 UNK     1      20.856  16.669   3.823  1.00  0.00     0.026 A 
HETATM   29  C27 UNK     1      20.758  17.663   4.798  1.00  0.00     0.035 A 
HETATM   30 Cl1  UNK     1      21.374  19.239   4.480  1.00  0.00    -0.084 Cl
ENDBRANCH   9  19
BRANCH   4  31
HETATM   31  C8  UNK     1      15.435   8.674   9.377  1.00  0.00    -0.053 A 
HETATM   32  C12 UNK     1      14.238   8.473   8.693  1.00  0.00     0.010 A 
HETATM   33  C19 UNK     1      13.696   7.191   8.604  1.00  0.00     0.037 A 
HETATM   34  C21 UNK     1      14.351   6.113   9.199  1.00  0.00     0.068 A 
HETATM   35  C20 UNK     1      15.550   6.317   9.883  1.00  0.00     0.037 A 
HETATM   36  C13 UNK     1      16.091   7.599   9.973  1.00  0.00     0.010 A 
BRANCH  34  37
HETATM   37  O4  UNK     1      13.822   4.862   9.112  1.00  0.00    -0.356 OA
HETATM   38  C29 UNK     1      12.683   4.697   8.269  1.00  0.00     0.210 C 
ENDBRANCH  34  37
ENDBRANCH   4  31
TORSDOF 3
ENDMDL
MODEL 9
REMARK VINA RESULT:      -8.5      5.312      7.611
REMARK  3 active torsions:
REMARK  status: ('A' for Active; 'I' for Inactive)
REMARK    1  A    between atoms: C21_28  and  O4_5 
REMARK    2  A    between atoms: C1_8  and  C8_15 
REMARK    3  A    between atoms: C6_13  and  C9_16 
ROOT
HETATM    1  O1  UNK     1      34.078 -12.216  33.071  1.00  0.00    -0.293 OA
HETATM    2  N1  UNK     1      35.640  -7.691  33.642  1.00  0.00    -0.357 N 
HETATM    3  N2  UNK     1      33.184  -8.795  34.975  1.00  0.00    -0.375 N 
HETATM    4  C1  UNK     1      37.436 -10.937  33.272  1.00  0.00     0.031 C 
HETATM    5  C2  UNK     1      37.144  -9.461  32.993  1.00  0.00     0.067 C 
HETATM    6  C3  UNK     1      34.726  -9.946  33.443  1.00  0.00     0.037 C 
HETATM    7  C4  UNK     1      36.367 -11.792  32.605  1.00  0.00     0.093 C 
HETATM    8  C5  UNK     1      35.733  -9.047  33.389  1.00  0.00     0.022 C 
HETATM    9  C6  UNK     1      33.295  -9.606  33.773  1.00  0.00     0.160 C 
HETATM   10  C7  UNK     1      34.988 -11.385  33.066  1.00  0.00     0.160 C 
HETATM   11  C10 UNK     1      34.728  -6.947  34.417  1.00  0.00     0.059 A 
HETATM   12  C11 UNK     1      33.619  -7.484  35.093  1.00  0.00     0.055 A 
HETATM   13  C16 UNK     1      35.003  -5.567  34.557  1.00  0.00     0.032 A 
HETATM   14  C17 UNK     1      32.857  -6.628  35.921  1.00  0.00     0.031 A 
HETATM   15  C22 UNK     1      34.226  -4.737  35.364  1.00  0.00     0.002 A 
HETATM   16  C23 UNK     1      33.154  -5.273  36.057  1.00  0.00     0.002 A 
HETATM   17  H7  UNK     1      36.430  -7.150  33.298  1.00  0.00     0.166 HD
HETATM   18  H8  UNK     1      32.486  -9.096  35.648  1.00  0.00     0.160 HD
ENDROOT
BRANCH   9  19
HETATM   19  C9  UNK     1      32.563  -8.970  32.628  1.00  0.00     0.042 A 
HETATM   20  C14 UNK     1      31.105  -8.728  32.765  1.00  0.00     0.195 A 
HETATM   21  O3  UNK     1      30.487  -9.030  33.777  1.00  0.00    -0.287 OA
HETATM   22  C18 UNK     1      30.435  -8.101  31.610  1.00  0.00     0.050 A 
HETATM   23  C24 UNK     1      31.190  -7.777  30.482  1.00  0.00     0.089 A 
HETATM   24  C25 UNK     1      29.064  -7.833  31.640  1.00  0.00     0.042 A 
HETATM   25  O2  UNK     1      32.538  -8.018  30.398  1.00  0.00    -0.321 OA
HETATM   26  C26 UNK     1      30.578  -7.183  29.378  1.00  0.00     0.040 A 
HETATM   27  C15 UNK     1      33.148  -8.603  31.480  1.00  0.00     0.156 A 
HETATM   28  C28 UNK     1      29.209  -6.915  29.406  1.00  0.00     0.026 A 
HETATM   29  C27 UNK     1      28.454  -7.239  30.535  1.00  0.00     0.035 A 
HETATM   30 Cl1  UNK     1      26.765  -6.904  30.562  1.00  0.00    -0.084 Cl
ENDBRANCH   9  19
BRANCH   4  31
HETATM   31  C8  UNK     1      38.837 -11.334  32.847  1.00  0.00    -0.053 A 
HETATM   32  C12 UNK     1      39.394 -10.787  31.693  1.00  0.00     0.010 A 
HETATM   33  C19 UNK     1      40.682 -11.154  31.304  1.00  0.00     0.037 A 
HETATM   34  C21 UNK     1      41.410 -12.065  32.068  1.00  0.00     0.068 A 
HETATM   35  C20 UNK     1      40.850 -12.611  33.223  1.00  0.00     0.037 A 
HETATM   36  C13 UNK     1      39.561 -12.245  33.613  1.00  0.00     0.010 A 
BRANCH  34  37
HETATM   37  O4  UNK     1      42.667 -12.422  31.688  1.00  0.00    -0.356 OA
HETATM   38  C29 UNK     1      43.739 -12.041  32.549  1.00  0.00     0.210 C 
ENDBRANCH  34  37
ENDBRANCH   4  31
TORSDOF 3
ENDMDL
MODEL 10
REMARK VINA RESULT:      -8.5     31.346     34.604
REMARK  3 active torsions:
REMARK  status: ('A' for Active; 'I' for Inactive)
REMARK    1  A    between atoms: C21_28  and  O4_5 
REMARK    2  A    between atoms: C1_8  and  C8_15 
REMARK    3  A    between atoms: C6_13  and  C9_16 
ROOT
HETATM    1  O1  UNK     1      19.101  12.919  13.258  1.00  0.00    -0.293 OA
HETATM    2  N1  UNK     1      19.795  13.029   8.488  1.00  0.00    -0.357 N 
HETATM    3  N2  UNK     1      17.349  14.121   9.849  1.00  0.00    -0.375 N 
HETATM    4  C1  UNK     1      22.121  13.436  11.372  1.00  0.00     0.031 C 
HETATM    5  C2  UNK     1      21.652  12.895  10.020  1.00  0.00     0.067 C 
HETATM    6  C3  UNK     1      19.302  13.037  10.879  1.00  0.00     0.037 C 
HETATM    7  C4  UNK     1      21.339  12.752  12.483  1.00  0.00     0.093 C 
HETATM    8  C5  UNK     1      20.146  13.003   9.824  1.00  0.00     0.022 C 
HETATM    9  C6  UNK     1      17.800  13.088  10.768  1.00  0.00     0.160 C 
HETATM   10  C7  UNK     1      19.852  12.928  12.281  1.00  0.00     0.160 C 
HETATM   11  C10 UNK     1      18.653  13.532   7.834  1.00  0.00     0.059 A 
HETATM   12  C11 UNK     1      17.541  14.104   8.476  1.00  0.00     0.055 A 
HETATM   13  C16 UNK     1      18.675  13.502   6.419  1.00  0.00     0.032 A 
HETATM   14  C17 UNK     1      16.518  14.665   7.678  1.00  0.00     0.031 A 
HETATM   15  C22 UNK     1      17.645  14.045   5.653  1.00  0.00     0.002 A 
HETATM   16  C23 UNK     1      16.566  14.638   6.286  1.00  0.00     0.002 A 
HETATM   17  H7  UNK     1      20.536  12.732   7.859  1.00  0.00     0.166 HD
HETATM   18  H8  UNK     1      16.599  14.717  10.188  1.00  0.00     0.160 HD
ENDROOT
BRANCH   9  19
HETATM   19  C9  UNK     1      17.191  11.761  10.422  1.00  0.00     0.042 A 
HETATM   20  C14 UNK     1      15.712  11.658  10.342  1.00  0.00     0.195 A 
HETATM   21  O3  UNK     1      14.981  12.618  10.548  1.00  0.00    -0.287 OA
HETATM   22  C18 UNK     1      15.167  10.332   9.999  1.00  0.00     0.050 A 
HETATM   23  C24 UNK     1      16.048   9.274   9.774  1.00  0.00     0.089 A 
HETATM   24  C25 UNK     1      13.787  10.132   9.900  1.00  0.00     0.042 A 
HETATM   25  O2  UNK     1      17.410   9.413   9.858  1.00  0.00    -0.321 OA
HETATM   26  C26 UNK     1      15.555   8.010   9.448  1.00  0.00     0.040 A 
HETATM   27  C15 UNK     1      17.904  10.653  10.179  1.00  0.00     0.156 A 
HETATM   28  C28 UNK     1      14.178   7.808   9.349  1.00  0.00     0.026 A 
HETATM   29  C27 UNK     1      13.296   8.868   9.573  1.00  0.00     0.035 A 
HETATM   30 Cl1  UNK     1      11.598   8.610   9.448  1.00  0.00    -0.084 Cl
ENDBRANCH   9  19
BRANCH   4  31
HETATM   31  C8  UNK     1      23.621  13.298  11.556  1.00  0.00    -0.053 A 
HETATM   32  C12 UNK     1      24.229  13.797  12.706  1.00  0.00     0.010 A 
HETATM   33  C19 UNK     1      25.607  13.670  12.873  1.00  0.00     0.037 A 
HETATM   34  C21 UNK     1      26.375  13.044  11.891  1.00  0.00     0.068 A 
HETATM   35  C20 UNK     1      25.764  12.545  10.741  1.00  0.00     0.037 A 
HETATM   36  C13 UNK     1      24.385  12.672  10.573  1.00  0.00     0.010 A 
BRANCH  34  37
HETATM   37  O4  UNK     1      27.720  12.919  12.056  1.00  0.00    -0.356 OA
HETATM   38  C29 UNK     1      28.253  11.596  12.073  1.00  0.00     0.210 C 
ENDBRANCH  34  37
ENDBRANCH   4  31
TORSDOF 3
ENDMDL
