MODEL 1
REMARK VINA RESULT:      -8.8      0.000      0.000
REMARK  2 active torsions:
REMARK  status: ('A' for Active; 'I' for Inactive)
REMARK    1  A    between atoms: C11_14  and  O2_2 
REMARK    2  A    between atoms: C1_4  and  C3_6 
ROOT
HETATM    1  O1  UNK     1      18.747  -0.554  33.719  1.00  0.00    -0.309 OA
HETATM    2  O3  UNK     1      20.598  -3.602  35.690  1.00  0.00    -0.287 OA
HETATM    3  C1  UNK     1      19.608  -1.425  33.069  1.00  0.00     0.090 A 
HETATM    4  C2  UNK     1      19.112  -1.767  35.792  1.00  0.00     0.048 A 
HETATM    5  C4  UNK     1      18.514  -0.745  35.059  1.00  0.00     0.090 A 
HETATM    6  C5  UNK     1      20.249  -2.442  33.667  1.00  0.00     0.093 A 
HETATM    7  C6  UNK     1      20.035  -2.686  35.108  1.00  0.00     0.187 A 
HETATM    8  C8  UNK     1      18.838  -1.913  37.154  1.00  0.00     0.018 A 
HETATM    9  C10 UNK     1      17.637   0.142  35.683  1.00  0.00     0.038 A 
HETATM   10  C12 UNK     1      17.959  -1.026  37.777  1.00  0.00     0.001 A 
HETATM   11  C13 UNK     1      17.360  -0.001  37.044  1.00  0.00     0.003 A 
ENDROOT
BRANCH   3  12
HETATM   12  C3  UNK     1      19.791  -1.128  31.634  1.00  0.00     0.001 A 
HETATM   13  C7  UNK     1      19.431   0.121  31.123  1.00  0.00     0.051 A 
HETATM   14  C11 UNK     1      19.603   0.399  29.767  1.00  0.00     0.069 A 
HETATM   15  C15 UNK     1      20.135  -0.570  28.918  1.00  0.00     0.037 A 
HETATM   16  C14 UNK     1      20.497  -1.818  29.424  1.00  0.00     0.004 A 
HETATM   17  C9  UNK     1      20.325  -2.098  30.780  1.00  0.00     0.014 A 
BRANCH  14  18
HETATM   18  O2  UNK     1      19.250   1.617  29.271  1.00  0.00    -0.356 OA
HETATM   19  C16 UNK     1      17.914   1.759  28.789  1.00  0.00     0.210 C 
ENDBRANCH  14  18
ENDBRANCH   3  12
TORSDOF 2
ENDMDL
MODEL 2
REMARK VINA RESULT:      -8.3      1.526      6.875
REMARK  2 active torsions:
REMARK  status: ('A' for Active; 'I' for Inactive)
REMARK    1  A    between atoms: C11_14  and  O2_2 
REMARK    2  A    between atoms: C1_4  and  C3_6 
ROOT
HETATM    1  O1  UNK     1      19.141  -0.414  32.881  1.00  0.00    -0.309 OA
HETATM    2  O3  UNK     1      18.543   2.877  30.554  1.00  0.00    -0.287 OA
HETATM    3  C1  UNK     1      18.592   0.751  33.395  1.00  0.00     0.090 A 
HETATM    4  C2  UNK     1      19.296   0.641  30.698  1.00  0.00     0.048 A 
HETATM    5  C4  UNK     1      19.475  -0.447  31.550  1.00  0.00     0.090 A 
HETATM    6  C5  UNK     1      18.377   1.866  32.677  1.00  0.00     0.093 A 
HETATM    7  C6  UNK     1      18.724   1.883  31.242  1.00  0.00     0.187 A 
HETATM    8  C8  UNK     1      19.656   0.551  29.352  1.00  0.00     0.018 A 
HETATM    9  C10 UNK     1      20.018  -1.635  31.060  1.00  0.00     0.038 A 
HETATM   10  C12 UNK     1      20.198  -0.639  28.863  1.00  0.00     0.001 A 
HETATM   11  C13 UNK     1      20.379  -1.729  29.716  1.00  0.00     0.003 A 
ENDROOT
BRANCH   3  12
HETATM   12  C3  UNK     1      18.273   0.681  34.835  1.00  0.00     0.001 A 
HETATM   13  C7  UNK     1      18.491  -0.502  35.546  1.00  0.00     0.051 A 
HETATM   14  C11 UNK     1      18.188  -0.568  36.906  1.00  0.00     0.069 A 
HETATM   15  C15 UNK     1      17.665   0.548  37.559  1.00  0.00     0.037 A 
HETATM   16  C14 UNK     1      17.446   1.731  36.852  1.00  0.00     0.004 A 
HETATM   17  C9  UNK     1      17.749   1.797  35.493  1.00  0.00     0.014 A 
BRANCH  14  18
HETATM   18  O2  UNK     1      18.400  -1.721  37.596  1.00  0.00    -0.356 OA
HETATM   19  C16 UNK     1      19.378  -2.620  37.074  1.00  0.00     0.210 C 
ENDBRANCH  14  18
ENDBRANCH   3  12
TORSDOF 2
ENDMDL
MODEL 3
REMARK VINA RESULT:      -8.3     24.636     26.800
REMARK  2 active torsions:
REMARK  status: ('A' for Active; 'I' for Inactive)
REMARK    1  A    between atoms: C11_14  and  O2_2 
REMARK    2  A    between atoms: C1_4  and  C3_6 
ROOT
HETATM    1  O1  UNK     1      13.323   7.511   8.512  1.00  0.00    -0.309 OA
HETATM    2  O3  UNK     1      15.407   4.216   9.696  1.00  0.00    -0.287 OA
HETATM    3  C1  UNK     1      12.817   6.231   8.347  1.00  0.00     0.090 A 
HETATM    4  C2  UNK     1      15.319   6.572   9.531  1.00  0.00     0.048 A 
HETATM    5  C4  UNK     1      14.554   7.655   9.101  1.00  0.00     0.090 A 
HETATM    6  C5  UNK     1      13.460   5.110   8.713  1.00  0.00     0.093 A 
HETATM    7  C6  UNK     1      14.789   5.212   9.347  1.00  0.00     0.187 A 
HETATM    8  C8  UNK     1      16.566   6.779  10.124  1.00  0.00     0.018 A 
HETATM    9  C10 UNK     1      15.034   8.955   9.261  1.00  0.00     0.038 A 
HETATM   10  C12 UNK     1      17.044   8.080  10.284  1.00  0.00     0.001 A 
HETATM   11  C13 UNK     1      16.280   9.166   9.853  1.00  0.00     0.003 A 
ENDROOT
BRANCH   3  12
HETATM   12  C3  UNK     1      11.490   6.189   7.700  1.00  0.00     0.001 A 
HETATM   13  C7  UNK     1      10.329   6.149   8.477  1.00  0.00     0.051 A 
HETATM   14  C11 UNK     1       9.077   6.109   7.865  1.00  0.00     0.069 A 
HETATM   15  C15 UNK     1       8.981   6.107   6.473  1.00  0.00     0.037 A 
HETATM   16  C14 UNK     1      10.136   6.147   5.694  1.00  0.00     0.004 A 
HETATM   17  C9  UNK     1      11.389   6.187   6.305  1.00  0.00     0.014 A 
BRANCH  14  18
HETATM   18  O2  UNK     1       7.948   6.068   8.624  1.00  0.00    -0.356 OA
HETATM   19  C16 UNK     1       7.761   4.919   9.450  1.00  0.00     0.210 C 
ENDBRANCH  14  18
ENDBRANCH   3  12
TORSDOF 2
ENDMDL
MODEL 4
REMARK VINA RESULT:      -8.2      3.560      6.183
REMARK  2 active torsions:
REMARK  status: ('A' for Active; 'I' for Inactive)
REMARK    1  A    between atoms: C11_14  and  O2_2 
REMARK    2  A    between atoms: C1_4  and  C3_6 
ROOT
HETATM    1  O1  UNK     1      19.314   1.955  30.421  1.00  0.00    -0.309 OA
HETATM    2  O3  UNK     1      18.522  -0.181  33.799  1.00  0.00    -0.287 OA
HETATM    3  C1  UNK     1      18.770   2.552  31.549  1.00  0.00     0.090 A 
HETATM    4  C2  UNK     1      19.354  -0.176  31.587  1.00  0.00     0.048 A 
HETATM    5  C4  UNK     1      19.598   0.613  30.464  1.00  0.00     0.090 A 
HETATM    6  C5  UNK     1      18.484   1.898  32.686  1.00  0.00     0.093 A 
HETATM    7  C6  UNK     1      18.766   0.452  32.781  1.00  0.00     0.187 A 
HETATM    8  C8  UNK     1      19.662  -1.538  31.574  1.00  0.00     0.018 A 
HETATM    9  C10 UNK     1      20.151   0.043  29.318  1.00  0.00     0.038 A 
HETATM   10  C12 UNK     1      20.217  -2.106  30.426  1.00  0.00     0.001 A 
HETATM   11  C13 UNK     1      20.461  -1.317  29.301  1.00  0.00     0.003 A 
ENDROOT
BRANCH   3  12
HETATM   12  C3  UNK     1      18.501   3.995  31.393  1.00  0.00     0.001 A 
HETATM   13  C7  UNK     1      17.665   4.656  32.297  1.00  0.00     0.051 A 
HETATM   14  C11 UNK     1      17.411   6.019  32.149  1.00  0.00     0.069 A 
HETATM   15  C15 UNK     1      17.990   6.726  31.096  1.00  0.00     0.037 A 
HETATM   16  C14 UNK     1      18.825   6.070  30.191  1.00  0.00     0.004 A 
HETATM   17  C9  UNK     1      19.080   4.708  30.339  1.00  0.00     0.014 A 
BRANCH  14  18
HETATM   18  O2  UNK     1      16.595   6.660  33.030  1.00  0.00    -0.356 OA
HETATM   19  C16 UNK     1      17.113   6.901  34.338  1.00  0.00     0.210 C 
ENDBRANCH  14  18
ENDBRANCH   3  12
TORSDOF 2
ENDMDL
MODEL 5
REMARK VINA RESULT:      -8.1      1.069      2.221
REMARK  2 active torsions:
REMARK  status: ('A' for Active; 'I' for Inactive)
REMARK    1  A    between atoms: C11_14  and  O2_2 
REMARK    2  A    between atoms: C1_4  and  C3_6 
ROOT
HETATM    1  O1  UNK     1      19.863  -1.817  33.823  1.00  0.00    -0.309 OA
HETATM    2  O3  UNK     1      16.656   0.155  35.382  1.00  0.00    -0.287 OA
HETATM    3  C1  UNK     1      19.072  -0.983  33.046  1.00  0.00     0.090 A 
HETATM    4  C2  UNK     1      18.469  -1.316  35.749  1.00  0.00     0.048 A 
HETATM    5  C4  UNK     1      19.550  -1.962  35.152  1.00  0.00     0.090 A 
HETATM    6  C5  UNK     1      18.002  -0.313  33.504  1.00  0.00     0.093 A 
HETATM    7  C6  UNK     1      17.622  -0.439  34.925  1.00  0.00     0.187 A 
HETATM    8  C8  UNK     1      18.198  -1.501  37.106  1.00  0.00     0.018 A 
HETATM    9  C10 UNK     1      20.367  -2.800  35.909  1.00  0.00     0.038 A 
HETATM   10  C12 UNK     1      19.018  -2.339  37.863  1.00  0.00     0.001 A 
HETATM   11  C13 UNK     1      20.100  -2.988  37.266  1.00  0.00     0.003 A 
ENDROOT
BRANCH   3  12
HETATM   12  C3  UNK     1      19.493  -0.903  31.633  1.00  0.00     0.001 A 
HETATM   13  C7  UNK     1      19.219   0.243  30.882  1.00  0.00     0.051 A 
HETATM   14  C11 UNK     1      19.616   0.317  29.547  1.00  0.00     0.069 A 
HETATM   15  C15 UNK     1      20.288  -0.754  28.959  1.00  0.00     0.037 A 
HETATM   16  C14 UNK     1      20.564  -1.899  29.705  1.00  0.00     0.004 A 
HETATM   17  C9  UNK     1      20.167  -1.974  31.039  1.00  0.00     0.014 A 
BRANCH  14  18
HETATM   18  O2  UNK     1      19.346   1.434  28.817  1.00  0.00    -0.356 OA
HETATM   19  C16 UNK     1      18.016   1.946  28.881  1.00  0.00     0.210 C 
ENDBRANCH  14  18
ENDBRANCH   3  12
TORSDOF 2
ENDMDL
MODEL 6
REMARK VINA RESULT:      -8.0      1.777      6.288
REMARK  2 active torsions:
REMARK  status: ('A' for Active; 'I' for Inactive)
REMARK    1  A    between atoms: C11_14  and  O2_2 
REMARK    2  A    between atoms: C1_4  and  C3_6 
ROOT
HETATM    1  O1  UNK     1      18.537   0.191  32.370  1.00  0.00    -0.309 OA
HETATM    2  O3  UNK     1      20.959  -3.079  32.566  1.00  0.00    -0.287 OA
HETATM    3  C1  UNK     1      18.648  -0.564  33.528  1.00  0.00     0.090 A 
HETATM    4  C2  UNK     1      20.125  -1.285  31.274  1.00  0.00     0.048 A 
HETATM    5  C4  UNK     1      19.276  -0.180  31.275  1.00  0.00     0.090 A 
HETATM    6  C5  UNK     1      19.426  -1.652  33.649  1.00  0.00     0.093 A 
HETATM    7  C6  UNK     1      20.237  -2.094  32.498  1.00  0.00     0.187 A 
HETATM    8  C8  UNK     1      20.853  -1.616  30.129  1.00  0.00     0.018 A 
HETATM    9  C10 UNK     1      19.148   0.603  30.127  1.00  0.00     0.038 A 
HETATM   10  C12 UNK     1      20.725  -0.831  28.983  1.00  0.00     0.001 A 
HETATM   11  C13 UNK     1      19.874   0.276  28.982  1.00  0.00     0.003 A 
ENDROOT
BRANCH   3  12
HETATM   12  C3  UNK     1      17.809  -0.081  34.643  1.00  0.00     0.001 A 
HETATM   13  C7  UNK     1      18.381   0.641  35.693  1.00  0.00     0.051 A 
HETATM   14  C11 UNK     1      17.587   1.095  36.746  1.00  0.00     0.069 A 
HETATM   15  C15 UNK     1      16.218   0.828  36.752  1.00  0.00     0.037 A 
HETATM   16  C14 UNK     1      15.643   0.109  35.706  1.00  0.00     0.004 A 
HETATM   17  C9  UNK     1      16.436  -0.346  34.653  1.00  0.00     0.014 A 
BRANCH  14  18
HETATM   18  O2  UNK     1      18.148   1.796  37.769  1.00  0.00    -0.356 OA
HETATM   19  C16 UNK     1      17.801   1.400  39.095  1.00  0.00     0.210 C 
ENDBRANCH  14  18
ENDBRANCH   3  12
TORSDOF 2
ENDMDL
MODEL 7
REMARK VINA RESULT:      -7.9      3.964      7.241
REMARK  2 active torsions:
REMARK  status: ('A' for Active; 'I' for Inactive)
REMARK    1  A    between atoms: C11_14  and  O2_2 
REMARK    2  A    between atoms: C1_4  and  C3_6 
ROOT
HETATM    1  O1  UNK     1      19.234   1.957  31.371  1.00  0.00    -0.309 OA
HETATM    2  O3  UNK     1      17.726   2.045  27.586  1.00  0.00    -0.287 OA
HETATM    3  C1  UNK     1      18.457   3.014  30.921  1.00  0.00     0.090 A 
HETATM    4  C2  UNK     1      18.997   0.882  29.204  1.00  0.00     0.048 A 
HETATM    5  C4  UNK     1      19.483   0.917  30.510  1.00  0.00     0.090 A 
HETATM    6  C5  UNK     1      17.938   3.099  29.685  1.00  0.00     0.093 A 
HETATM    7  C6  UNK     1      18.181   2.007  28.721  1.00  0.00     0.187 A 
HETATM    8  C8  UNK     1      19.282  -0.203  28.373  1.00  0.00     0.018 A 
HETATM    9  C10 UNK     1      20.261  -0.135  30.993  1.00  0.00     0.038 A 
HETATM   10  C12 UNK     1      20.060  -1.255  28.859  1.00  0.00     0.001 A 
HETATM   11  C13 UNK     1      20.548  -1.221  30.166  1.00  0.00     0.003 A 
ENDROOT
BRANCH   3  12
HETATM   12  C3  UNK     1      18.255   4.079  31.923  1.00  0.00     0.001 A 
HETATM   13  C7  UNK     1      17.988   5.388  31.514  1.00  0.00     0.051 A 
HETATM   14  C11 UNK     1      17.799   6.394  32.461  1.00  0.00     0.069 A 
HETATM   15  C15 UNK     1      17.876   6.094  33.821  1.00  0.00     0.037 A 
HETATM   16  C14 UNK     1      18.142   4.789  34.234  1.00  0.00     0.004 A 
HETATM   17  C9  UNK     1      18.332   3.783  33.287  1.00  0.00     0.014 A 
BRANCH  14  18
HETATM   18  O2  UNK     1      17.540   7.668  32.060  1.00  0.00    -0.356 OA
HETATM   19  C16 UNK     1      16.736   8.471  32.924  1.00  0.00     0.210 C 
ENDBRANCH  14  18
ENDBRANCH   3  12
TORSDOF 2
ENDMDL
MODEL 8
REMARK VINA RESULT:      -7.9     14.621     17.607
REMARK  2 active torsions:
REMARK  status: ('A' for Active; 'I' for Inactive)
REMARK    1  A    between atoms: C11_14  and  O2_2 
REMARK    2  A    between atoms: C1_4  and  C3_6 
ROOT
HETATM    1  O1  UNK     1      19.196   0.323  15.845  1.00  0.00    -0.309 OA
HETATM    2  O3  UNK     1      18.696  -0.614  19.779  1.00  0.00    -0.287 OA
HETATM    3  C1  UNK     1      18.957  -0.979  16.259  1.00  0.00     0.090 A 
HETATM    4  C2  UNK     1      19.088   1.060  18.158  1.00  0.00     0.048 A 
HETATM    5  C4  UNK     1      19.252   1.310  16.797  1.00  0.00     0.090 A 
HETATM    6  C5  UNK     1      18.789  -1.347  17.539  1.00  0.00     0.093 A 
HETATM    7  C6  UNK     1      18.845  -0.322  18.601  1.00  0.00     0.187 A 
HETATM    8  C8  UNK     1      19.156   2.105  19.082  1.00  0.00     0.018 A 
HETATM    9  C10 UNK     1      19.487   2.611  16.350  1.00  0.00     0.038 A 
HETATM   10  C12 UNK     1      19.390   3.405  18.632  1.00  0.00     0.001 A 
HETATM   11  C13 UNK     1      19.555   3.658  17.270  1.00  0.00     0.003 A 
ENDROOT
BRANCH   3  12
HETATM   12  C3  UNK     1      18.921  -1.962  15.157  1.00  0.00     0.001 A 
HETATM   13  C7  UNK     1      18.983  -1.532  13.829  1.00  0.00     0.051 A 
HETATM   14  C11 UNK     1      18.947  -2.462  12.790  1.00  0.00     0.069 A 
HETATM   15  C15 UNK     1      18.849  -3.823  13.075  1.00  0.00     0.037 A 
HETATM   16  C14 UNK     1      18.786  -4.256  14.399  1.00  0.00     0.004 A 
HETATM   17  C9  UNK     1      18.821  -3.328  15.438  1.00  0.00     0.014 A 
BRANCH  14  18
HETATM   18  O2  UNK     1      19.007  -2.040  11.497  1.00  0.00    -0.356 OA
HETATM   19  C16 UNK     1      19.325  -3.020  10.509  1.00  0.00     0.210 C 
ENDBRANCH  14  18
ENDBRANCH   3  12
TORSDOF 2
ENDMDL
MODEL 9
REMARK VINA RESULT:      -7.9     14.592     17.313
REMARK  2 active torsions:
REMARK  status: ('A' for Active; 'I' for Inactive)
REMARK    1  A    between atoms: C11_14  and  O2_2 
REMARK    2  A    between atoms: C1_4  and  C3_6 
ROOT
HETATM    1  O1  UNK     1      19.178   0.366  15.885  1.00  0.00    -0.309 OA
HETATM    2  O3  UNK     1      18.649  -0.559  19.818  1.00  0.00    -0.287 OA
HETATM    3  C1  UNK     1      18.912  -0.931  16.299  1.00  0.00     0.090 A 
HETATM    4  C2  UNK     1      19.079   1.106  18.197  1.00  0.00     0.048 A 
HETATM    5  C4  UNK     1      19.251   1.353  16.836  1.00  0.00     0.090 A 
HETATM    6  C5  UNK     1      18.733  -1.294  17.579  1.00  0.00     0.093 A 
HETATM    7  C6  UNK     1      18.806  -0.270  18.640  1.00  0.00     0.187 A 
HETATM    8  C8  UNK     1      19.164   2.150  19.120  1.00  0.00     0.018 A 
HETATM    9  C10 UNK     1      19.513   2.648  16.389  1.00  0.00     0.038 A 
HETATM   10  C12 UNK     1      19.425   3.446  18.671  1.00  0.00     0.001 A 
HETATM   11  C13 UNK     1      19.599   3.694  17.308  1.00  0.00     0.003 A 
ENDROOT
BRANCH   3  12
HETATM   12  C3  UNK     1      18.859  -1.913  15.197  1.00  0.00     0.001 A 
HETATM   13  C7  UNK     1      18.346  -3.194  15.421  1.00  0.00     0.051 A 
HETATM   14  C11 UNK     1      18.298  -4.121  14.381  1.00  0.00     0.069 A 
HETATM   15  C15 UNK     1      18.763  -3.771  13.113  1.00  0.00     0.037 A 
HETATM   16  C14 UNK     1      19.276  -2.495  12.886  1.00  0.00     0.004 A 
HETATM   17  C9  UNK     1      19.324  -1.567  13.925  1.00  0.00     0.014 A 
BRANCH  14  18
HETATM   18  O2  UNK     1      17.800  -5.368  14.602  1.00  0.00    -0.356 OA
HETATM   19  C16 UNK     1      18.415  -6.141  15.632  1.00  0.00     0.210 C 
ENDBRANCH  14  18
ENDBRANCH   3  12
TORSDOF 2
ENDMDL
MODEL 10
REMARK VINA RESULT:      -7.8     13.985     17.652
REMARK  2 active torsions:
REMARK  status: ('A' for Active; 'I' for Inactive)
REMARK    1  A    between atoms: C11_14  and  O2_2 
REMARK    2  A    between atoms: C1_4  and  C3_6 
ROOT
HETATM    1  O1  UNK     1      19.076  -0.947  17.179  1.00  0.00    -0.309 OA
HETATM    2  O3  UNK     1      19.348   2.762  15.514  1.00  0.00    -0.287 OA
HETATM    3  C1  UNK     1      19.217  -0.771  15.810  1.00  0.00     0.090 A 
HETATM    4  C2  UNK     1      19.130   1.464  17.476  1.00  0.00     0.048 A 
HETATM    5  C4  UNK     1      19.041   0.167  17.980  1.00  0.00     0.090 A 
HETATM    6  C5  UNK     1      19.306   0.425  15.206  1.00  0.00     0.093 A 
HETATM    7  C6  UNK     1      19.269   1.654  16.024  1.00  0.00     0.187 A 
HETATM    8  C8  UNK     1      19.088   2.561  18.340  1.00  0.00     0.018 A 
HETATM    9  C10 UNK     1      18.906  -0.041  19.352  1.00  0.00     0.038 A 
HETATM   10  C12 UNK     1      18.955   2.350  19.713  1.00  0.00     0.001 A 
HETATM   11  C13 UNK     1      18.864   1.052  20.218  1.00  0.00     0.003 A 
ENDROOT
BRANCH   3  12
HETATM   12  C3  UNK     1      19.239  -2.033  15.042  1.00  0.00     0.001 A 
HETATM   13  C7  UNK     1      18.925  -2.033  13.681  1.00  0.00     0.051 A 
HETATM   14  C11 UNK     1      18.945  -3.225  12.958  1.00  0.00     0.069 A 
HETATM   15  C15 UNK     1      19.279  -4.421  13.593  1.00  0.00     0.037 A 
HETATM   16  C14 UNK     1      19.594  -4.425  14.952  1.00  0.00     0.004 A 
HETATM   17  C9  UNK     1      19.574  -3.234  15.676  1.00  0.00     0.014 A 
BRANCH  14  18
HETATM   18  O2  UNK     1      18.637  -3.223  11.632  1.00  0.00    -0.356 OA
HETATM   19  C16 UNK     1      19.481  -2.461  10.770  1.00  0.00     0.210 C 
ENDBRANCH  14  18
ENDBRANCH   3  12
TORSDOF 2
ENDMDL
