MODEL 1
REMARK VINA RESULT:      -8.9      0.000      0.000
REMARK  6 active torsions:
REMARK  status: ('A' for Active; 'I' for Inactive)
REMARK    1  A    between atoms: C3_9  and  O1_1 
REMARK    2  A    between atoms: C7_13  and  O1_1 
REMARK       I    between atoms: C20_26  and  N1_5 
REMARK    3  A    between atoms: N1_5  and  N2_6 
REMARK    4  A    between atoms: C3_9  and  C4_10 
REMARK    5  A    between atoms: C19_25  and  C6_12 
REMARK    6  A    between atoms: C20_26  and  C9_15 
ROOT
HETATM    1  O4  UNK     1      21.326  -3.581  32.428  1.00  0.00    -0.266 OA
HETATM    2  N1  UNK     1      20.215  -2.390  34.074  1.00  0.00    -0.243 N 
HETATM    3  C20 UNK     1      20.650  -2.619  32.782  1.00  0.00     0.271 C 
HETATM    4  H18 UNK     1      19.705  -1.563  34.364  1.00  0.00     0.192 HD
ENDROOT
BRANCH   2   5
HETATM    5  N2  UNK     1      20.550  -3.284  35.036  1.00  0.00    -0.183 NA
HETATM    6  C19 UNK     1      19.605  -4.114  35.336  1.00  0.00     0.156 C 
BRANCH   6   7
HETATM    7  C6  UNK     1      19.767  -5.156  36.350  1.00  0.00     0.056 A 
HETATM    8  C15 UNK     1      20.435  -4.846  37.466  1.00  0.00     0.159 A 
HETATM    9  O2  UNK     1      20.685  -5.689  38.522  1.00  0.00    -0.321 OA
HETATM   10  C2  UNK     1      20.210  -6.974  38.436  1.00  0.00     0.089 A 
HETATM   11  C1  UNK     1      19.496  -7.443  37.333  1.00  0.00     0.049 A 
HETATM   12  C10 UNK     1      20.468  -7.823  39.514  1.00  0.00     0.038 A 
HETATM   13  C5  UNK     1      19.234  -6.528  36.207  1.00  0.00     0.198 A 
HETATM   14  C8  UNK     1      19.036  -8.762  37.300  1.00  0.00     0.018 A 
HETATM   15  O3  UNK     1      18.611  -6.885  35.215  1.00  0.00    -0.286 OA
HETATM   16  C17 UNK     1      19.296  -9.608  38.378  1.00  0.00     0.001 A 
HETATM   17  C18 UNK     1      20.010  -9.140  39.483  1.00  0.00     0.003 A 
ENDBRANCH   6   7
ENDBRANCH   2   5
BRANCH   3  18
HETATM   18  C9  UNK     1      20.267  -1.590  31.780  1.00  0.00     0.033 A 
HETATM   19  C13 UNK     1      19.491  -0.523  32.185  1.00  0.00     0.020 A 
HETATM   20  C11 UNK     1      19.132   0.443  31.244  1.00  0.00     0.038 A 
HETATM   21  C7  UNK     1      19.556   0.321  29.922  1.00  0.00     0.068 A 
HETATM   22  C12 UNK     1      20.339  -0.767  29.539  1.00  0.00     0.038 A 
HETATM   23  C14 UNK     1      20.699  -1.734  30.478  1.00  0.00     0.020 A 
BRANCH  21  24
HETATM   24  O1  UNK     1      19.207   1.264  29.005  1.00  0.00    -0.351 OA
BRANCH  24  25
HETATM   25  C3  UNK     1      18.142   2.148  29.356  1.00  0.00     0.175 C 
BRANCH  25  26
HETATM   26  C4  UNK     1      18.706   3.549  29.538  1.00  0.00     0.022 C 
HETATM   27  C16 UNK     1      18.604   4.016  30.979  1.00  0.00     0.007 C 
ENDBRANCH  25  26
ENDBRANCH  24  25
ENDBRANCH  21  24
ENDBRANCH   3  18
TORSDOF 6
ENDMDL
MODEL 2
REMARK VINA RESULT:      -8.7      6.460     10.367
REMARK  6 active torsions:
REMARK  status: ('A' for Active; 'I' for Inactive)
REMARK    1  A    between atoms: C3_9  and  O1_1 
REMARK    2  A    between atoms: C7_13  and  O1_1 
REMARK       I    between atoms: C20_26  and  N1_5 
REMARK    3  A    between atoms: N1_5  and  N2_6 
REMARK    4  A    between atoms: C3_9  and  C4_10 
REMARK    5  A    between atoms: C19_25  and  C6_12 
REMARK    6  A    between atoms: C20_26  and  C9_15 
ROOT
HETATM    1  O4  UNK     1      19.762   6.519  32.885  1.00  0.00    -0.266 OA
HETATM    2  N1  UNK     1      17.839   5.802  31.814  1.00  0.00    -0.243 N 
HETATM    3  C20 UNK     1      18.560   6.625  32.658  1.00  0.00     0.271 C 
HETATM    4  H18 UNK     1      16.836   5.867  31.678  1.00  0.00     0.192 HD
ENDROOT
BRANCH   2   5
HETATM    5  N2  UNK     1      18.489   4.796  31.181  1.00  0.00    -0.183 NA
HETATM    6  C19 UNK     1      18.025   3.619  31.448  1.00  0.00     0.156 C 
BRANCH   6   7
HETATM    7  C6  UNK     1      18.589   2.402  30.865  1.00  0.00     0.056 A 
HETATM    8  C15 UNK     1      18.822   2.386  29.549  1.00  0.00     0.159 A 
HETATM    9  O2  UNK     1      19.345   1.338  28.829  1.00  0.00    -0.321 OA
HETATM   10  C2  UNK     1      19.664   0.192  29.516  1.00  0.00     0.089 A 
HETATM   11  C1  UNK     1      19.477   0.060  30.892  1.00  0.00     0.049 A 
HETATM   12  C10 UNK     1      20.195  -0.866  28.777  1.00  0.00     0.038 A 
HETATM   13  C5  UNK     1      18.914   1.192  31.652  1.00  0.00     0.198 A 
HETATM   14  C8  UNK     1      19.819  -1.131  31.538  1.00  0.00     0.018 A 
HETATM   15  O3  UNK     1      18.731   1.131  32.861  1.00  0.00    -0.286 OA
HETATM   16  C17 UNK     1      20.349  -2.187  30.797  1.00  0.00     0.001 A 
HETATM   17  C18 UNK     1      20.538  -2.056  29.420  1.00  0.00     0.003 A 
ENDBRANCH   6   7
ENDBRANCH   2   5
BRANCH   3  18
HETATM   18  C9  UNK     1      17.783   7.695  33.337  1.00  0.00     0.033 A 
HETATM   19  C13 UNK     1      18.374   8.925  33.532  1.00  0.00     0.020 A 
HETATM   20  C11 UNK     1      17.644   9.930  34.170  1.00  0.00     0.038 A 
HETATM   21  C7  UNK     1      16.340   9.681  34.597  1.00  0.00     0.068 A 
HETATM   22  C12 UNK     1      15.766   8.427  34.387  1.00  0.00     0.038 A 
HETATM   23  C14 UNK     1      16.495   7.422  33.750  1.00  0.00     0.020 A 
BRANCH  21  24
HETATM   24  O1  UNK     1      15.628  10.660  35.217  1.00  0.00    -0.351 OA
BRANCH  24  25
HETATM   25  C3  UNK     1      14.206  10.589  35.121  1.00  0.00     0.175 C 
BRANCH  25  26
HETATM   26  C4  UNK     1      13.720  11.690  34.189  1.00  0.00     0.022 C 
HETATM   27  C16 UNK     1      12.930  11.131  33.019  1.00  0.00     0.007 C 
ENDBRANCH  25  26
ENDBRANCH  24  25
ENDBRANCH  21  24
ENDBRANCH   3  18
TORSDOF 6
ENDMDL
MODEL 3
REMARK VINA RESULT:      -8.5      0.774      1.255
REMARK  6 active torsions:
REMARK  status: ('A' for Active; 'I' for Inactive)
REMARK    1  A    between atoms: C3_9  and  O1_1 
REMARK    2  A    between atoms: C7_13  and  O1_1 
REMARK       I    between atoms: C20_26  and  N1_5 
REMARK    3  A    between atoms: N1_5  and  N2_6 
REMARK    4  A    between atoms: C3_9  and  C4_10 
REMARK    5  A    between atoms: C19_25  and  C6_12 
REMARK    6  A    between atoms: C20_26  and  C9_15 
ROOT
HETATM    1  O4  UNK     1      21.153  -3.364  32.196  1.00  0.00    -0.266 OA
HETATM    2  N1  UNK     1      20.043  -2.652  34.100  1.00  0.00    -0.243 N 
HETATM    3  C20 UNK     1      20.461  -2.539  32.787  1.00  0.00     0.271 C 
HETATM    4  H18 UNK     1      19.518  -1.938  34.593  1.00  0.00     0.192 HD
ENDROOT
BRANCH   2   5
HETATM    5  N2  UNK     1      20.415  -3.748  34.804  1.00  0.00    -0.183 NA
HETATM    6  C19 UNK     1      19.708  -3.956  35.867  1.00  0.00     0.156 C 
BRANCH   6   7
HETATM    7  C6  UNK     1      19.951  -5.086  36.763  1.00  0.00     0.056 A 
HETATM    8  C15 UNK     1      20.895  -4.951  37.701  1.00  0.00     0.159 A 
HETATM    9  O2  UNK     1      21.260  -5.899  38.627  1.00  0.00    -0.321 OA
HETATM   10  C2  UNK     1      20.602  -7.105  38.596  1.00  0.00     0.089 A 
HETATM   11  C1  UNK     1      19.595  -7.392  37.674  1.00  0.00     0.049 A 
HETATM   12  C10 UNK     1      20.980  -8.061  39.540  1.00  0.00     0.038 A 
HETATM   13  C5  UNK     1      19.213  -6.366  36.687  1.00  0.00     0.198 A 
HETATM   14  C8  UNK     1      18.961  -8.636  37.690  1.00  0.00     0.018 A 
HETATM   15  O3  UNK     1      18.335  -6.563  35.856  1.00  0.00    -0.286 OA
HETATM   16  C17 UNK     1      19.340  -9.590  38.634  1.00  0.00     0.001 A 
HETATM   17  C18 UNK     1      20.347  -9.304  39.558  1.00  0.00     0.003 A 
ENDBRANCH   6   7
ENDBRANCH   2   5
BRANCH   3  18
HETATM   18  C9  UNK     1      20.036  -1.304  32.078  1.00  0.00     0.033 A 
HETATM   19  C13 UNK     1      20.628  -0.993  30.872  1.00  0.00     0.020 A 
HETATM   20  C11 UNK     1      20.229   0.167  30.206  1.00  0.00     0.038 A 
HETATM   21  C7  UNK     1      19.248   0.988  30.761  1.00  0.00     0.068 A 
HETATM   22  C12 UNK     1      18.666   0.651  31.982  1.00  0.00     0.038 A 
HETATM   23  C14 UNK     1      19.064  -0.508  32.649  1.00  0.00     0.020 A 
BRANCH  21  24
HETATM   24  O1  UNK     1      18.858   2.118  30.110  1.00  0.00    -0.351 OA
BRANCH  24  25
HETATM   25  C3  UNK     1      18.512   3.245  30.916  1.00  0.00     0.175 C 
BRANCH  25  26
HETATM   26  C4  UNK     1      19.163   4.488  30.327  1.00  0.00     0.022 C 
HETATM   27  C16 UNK     1      18.700   5.753  31.028  1.00  0.00     0.007 C 
ENDBRANCH  25  26
ENDBRANCH  24  25
ENDBRANCH  21  24
ENDBRANCH   3  18
TORSDOF 6
ENDMDL
MODEL 4
REMARK VINA RESULT:      -8.5      2.713      3.389
REMARK  6 active torsions:
REMARK  status: ('A' for Active; 'I' for Inactive)
REMARK    1  A    between atoms: C3_9  and  O1_1 
REMARK    2  A    between atoms: C7_13  and  O1_1 
REMARK       I    between atoms: C20_26  and  N1_5 
REMARK    3  A    between atoms: N1_5  and  N2_6 
REMARK    4  A    between atoms: C3_9  and  C4_10 
REMARK    5  A    between atoms: C19_25  and  C6_12 
REMARK    6  A    between atoms: C20_26  and  C9_15 
ROOT
HETATM    1  O4  UNK     1      18.516  -1.892  37.166  1.00  0.00    -0.266 OA
HETATM    2  N1  UNK     1      19.910  -2.581  35.450  1.00  0.00    -0.243 N 
HETATM    3  C20 UNK     1      19.042  -1.704  36.072  1.00  0.00     0.271 C 
HETATM    4  H18 UNK     1      20.293  -2.439  34.522  1.00  0.00     0.192 HD
ENDROOT
BRANCH   2   5
HETATM    5  N2  UNK     1      20.217  -3.741  36.079  1.00  0.00    -0.183 NA
HETATM    6  C19 UNK     1      19.783  -4.799  35.474  1.00  0.00     0.156 C 
BRANCH   6   7
HETATM    7  C6  UNK     1      20.010  -6.148  35.991  1.00  0.00     0.056 A 
HETATM    8  C15 UNK     1      19.654  -6.403  37.254  1.00  0.00     0.159 A 
HETATM    9  O2  UNK     1      19.789  -7.605  37.908  1.00  0.00    -0.321 OA
HETATM   10  C2  UNK     1      20.341  -8.650  37.210  1.00  0.00     0.089 A 
HETATM   11  C1  UNK     1      20.762  -8.535  35.885  1.00  0.00     0.049 A 
HETATM   12  C10 UNK     1      20.475  -9.866  37.882  1.00  0.00     0.038 A 
HETATM   13  C5  UNK     1      20.611  -7.241  35.194  1.00  0.00     0.198 A 
HETATM   14  C8  UNK     1      21.318  -9.633  35.224  1.00  0.00     0.018 A 
HETATM   15  O3  UNK     1      20.961  -7.083  34.032  1.00  0.00    -0.286 OA
HETATM   16  C17 UNK     1      21.450 -10.847  35.899  1.00  0.00     0.001 A 
HETATM   17  C18 UNK     1      21.029 -10.964  37.225  1.00  0.00     0.003 A 
ENDBRANCH   6   7
ENDBRANCH   2   5
BRANCH   3  18
HETATM   18  C9  UNK     1      18.730  -0.460  35.319  1.00  0.00     0.033 A 
HETATM   19  C13 UNK     1      18.674   0.735  36.004  1.00  0.00     0.020 A 
HETATM   20  C11 UNK     1      18.382   1.903  35.297  1.00  0.00     0.038 A 
HETATM   21  C7  UNK     1      18.154   1.848  33.922  1.00  0.00     0.068 A 
HETATM   22  C12 UNK     1      18.217   0.625  33.254  1.00  0.00     0.038 A 
HETATM   23  C14 UNK     1      18.508  -0.542  33.960  1.00  0.00     0.020 A 
BRANCH  21  24
HETATM   24  O1  UNK     1      17.871   2.986  33.233  1.00  0.00    -0.351 OA
BRANCH  24  25
HETATM   25  C3  UNK     1      18.337   4.215  33.790  1.00  0.00     0.175 C 
BRANCH  25  26
HETATM   26  C4  UNK     1      18.457   5.245  32.676  1.00  0.00     0.022 C 
HETATM   27  C16 UNK     1      19.659   6.151  32.871  1.00  0.00     0.007 C 
ENDBRANCH  25  26
ENDBRANCH  24  25
ENDBRANCH  21  24
ENDBRANCH   3  18
TORSDOF 6
ENDMDL
MODEL 5
REMARK VINA RESULT:      -8.5      2.798      3.312
REMARK  6 active torsions:
REMARK  status: ('A' for Active; 'I' for Inactive)
REMARK    1  A    between atoms: C3_9  and  O1_1 
REMARK    2  A    between atoms: C7_13  and  O1_1 
REMARK       I    between atoms: C20_26  and  N1_5 
REMARK    3  A    between atoms: N1_5  and  N2_6 
REMARK    4  A    between atoms: C3_9  and  C4_10 
REMARK    5  A    between atoms: C19_25  and  C6_12 
REMARK    6  A    between atoms: C20_26  and  C9_15 
ROOT
HETATM    1  O4  UNK     1      18.093  -0.580  37.575  1.00  0.00    -0.266 OA
HETATM    2  N1  UNK     1      18.947  -1.915  35.887  1.00  0.00    -0.243 N 
HETATM    3  C20 UNK     1      18.460  -0.733  36.413  1.00  0.00     0.271 C 
HETATM    4  H18 UNK     1      19.194  -2.043  34.911  1.00  0.00     0.192 HD
ENDROOT
BRANCH   2   5
HETATM    5  N2  UNK     1      19.034  -2.996  36.698  1.00  0.00    -0.183 NA
HETATM    6  C19 UNK     1      19.941  -3.848  36.345  1.00  0.00     0.156 C 
BRANCH   6   7
HETATM    7  C6  UNK     1      20.192  -5.082  37.090  1.00  0.00     0.056 A 
HETATM    8  C15 UNK     1      21.283  -5.137  37.861  1.00  0.00     0.159 A 
HETATM    9  O2  UNK     1      21.681  -6.205  38.629  1.00  0.00    -0.321 OA
HETATM   10  C2  UNK     1      20.892  -7.329  38.612  1.00  0.00     0.089 A 
HETATM   11  C1  UNK     1      19.723  -7.420  37.854  1.00  0.00     0.049 A 
HETATM   12  C10 UNK     1      21.303  -8.409  39.395  1.00  0.00     0.038 A 
HETATM   13  C5  UNK     1      19.308  -6.267  37.035  1.00  0.00     0.198 A 
HETATM   14  C8  UNK     1      18.960  -8.590  37.875  1.00  0.00     0.018 A 
HETATM   15  O3  UNK     1      18.292  -6.290  36.352  1.00  0.00    -0.286 OA
HETATM   16  C17 UNK     1      19.374  -9.668  38.658  1.00  0.00     0.001 A 
HETATM   17  C18 UNK     1      20.542  -9.578  39.417  1.00  0.00     0.003 A 
ENDBRANCH   6   7
ENDBRANCH   2   5
BRANCH   3  18
HETATM   18  C9  UNK     1      18.370   0.407  35.465  1.00  0.00     0.033 A 
HETATM   19  C13 UNK     1      18.438   1.692  35.961  1.00  0.00     0.020 A 
HETATM   20  C11 UNK     1      18.354   2.764  35.070  1.00  0.00     0.038 A 
HETATM   21  C7  UNK     1      18.204   2.526  33.705  1.00  0.00     0.068 A 
HETATM   22  C12 UNK     1      18.137   1.217  33.229  1.00  0.00     0.038 A 
HETATM   23  C14 UNK     1      18.221   0.145  34.118  1.00  0.00     0.020 A 
BRANCH  21  24
HETATM   24  O1  UNK     1      18.124   3.570  32.837  1.00  0.00    -0.351 OA
BRANCH  24  25
HETATM   25  C3  UNK     1      18.299   4.880  33.378  1.00  0.00     0.175 C 
BRANCH  25  26
HETATM   26  C4  UNK     1      18.974   5.756  32.333  1.00  0.00     0.022 C 
HETATM   27  C16 UNK     1      20.244   6.394  32.867  1.00  0.00     0.007 C 
ENDBRANCH  25  26
ENDBRANCH  24  25
ENDBRANCH  21  24
ENDBRANCH   3  18
TORSDOF 6
ENDMDL
MODEL 6
REMARK VINA RESULT:      -8.4      2.697     10.339
REMARK  6 active torsions:
REMARK  status: ('A' for Active; 'I' for Inactive)
REMARK    1  A    between atoms: C3_9  and  O1_1 
REMARK    2  A    between atoms: C7_13  and  O1_1 
REMARK       I    between atoms: C20_26  and  N1_5 
REMARK    3  A    between atoms: N1_5  and  N2_6 
REMARK    4  A    between atoms: C3_9  and  C4_10 
REMARK    5  A    between atoms: C19_25  and  C6_12 
REMARK    6  A    between atoms: C20_26  and  C9_15 
ROOT
HETATM    1  O4  UNK     1      21.276  -3.509  36.454  1.00  0.00    -0.266 OA
HETATM    2  N1  UNK     1      19.021  -2.988  36.528  1.00  0.00    -0.243 N 
HETATM    3  C20 UNK     1      20.112  -3.821  36.689  1.00  0.00     0.271 C 
HETATM    4  H18 UNK     1      18.059  -3.276  36.672  1.00  0.00     0.192 HD
ENDROOT
BRANCH   2   5
HETATM    5  N2  UNK     1      19.232  -1.727  36.079  1.00  0.00    -0.183 NA
HETATM    6  C19 UNK     1      18.201  -1.192  35.510  1.00  0.00     0.156 C 
BRANCH   6   7
HETATM    7  C6  UNK     1      18.224   0.163  34.958  1.00  0.00     0.056 A 
HETATM    8  C15 UNK     1      18.209   1.189  35.815  1.00  0.00     0.159 A 
HETATM    9  O2  UNK     1      18.227   2.523  35.484  1.00  0.00    -0.321 OA
HETATM   10  C2  UNK     1      18.262   2.847  34.150  1.00  0.00     0.089 A 
HETATM   11  C1  UNK     1      18.279   1.884  33.140  1.00  0.00     0.049 A 
HETATM   12  C10 UNK     1      18.279   4.204  33.823  1.00  0.00     0.038 A 
HETATM   13  C5  UNK     1      18.261   0.457  33.509  1.00  0.00     0.198 A 
HETATM   14  C8  UNK     1      18.314   2.272  31.798  1.00  0.00     0.018 A 
HETATM   15  O3  UNK     1      18.277  -0.430  32.665  1.00  0.00    -0.286 OA
HETATM   16  C17 UNK     1      18.332   3.629  31.474  1.00  0.00     0.001 A 
HETATM   17  C18 UNK     1      18.315   4.593  32.484  1.00  0.00     0.003 A 
ENDBRANCH   6   7
ENDBRANCH   2   5
BRANCH   3  18
HETATM   18  C9  UNK     1      19.809  -5.197  37.163  1.00  0.00     0.033 A 
HETATM   19  C13 UNK     1      18.857  -5.937  36.495  1.00  0.00     0.020 A 
HETATM   20  C11 UNK     1      18.573  -7.229  36.940  1.00  0.00     0.038 A 
HETATM   21  C7  UNK     1      19.248  -7.751  38.043  1.00  0.00     0.068 A 
HETATM   22  C12 UNK     1      20.207  -6.981  38.702  1.00  0.00     0.038 A 
HETATM   23  C14 UNK     1      20.491  -5.689  38.258  1.00  0.00     0.020 A 
BRANCH  21  24
HETATM   24  O1  UNK     1      18.973  -9.011  38.476  1.00  0.00    -0.351 OA
BRANCH  24  25
HETATM   25  C3  UNK     1      19.091 -10.066  37.522  1.00  0.00     0.175 C 
BRANCH  25  26
HETATM   26  C4  UNK     1      20.515 -10.600  37.554  1.00  0.00     0.022 C 
HETATM   27  C16 UNK     1      21.218 -10.412  36.221  1.00  0.00     0.007 C 
ENDBRANCH  25  26
ENDBRANCH  24  25
ENDBRANCH  21  24
ENDBRANCH   3  18
TORSDOF 6
ENDMDL
MODEL 7
REMARK VINA RESULT:      -8.3      2.708      3.545
REMARK  6 active torsions:
REMARK  status: ('A' for Active; 'I' for Inactive)
REMARK    1  A    between atoms: C3_9  and  O1_1 
REMARK    2  A    between atoms: C7_13  and  O1_1 
REMARK       I    between atoms: C20_26  and  N1_5 
REMARK    3  A    between atoms: N1_5  and  N2_6 
REMARK    4  A    between atoms: C3_9  and  C4_10 
REMARK    5  A    between atoms: C19_25  and  C6_12 
REMARK    6  A    between atoms: C20_26  and  C9_15 
ROOT
HETATM    1  O4  UNK     1      17.677  -0.683  37.306  1.00  0.00    -0.266 OA
HETATM    2  N1  UNK     1      19.268  -1.741  35.998  1.00  0.00    -0.243 N 
HETATM    3  C20 UNK     1      18.395  -0.716  36.310  1.00  0.00     0.271 C 
HETATM    4  H18 UNK     1      19.814  -1.782  35.144  1.00  0.00     0.192 HD
ENDROOT
BRANCH   2   5
HETATM    5  N2  UNK     1      19.352  -2.798  36.842  1.00  0.00    -0.183 NA
HETATM    6  C19 UNK     1      19.703  -3.903  36.269  1.00  0.00     0.156 C 
BRANCH   6   7
HETATM    7  C6  UNK     1      19.850  -5.158  37.006  1.00  0.00     0.056 A 
HETATM    8  C15 UNK     1      18.803  -5.988  37.045  1.00  0.00     0.159 A 
HETATM    9  O2  UNK     1      18.755  -7.204  37.684  1.00  0.00    -0.321 OA
HETATM   10  C2  UNK     1      19.883  -7.617  38.351  1.00  0.00     0.089 A 
HETATM   11  C1  UNK     1      21.052  -6.857  38.399  1.00  0.00     0.049 A 
HETATM   12  C10 UNK     1      19.825  -8.853  38.997  1.00  0.00     0.038 A 
HETATM   13  C5  UNK     1      21.090  -5.555  37.709  1.00  0.00     0.198 A 
HETATM   14  C8  UNK     1      22.169  -7.327  39.094  1.00  0.00     0.018 A 
HETATM   15  O3  UNK     1      22.089  -4.847  37.717  1.00  0.00    -0.286 OA
HETATM   16  C17 UNK     1      22.108  -8.563  39.739  1.00  0.00     0.001 A 
HETATM   17  C18 UNK     1      20.939  -9.324  39.690  1.00  0.00     0.003 A 
ENDBRANCH   6   7
ENDBRANCH   2   5
BRANCH   3  18
HETATM   18  C9  UNK     1      18.336   0.402  35.333  1.00  0.00     0.033 A 
HETATM   19  C13 UNK     1      18.377   1.699  35.801  1.00  0.00     0.020 A 
HETATM   20  C11 UNK     1      18.322   2.748  34.883  1.00  0.00     0.038 A 
HETATM   21  C7  UNK     1      18.227   2.478  33.519  1.00  0.00     0.068 A 
HETATM   22  C12 UNK     1      18.187   1.158  33.071  1.00  0.00     0.038 A 
HETATM   23  C14 UNK     1      18.242   0.108  33.988  1.00  0.00     0.020 A 
BRANCH  21  24
HETATM   24  O1  UNK     1      18.175   3.502  32.624  1.00  0.00    -0.351 OA
BRANCH  24  25
HETATM   25  C3  UNK     1      18.143   4.827  33.154  1.00  0.00     0.175 C 
BRANCH  25  26
HETATM   26  C4  UNK     1      19.040   5.716  32.305  1.00  0.00     0.022 C 
HETATM   27  C16 UNK     1      19.365   5.078  30.967  1.00  0.00     0.007 C 
ENDBRANCH  25  26
ENDBRANCH  24  25
ENDBRANCH  21  24
ENDBRANCH   3  18
TORSDOF 6
ENDMDL
MODEL 8
REMARK VINA RESULT:      -8.3      2.428     10.467
REMARK  6 active torsions:
REMARK  status: ('A' for Active; 'I' for Inactive)
REMARK    1  A    between atoms: C3_9  and  O1_1 
REMARK    2  A    between atoms: C7_13  and  O1_1 
REMARK       I    between atoms: C20_26  and  N1_5 
REMARK    3  A    between atoms: N1_5  and  N2_6 
REMARK    4  A    between atoms: C3_9  and  C4_10 
REMARK    5  A    between atoms: C19_25  and  C6_12 
REMARK    6  A    between atoms: C20_26  and  C9_15 
ROOT
HETATM    1  O4  UNK     1      20.450  -3.753  34.751  1.00  0.00    -0.266 OA
HETATM    2  N1  UNK     1      19.615  -2.398  36.434  1.00  0.00    -0.243 N 
HETATM    3  C20 UNK     1      20.007  -3.606  35.888  1.00  0.00     0.271 C 
HETATM    4  H18 UNK     1      19.199  -2.299  37.354  1.00  0.00     0.192 HD
ENDROOT
BRANCH   2   5
HETATM    5  N2  UNK     1      19.720  -1.281  35.675  1.00  0.00    -0.183 NA
HETATM    6  C19 UNK     1      18.619  -0.936  35.091  1.00  0.00     0.156 C 
BRANCH   6   7
HETATM    7  C6  UNK     1      18.523   0.241  34.227  1.00  0.00     0.056 A 
HETATM    8  C15 UNK     1      18.555   0.051  32.904  1.00  0.00     0.159 A 
HETATM    9  O2  UNK     1      18.477   1.031  31.942  1.00  0.00    -0.321 OA
HETATM   10  C2  UNK     1      18.357   2.331  32.367  1.00  0.00     0.089 A 
HETATM   11  C1  UNK     1      18.311   2.683  33.716  1.00  0.00     0.049 A 
HETATM   12  C10 UNK     1      18.279   3.318  31.383  1.00  0.00     0.038 A 
HETATM   13  C5  UNK     1      18.395   1.624  34.738  1.00  0.00     0.198 A 
HETATM   14  C8  UNK     1      18.188   4.024  34.090  1.00  0.00     0.018 A 
HETATM   15  O3  UNK     1      18.358   1.875  35.935  1.00  0.00    -0.286 OA
HETATM   16  C17 UNK     1      18.110   5.009  33.105  1.00  0.00     0.001 A 
HETATM   17  C18 UNK     1      18.155   4.657  31.754  1.00  0.00     0.003 A 
ENDBRANCH   6   7
ENDBRANCH   2   5
BRANCH   3  18
HETATM   18  C9  UNK     1      19.846  -4.794  36.765  1.00  0.00     0.033 A 
HETATM   19  C13 UNK     1      18.773  -5.635  36.556  1.00  0.00     0.020 A 
HETATM   20  C11 UNK     1      18.622  -6.752  37.380  1.00  0.00     0.038 A 
HETATM   21  C7  UNK     1      19.547  -7.002  38.393  1.00  0.00     0.068 A 
HETATM   22  C12 UNK     1      20.623  -6.136  38.583  1.00  0.00     0.038 A 
HETATM   23  C14 UNK     1      20.775  -5.019  37.761  1.00  0.00     0.020 A 
BRANCH  21  24
HETATM   24  O1  UNK     1      19.401  -8.092  39.194  1.00  0.00    -0.351 OA
BRANCH  24  25
HETATM   25  C3  UNK     1      19.275  -9.359  38.551  1.00  0.00     0.175 C 
BRANCH  25  26
HETATM   26  C4  UNK     1      20.660  -9.851  38.159  1.00  0.00     0.022 C 
HETATM   27  C16 UNK     1      20.753 -10.154  36.674  1.00  0.00     0.007 C 
ENDBRANCH  25  26
ENDBRANCH  24  25
ENDBRANCH  21  24
ENDBRANCH   3  18
TORSDOF 6
ENDMDL
MODEL 9
REMARK VINA RESULT:      -8.2      6.428     10.697
REMARK  6 active torsions:
REMARK  status: ('A' for Active; 'I' for Inactive)
REMARK    1  A    between atoms: C3_9  and  O1_1 
REMARK    2  A    between atoms: C7_13  and  O1_1 
REMARK       I    between atoms: C20_26  and  N1_5 
REMARK    3  A    between atoms: N1_5  and  N2_6 
REMARK    4  A    between atoms: C3_9  and  C4_10 
REMARK    5  A    between atoms: C19_25  and  C6_12 
REMARK    6  A    between atoms: C20_26  and  C9_15 
ROOT
HETATM    1  O4  UNK     1      19.316   6.480  34.489  1.00  0.00    -0.266 OA
HETATM    2  N1  UNK     1      17.456   5.761  33.313  1.00  0.00    -0.243 N 
HETATM    3  C20 UNK     1      18.227   6.703  33.968  1.00  0.00     0.271 C 
HETATM    4  H18 UNK     1      16.532   5.945  32.936  1.00  0.00     0.192 HD
ENDROOT
BRANCH   2   5
HETATM    5  N2  UNK     1      17.920   4.491  33.230  1.00  0.00    -0.183 NA
HETATM    6  C19 UNK     1      17.971   4.027  32.023  1.00  0.00     0.156 C 
BRANCH   6   7
HETATM    7  C6  UNK     1      18.443   2.675  31.721  1.00  0.00     0.056 A 
HETATM    8  C15 UNK     1      18.509   1.796  32.725  1.00  0.00     0.159 A 
HETATM    9  O2  UNK     1      18.925   0.488  32.632  1.00  0.00    -0.321 OA
HETATM   10  C2  UNK     1      19.313   0.031  31.397  1.00  0.00     0.089 A 
HETATM   11  C1  UNK     1      19.299   0.834  30.256  1.00  0.00     0.049 A 
HETATM   12  C10 UNK     1      19.734  -1.297  31.312  1.00  0.00     0.038 A 
HETATM   13  C5  UNK     1      18.850   2.233  30.369  1.00  0.00     0.198 A 
HETATM   14  C8  UNK     1      19.705   0.314  29.024  1.00  0.00     0.018 A 
HETATM   15  O3  UNK     1      18.816   2.982  29.401  1.00  0.00    -0.286 OA
HETATM   16  C17 UNK     1      20.126  -1.014  28.943  1.00  0.00     0.001 A 
HETATM   17  C18 UNK     1      20.139  -1.818  30.084  1.00  0.00     0.003 A 
ENDBRANCH   6   7
ENDBRANCH   2   5
BRANCH   3  18
HETATM   18  C9  UNK     1      17.650   8.070  34.042  1.00  0.00     0.033 A 
HETATM   19  C13 UNK     1      18.496   9.155  33.940  1.00  0.00     0.020 A 
HETATM   20  C11 UNK     1      17.954  10.440  34.009  1.00  0.00     0.038 A 
HETATM   21  C7  UNK     1      16.581  10.610  34.180  1.00  0.00     0.068 A 
HETATM   22  C12 UNK     1      15.748   9.496  34.281  1.00  0.00     0.038 A 
HETATM   23  C14 UNK     1      16.288   8.212  34.212  1.00  0.00     0.020 A 
BRANCH  21  24
HETATM   24  O1  UNK     1      16.053  11.862  34.246  1.00  0.00    -0.351 OA
BRANCH  24  25
HETATM   25  C3  UNK     1      15.823  12.402  35.547  1.00  0.00     0.175 C 
BRANCH  25  26
HETATM   26  C4  UNK     1      14.323  12.501  35.780  1.00  0.00     0.022 C 
HETATM   27  C16 UNK     1      13.938  12.058  37.180  1.00  0.00     0.007 C 
ENDBRANCH  25  26
ENDBRANCH  24  25
ENDBRANCH  21  24
ENDBRANCH   3  18
TORSDOF 6
ENDMDL
MODEL 10
REMARK VINA RESULT:      -8.2      1.966      2.466
REMARK  6 active torsions:
REMARK  status: ('A' for Active; 'I' for Inactive)
REMARK    1  A    between atoms: C3_9  and  O1_1 
REMARK    2  A    between atoms: C7_13  and  O1_1 
REMARK       I    between atoms: C20_26  and  N1_5 
REMARK    3  A    between atoms: N1_5  and  N2_6 
REMARK    4  A    between atoms: C3_9  and  C4_10 
REMARK    5  A    between atoms: C19_25  and  C6_12 
REMARK    6  A    between atoms: C20_26  and  C9_15 
ROOT
HETATM    1  O4  UNK     1      17.428  -1.526  36.342  1.00  0.00    -0.266 OA
HETATM    2  N1  UNK     1      19.494  -2.247  35.584  1.00  0.00    -0.243 N 
HETATM    3  C20 UNK     1      18.381  -1.428  35.573  1.00  0.00     0.271 C 
HETATM    4  H18 UNK     1      20.248  -2.190  34.908  1.00  0.00     0.192 HD
ENDROOT
BRANCH   2   5
HETATM    5  N2  UNK     1      19.557  -3.238  36.505  1.00  0.00    -0.183 NA
HETATM    6  C19 UNK     1      19.754  -4.413  36.001  1.00  0.00     0.156 C 
BRANCH   6   7
HETATM    7  C6  UNK     1      19.852  -5.616  36.828  1.00  0.00     0.056 A 
HETATM    8  C15 UNK     1      20.490  -5.521  37.999  1.00  0.00     0.159 A 
HETATM    9  O2  UNK     1      20.681  -6.539  38.904  1.00  0.00    -0.321 OA
HETATM   10  C2  UNK     1      20.173  -7.775  38.587  1.00  0.00     0.089 A 
HETATM   11  C1  UNK     1      19.484  -8.026  37.400  1.00  0.00     0.049 A 
HETATM   12  C10 UNK     1      20.371  -8.801  39.512  1.00  0.00     0.038 A 
HETATM   13  C5  UNK     1      19.286  -6.926  36.439  1.00  0.00     0.198 A 
HETATM   14  C8  UNK     1      18.989  -9.305  37.131  1.00  0.00     0.018 A 
HETATM   15  O3  UNK     1      18.688  -7.090  35.383  1.00  0.00    -0.286 OA
HETATM   16  C17 UNK     1      19.188 -10.329  38.057  1.00  0.00     0.001 A 
HETATM   17  C18 UNK     1      19.877 -10.078  39.245  1.00  0.00     0.003 A 
ENDBRANCH   6   7
ENDBRANCH   2   5
BRANCH   3  18
HETATM   18  C9  UNK     1      18.365  -0.374  34.525  1.00  0.00     0.033 A 
HETATM   19  C13 UNK     1      18.037   0.917  34.884  1.00  0.00     0.020 A 
HETATM   20  C11 UNK     1      18.023   1.906  33.899  1.00  0.00     0.038 A 
HETATM   21  C7  UNK     1      18.336   1.582  32.579  1.00  0.00     0.068 A 
HETATM   22  C12 UNK     1      18.663   0.269  32.243  1.00  0.00     0.038 A 
HETATM   23  C14 UNK     1      18.678  -0.721  33.226  1.00  0.00     0.020 A 
BRANCH  21  24
HETATM   24  O1  UNK     1      18.323   2.547  31.620  1.00  0.00    -0.351 OA
BRANCH  24  25
HETATM   25  C3  UNK     1      19.054   2.283  30.423  1.00  0.00     0.175 C 
BRANCH  25  26
HETATM   26  C4  UNK     1      18.127   2.463  29.231  1.00  0.00     0.022 C 
HETATM   27  C16 UNK     1      17.977   1.180  28.433  1.00  0.00     0.007 C 
ENDBRANCH  25  26
ENDBRANCH  24  25
ENDBRANCH  21  24
ENDBRANCH   3  18
TORSDOF 6
ENDMDL
