MODEL 1
REMARK VINA RESULT:      -7.4      0.000      0.000
REMARK  3 active torsions:
REMARK  status: ('A' for Active; 'I' for Inactive)
REMARK    1  A    between atoms: C2_5  and  O1_1 
REMARK    2  A    between atoms: C6_9  and  O1_1 
REMARK    3  A    between atoms: C1_4  and  C2_5 
ROOT
HETATM    1  O2  UNK     1      19.242  -0.299  32.814  1.00  0.00    -0.275 OA
HETATM    2  O3  UNK     1      20.037  -2.388  33.294  1.00  0.00    -0.260 OA
HETATM    3  C5  UNK     1      19.409   0.546  30.528  1.00  0.00     0.004 A 
HETATM    4  C6  UNK     1      18.172   2.918  31.419  1.00  0.00     0.071 A 
HETATM    5  C7  UNK     1      19.025   0.714  31.859  1.00  0.00     0.092 A 
HETATM    6  C8  UNK     1      20.048  -0.717  30.135  1.00  0.00    -0.043 A 
HETATM    7  C9  UNK     1      18.412   1.883  32.315  1.00  0.00     0.075 A 
HETATM    8  C10 UNK     1      19.157   1.600  29.640  1.00  0.00     0.017 A 
HETATM    9  C11 UNK     1      18.543   2.777  30.083  1.00  0.00     0.038 A 
HETATM   10  C12 UNK     1      20.242  -1.663  31.064  1.00  0.00     0.090 A 
HETATM   11  C13 UNK     1      20.473  -0.929  28.711  1.00  0.00     0.049 C 
HETATM   12  C14 UNK     1      19.843  -1.500  32.472  1.00  0.00     0.288 A 
ENDROOT
BRANCH   4  13
HETATM   13  O1  UNK     1      17.575   4.065  31.844  1.00  0.00    -0.351 OA
BRANCH  13  14
HETATM   14  C2  UNK     1      18.302   4.870  32.771  1.00  0.00     0.179 C 
BRANCH  14  15
HETATM   15  C1  UNK     1      19.357   5.695  32.031  1.00  0.00     0.002 C 
HETATM   16  C3  UNK     1      18.751   6.436  30.838  1.00  0.00     0.011 C 
HETATM   17  C4  UNK     1      20.026   6.685  32.984  1.00  0.00     0.011 C 
ENDBRANCH  14  15
ENDBRANCH  13  14
ENDBRANCH   4  13
TORSDOF 3
ENDMDL
MODEL 2
REMARK VINA RESULT:      -7.1      1.657      2.628
REMARK  3 active torsions:
REMARK  status: ('A' for Active; 'I' for Inactive)
REMARK    1  A    between atoms: C2_5  and  O1_1 
REMARK    2  A    between atoms: C6_9  and  O1_1 
REMARK    3  A    between atoms: C1_4  and  C2_5 
ROOT
HETATM    1  O2  UNK     1      19.566   0.944  29.464  1.00  0.00    -0.275 OA
HETATM    2  O3  UNK     1      20.519  -0.687  28.175  1.00  0.00    -0.260 OA
HETATM    3  C5  UNK     1      19.091   0.482  31.815  1.00  0.00     0.004 A 
HETATM    4  C6  UNK     1      18.070   3.103  32.022  1.00  0.00     0.071 A 
HETATM    5  C7  UNK     1      19.072   1.347  30.721  1.00  0.00     0.092 A 
HETATM    6  C8  UNK     1      19.639  -0.869  31.635  1.00  0.00    -0.043 A 
HETATM    7  C9  UNK     1      18.570   2.647  30.807  1.00  0.00     0.075 A 
HETATM    8  C10 UNK     1      18.583   0.961  33.031  1.00  0.00     0.017 A 
HETATM    9  C11 UNK     1      18.077   2.261  33.132  1.00  0.00     0.038 A 
HETATM   10  C12 UNK     1      20.100  -1.226  30.429  1.00  0.00     0.090 A 
HETATM   11  C13 UNK     1      19.672  -1.824  32.793  1.00  0.00     0.049 C 
HETATM   12  C14 UNK     1      20.087  -0.325  29.264  1.00  0.00     0.288 A 
ENDROOT
BRANCH   4  13
HETATM   13  O1  UNK     1      17.575   4.366  32.126  1.00  0.00    -0.351 OA
BRANCH  13  14
HETATM   14  C2  UNK     1      18.177   5.221  33.098  1.00  0.00     0.179 C 
BRANCH  14  15
HETATM   15  C1  UNK     1      18.881   6.388  32.402  1.00  0.00     0.002 C 
HETATM   16  C3  UNK     1      20.401   6.280  32.532  1.00  0.00     0.011 C 
HETATM   17  C4  UNK     1      18.477   6.454  30.930  1.00  0.00     0.011 C 
ENDBRANCH  14  15
ENDBRANCH  13  14
ENDBRANCH   4  13
TORSDOF 3
ENDMDL
MODEL 3
REMARK VINA RESULT:      -7.0     22.946     24.557
REMARK  3 active torsions:
REMARK  status: ('A' for Active; 'I' for Inactive)
REMARK    1  A    between atoms: C2_5  and  O1_1 
REMARK    2  A    between atoms: C6_9  and  O1_1 
REMARK    3  A    between atoms: C1_4  and  C2_5 
ROOT
HETATM    1  O2  UNK     1       9.448   5.520   9.541  1.00  0.00    -0.275 OA
HETATM    2  O3  UNK     1       7.183   5.582   9.236  1.00  0.00    -0.260 OA
HETATM    3  C5  UNK     1      10.922   5.941   7.639  1.00  0.00     0.004 A 
HETATM    4  C6  UNK     1      13.110   5.564   9.377  1.00  0.00     0.071 A 
HETATM    5  C7  UNK     1      10.740   5.644   8.990  1.00  0.00     0.092 A 
HETATM    6  C8  UNK     1       9.735   6.125   6.793  1.00  0.00    -0.043 A 
HETATM    7  C9  UNK     1      11.812   5.454   9.863  1.00  0.00     0.075 A 
HETATM    8  C10 UNK     1      12.238   6.049   7.169  1.00  0.00     0.017 A 
HETATM    9  C11 UNK     1      13.323   5.862   8.032  1.00  0.00     0.038 A 
HETATM   10  C12 UNK     1       8.520   6.001   7.343  1.00  0.00     0.090 A 
HETATM   11  C13 UNK     1       9.898   6.446   5.335  1.00  0.00     0.049 C 
HETATM   12  C14 UNK     1       8.311   5.687   8.767  1.00  0.00     0.288 A 
ENDROOT
BRANCH   4  13
HETATM   13  O1  UNK     1      14.170   5.383  10.212  1.00  0.00    -0.351 OA
BRANCH  13  14
HETATM   14  C2  UNK     1      15.439   5.856   9.763  1.00  0.00     0.179 C 
BRANCH  14  15
HETATM   15  C1  UNK     1      15.930   6.981  10.678  1.00  0.00     0.002 C 
HETATM   16  C3  UNK     1      17.361   7.396  10.333  1.00  0.00     0.011 C 
HETATM   17  C4  UNK     1      14.993   8.186  10.592  1.00  0.00     0.011 C 
ENDBRANCH  14  15
ENDBRANCH  13  14
ENDBRANCH   4  13
TORSDOF 3
ENDMDL
MODEL 4
REMARK VINA RESULT:      -7.0      2.637      7.389
REMARK  3 active torsions:
REMARK  status: ('A' for Active; 'I' for Inactive)
REMARK    1  A    between atoms: C2_5  and  O1_1 
REMARK    2  A    between atoms: C6_9  and  O1_1 
REMARK    3  A    between atoms: C1_4  and  C2_5 
ROOT
HETATM    1  O2  UNK     1      16.504   6.847  33.101  1.00  0.00    -0.275 OA
HETATM    2  O3  UNK     1      15.214   8.159  34.459  1.00  0.00    -0.260 OA
HETATM    3  C5  UNK     1      18.927   7.161  33.088  1.00  0.00     0.004 A 
HETATM    4  C6  UNK     1      19.085   5.093  31.177  1.00  0.00     0.071 A 
HETATM    5  C7  UNK     1      17.786   6.503  32.627  1.00  0.00     0.092 A 
HETATM    6  C8  UNK     1      18.769   8.229  34.084  1.00  0.00    -0.043 A 
HETATM    7  C9  UNK     1      17.848   5.477  31.681  1.00  0.00     0.075 A 
HETATM    8  C10 UNK     1      20.164   6.758  32.568  1.00  0.00     0.017 A 
HETATM    9  C11 UNK     1      20.242   5.732  31.620  1.00  0.00     0.038 A 
HETATM   10  C12 UNK     1      17.538   8.536  34.517  1.00  0.00     0.090 A 
HETATM   11  C13 UNK     1      19.976   8.956  34.600  1.00  0.00     0.049 C 
HETATM   12  C14 UNK     1      16.324   7.851  34.040  1.00  0.00     0.288 A 
ENDROOT
BRANCH   4  13
HETATM   13  O1  UNK     1      19.167   4.096  30.255  1.00  0.00    -0.351 OA
BRANCH  13  14
HETATM   14  C2  UNK     1      18.462   2.888  30.538  1.00  0.00     0.179 C 
BRANCH  14  15
HETATM   15  C1  UNK     1      18.974   1.761  29.639  1.00  0.00     0.002 C 
HETATM   16  C3  UNK     1      19.350   0.523  30.455  1.00  0.00     0.011 C 
HETATM   17  C4  UNK     1      17.929   1.403  28.583  1.00  0.00     0.011 C 
ENDBRANCH  14  15
ENDBRANCH  13  14
ENDBRANCH   4  13
TORSDOF 3
ENDMDL
MODEL 5
REMARK VINA RESULT:      -6.9      2.883      5.238
REMARK  3 active torsions:
REMARK  status: ('A' for Active; 'I' for Inactive)
REMARK    1  A    between atoms: C2_5  and  O1_1 
REMARK    2  A    between atoms: C6_9  and  O1_1 
REMARK    3  A    between atoms: C1_4  and  C2_5 
ROOT
HETATM    1  O2  UNK     1      18.431   1.844  31.456  1.00  0.00    -0.275 OA
HETATM    2  O3  UNK     1      18.475   3.216  29.628  1.00  0.00    -0.260 OA
HETATM    3  C5  UNK     1      19.502  -0.348  31.330  1.00  0.00     0.004 A 
HETATM    4  C6  UNK     1      18.704  -0.781  34.001  1.00  0.00     0.071 A 
HETATM    5  C7  UNK     1      18.785   0.613  32.044  1.00  0.00     0.092 A 
HETATM    6  C8  UNK     1      19.885  -0.053  29.943  1.00  0.00    -0.043 A 
HETATM    7  C9  UNK     1      18.382   0.414  33.366  1.00  0.00     0.075 A 
HETATM    8  C10 UNK     1      19.816  -1.545  31.988  1.00  0.00     0.017 A 
HETATM    9  C11 UNK     1      19.420  -1.759  33.313  1.00  0.00     0.038 A 
HETATM   10  C12 UNK     1      19.534   1.125  29.409  1.00  0.00     0.090 A 
HETATM   11  C13 UNK     1      20.656  -1.067  29.149  1.00  0.00     0.049 C 
HETATM   12  C14 UNK     1      18.777   2.149  30.150  1.00  0.00     0.288 A 
ENDROOT
BRANCH   4  13
HETATM   13  O1  UNK     1      18.320  -0.995  35.289  1.00  0.00    -0.351 OA
BRANCH  13  14
HETATM   14  C2  UNK     1      17.145  -0.323  35.737  1.00  0.00     0.179 C 
BRANCH  14  15
HETATM   15  C1  UNK     1      17.183  -0.163  37.259  1.00  0.00     0.002 C 
HETATM   16  C3  UNK     1      18.089  -1.212  37.907  1.00  0.00     0.011 C 
HETATM   17  C4  UNK     1      17.646   1.243  37.637  1.00  0.00     0.011 C 
ENDBRANCH  14  15
ENDBRANCH  13  14
ENDBRANCH   4  13
TORSDOF 3
ENDMDL
MODEL 6
REMARK VINA RESULT:      -6.9      2.938      5.417
REMARK  3 active torsions:
REMARK  status: ('A' for Active; 'I' for Inactive)
REMARK    1  A    between atoms: C2_5  and  O1_1 
REMARK    2  A    between atoms: C6_9  and  O1_1 
REMARK    3  A    between atoms: C1_4  and  C2_5 
ROOT
HETATM    1  O2  UNK     1      18.275   1.792  30.675  1.00  0.00    -0.275 OA
HETATM    2  O3  UNK     1      18.370   1.526  28.406  1.00  0.00    -0.260 OA
HETATM    3  C5  UNK     1      18.566   4.022  31.629  1.00  0.00     0.004 A 
HETATM    4  C6  UNK     1      18.232   2.866  34.180  1.00  0.00     0.071 A 
HETATM    5  C7  UNK     1      18.343   2.654  31.788  1.00  0.00     0.092 A 
HETATM    6  C8  UNK     1      18.730   4.555  30.270  1.00  0.00    -0.043 A 
HETATM    7  C9  UNK     1      18.176   2.067  33.044  1.00  0.00     0.075 A 
HETATM    8  C10 UNK     1      18.618   4.811  32.786  1.00  0.00     0.017 A 
HETATM    9  C11 UNK     1      18.453   4.237  34.052  1.00  0.00     0.038 A 
HETATM   10  C12 UNK     1      18.661   3.712  29.230  1.00  0.00     0.090 A 
HETATM   11  C13 UNK     1      18.971   6.022  30.066  1.00  0.00     0.049 C 
HETATM   12  C14 UNK     1      18.427   2.266  29.382  1.00  0.00     0.288 A 
ENDROOT
BRANCH   4  13
HETATM   13  O1  UNK     1      18.073   2.314  35.413  1.00  0.00    -0.351 OA
BRANCH  13  14
HETATM   14  C2  UNK     1      18.133   0.891  35.500  1.00  0.00     0.179 C 
BRANCH  14  15
HETATM   15  C1  UNK     1      17.225   0.398  36.630  1.00  0.00     0.002 C 
HETATM   16  C3  UNK     1      17.491   1.159  37.931  1.00  0.00     0.011 C 
HETATM   17  C4  UNK     1      15.756   0.529  36.231  1.00  0.00     0.011 C 
ENDBRANCH  14  15
ENDBRANCH  13  14
ENDBRANCH   4  13
TORSDOF 3
ENDMDL
MODEL 7
REMARK VINA RESULT:      -6.9      3.176      5.424
REMARK  3 active torsions:
REMARK  status: ('A' for Active; 'I' for Inactive)
REMARK    1  A    between atoms: C2_5  and  O1_1 
REMARK    2  A    between atoms: C6_9  and  O1_1 
REMARK    3  A    between atoms: C1_4  and  C2_5 
ROOT
HETATM    1  O2  UNK     1      18.765  -1.763  35.187  1.00  0.00    -0.275 OA
HETATM    2  O3  UNK     1      18.821  -3.285  36.893  1.00  0.00    -0.260 OA
HETATM    3  C5  UNK     1      18.115   0.542  35.665  1.00  0.00     0.004 A 
HETATM    4  C6  UNK     1      18.482   1.109  32.926  1.00  0.00     0.071 A 
HETATM    5  C7  UNK     1      18.521  -0.442  34.763  1.00  0.00     0.092 A 
HETATM    6  C8  UNK     1      17.945   0.176  37.077  1.00  0.00    -0.043 A 
HETATM    7  C9  UNK     1      18.706  -0.178  33.404  1.00  0.00     0.075 A 
HETATM    8  C10 UNK     1      17.895   1.832  35.163  1.00  0.00     0.017 A 
HETATM    9  C11 UNK     1      18.077   2.113  33.804  1.00  0.00     0.038 A 
HETATM   10  C12 UNK     1      18.183  -1.089  37.453  1.00  0.00     0.090 A 
HETATM   11  C13 UNK     1      17.509   1.212  38.072  1.00  0.00     0.049 C 
HETATM   12  C14 UNK     1      18.612  -2.139  36.512  1.00  0.00     0.288 A 
ENDROOT
BRANCH   4  13
HETATM   13  O1  UNK     1      18.656   1.387  31.606  1.00  0.00    -0.351 OA
BRANCH  13  14
HETATM   14  C2  UNK     1      19.404   0.446  30.837  1.00  0.00     0.179 C 
BRANCH  14  15
HETATM   15  C1  UNK     1      19.374   0.839  29.358  1.00  0.00     0.002 C 
HETATM   16  C3  UNK     1      19.614  -0.372  28.454  1.00  0.00     0.011 C 
HETATM   17  C4  UNK     1      18.044   1.505  29.010  1.00  0.00     0.011 C 
ENDBRANCH  14  15
ENDBRANCH  13  14
ENDBRANCH   4  13
TORSDOF 3
ENDMDL
MODEL 8
REMARK VINA RESULT:      -6.7      3.250      5.638
REMARK  3 active torsions:
REMARK  status: ('A' for Active; 'I' for Inactive)
REMARK    1  A    between atoms: C2_5  and  O1_1 
REMARK    2  A    between atoms: C6_9  and  O1_1 
REMARK    3  A    between atoms: C1_4  and  C2_5 
ROOT
HETATM    1  O2  UNK     1      17.815   0.899  36.034  1.00  0.00    -0.275 OA
HETATM    2  O3  UNK     1      17.371   1.120  38.266  1.00  0.00    -0.260 OA
HETATM    3  C5  UNK     1      18.817  -1.173  35.215  1.00  0.00     0.004 A 
HETATM    4  C6  UNK     1      18.755  -0.062  32.623  1.00  0.00     0.071 A 
HETATM    5  C7  UNK     1      18.314   0.107  34.980  1.00  0.00     0.092 A 
HETATM    6  C8  UNK     1      18.817  -1.687  36.591  1.00  0.00    -0.043 A 
HETATM    7  C9  UNK     1      18.277   0.672  33.703  1.00  0.00     0.075 A 
HETATM    8  C10 UNK     1      19.293  -1.896  34.113  1.00  0.00     0.017 A 
HETATM    9  C11 UNK     1      19.262  -1.344  32.827  1.00  0.00     0.038 A 
HETATM   10  C12 UNK     1      18.337  -0.913  37.573  1.00  0.00     0.090 A 
HETATM   11  C13 UNK     1      19.351  -3.060  36.876  1.00  0.00     0.049 C 
HETATM   12  C14 UNK     1      17.803   0.441  37.342  1.00  0.00     0.288 A 
ENDROOT
BRANCH   4  13
HETATM   13  O1  UNK     1      18.728   0.470  31.371  1.00  0.00    -0.351 OA
BRANCH  13  14
HETATM   14  C2  UNK     1      19.946   0.443  30.628  1.00  0.00     0.179 C 
BRANCH  14  15
HETATM   15  C1  UNK     1      19.653   0.643  29.139  1.00  0.00     0.002 C 
HETATM   16  C3  UNK     1      19.640  -0.690  28.388  1.00  0.00     0.011 C 
HETATM   17  C4  UNK     1      18.322   1.370  28.949  1.00  0.00     0.011 C 
ENDBRANCH  14  15
ENDBRANCH  13  14
ENDBRANCH   4  13
TORSDOF 3
ENDMDL
MODEL 9
REMARK VINA RESULT:      -6.7     22.227     23.993
REMARK  3 active torsions:
REMARK  status: ('A' for Active; 'I' for Inactive)
REMARK    1  A    between atoms: C2_5  and  O1_1 
REMARK    2  A    between atoms: C6_9  and  O1_1 
REMARK    3  A    between atoms: C1_4  and  C2_5 
ROOT
HETATM    1  O2  UNK     1      13.364   8.328  11.125  1.00  0.00    -0.275 OA
HETATM    2  O3  UNK     1      14.214   9.887  12.565  1.00  0.00    -0.260 OA
HETATM    3  C5  UNK     1      14.898   6.900   9.870  1.00  0.00     0.004 A 
HETATM    4  C6  UNK     1      12.643   5.678   8.697  1.00  0.00     0.071 A 
HETATM    5  C7  UNK     1      13.600   7.297  10.194  1.00  0.00     0.092 A 
HETATM    6  C8  UNK     1      16.025   7.581  10.521  1.00  0.00    -0.043 A 
HETATM    7  C9  UNK     1      12.474   6.702   9.622  1.00  0.00     0.075 A 
HETATM    8  C10 UNK     1      15.047   5.866   8.936  1.00  0.00     0.017 A 
HETATM    9  C11 UNK     1      13.928   5.260   8.354  1.00  0.00     0.038 A 
HETATM   10  C12 UNK     1      15.772   8.559  11.402  1.00  0.00     0.090 A 
HETATM   11  C13 UNK     1      17.433   7.178  10.193  1.00  0.00     0.049 C 
HETATM   12  C14 UNK     1      14.407   8.989  11.754  1.00  0.00     0.288 A 
ENDROOT
BRANCH   4  13
HETATM   13  O1  UNK     1      11.558   5.085   8.128  1.00  0.00    -0.351 OA
BRANCH  13  14
HETATM   14  C2  UNK     1      10.329   5.808   8.165  1.00  0.00     0.179 C 
BRANCH  14  15
HETATM   15  C1  UNK     1       9.807   6.025   6.742  1.00  0.00     0.002 C 
HETATM   16  C3  UNK     1       8.411   6.650   6.749  1.00  0.00     0.011 C 
HETATM   17  C4  UNK     1      10.776   6.899   5.947  1.00  0.00     0.011 C 
ENDBRANCH  14  15
ENDBRANCH  13  14
ENDBRANCH   4  13
TORSDOF 3
ENDMDL
MODEL 10
REMARK VINA RESULT:      -6.7      2.854      7.579
REMARK  3 active torsions:
REMARK  status: ('A' for Active; 'I' for Inactive)
REMARK    1  A    between atoms: C2_5  and  O1_1 
REMARK    2  A    between atoms: C6_9  and  O1_1 
REMARK    3  A    between atoms: C1_4  and  C2_5 
ROOT
HETATM    1  O2  UNK     1      20.383   7.830  33.426  1.00  0.00    -0.275 OA
HETATM    2  O3  UNK     1      20.943   9.651  34.690  1.00  0.00    -0.260 OA
HETATM    3  C5  UNK     1      18.058   7.084  33.370  1.00  0.00     0.004 A 
HETATM    4  C6  UNK     1      18.865   5.022  31.623  1.00  0.00     0.071 A 
HETATM    5  C7  UNK     1      19.387   6.943  32.970  1.00  0.00     0.092 A 
HETATM    6  C8  UNK     1      17.710   8.182  34.281  1.00  0.00    -0.043 A 
HETATM    7  C9  UNK     1      19.803   5.927  32.107  1.00  0.00     0.075 A 
HETATM    8  C10 UNK     1      17.128   6.162  32.870  1.00  0.00     0.017 A 
HETATM    9  C11 UNK     1      17.530   5.139  32.004  1.00  0.00     0.038 A 
HETATM   10  C12 UNK     1      18.677   9.010  34.699  1.00  0.00     0.090 A 
HETATM   11  C13 UNK     1      16.288   8.361  34.728  1.00  0.00     0.049 C 
HETATM   12  C14 UNK     1      20.085   8.874  34.287  1.00  0.00     0.288 A 
ENDROOT
BRANCH   4  13
HETATM   13  O1  UNK     1      19.250   4.024  30.781  1.00  0.00    -0.351 OA
BRANCH  13  14
HETATM   14  C2  UNK     1      18.401   2.881  30.698  1.00  0.00     0.179 C 
BRANCH  14  15
HETATM   15  C1  UNK     1      18.922   1.920  29.627  1.00  0.00     0.002 C 
HETATM   16  C3  UNK     1      19.482   0.639  30.250  1.00  0.00     0.011 C 
HETATM   17  C4  UNK     1      17.816   1.583  28.628  1.00  0.00     0.011 C 
ENDBRANCH  14  15
ENDBRANCH  13  14
ENDBRANCH   4  13
TORSDOF 3
ENDMDL
