MODEL 1
REMARK VINA RESULT:      -9.2      0.000      0.000
REMARK  6 active torsions:
REMARK  status: ('A' for Active; 'I' for Inactive)
REMARK    1  A    between atoms: C11_19  and  O3_4 
REMARK    2  A    between atoms: C20_28  and  O3_4 
REMARK    3  A    between atoms: C3_11  and  N1_8 
REMARK       I    between atoms: C9_17  and  N1_8 
REMARK    4  A    between atoms: C1_9  and  C11_19 
REMARK    5  A    between atoms: C2_10  and  C4_12 
REMARK    6  A    between atoms: C5_13  and  C9_17 
ROOT
HETATM    1  S1  UNK     1      20.193   6.665  33.767  1.00  0.00    -0.082 SA
HETATM    2  C1  UNK     1      18.003   7.406  32.648  1.00  0.00     0.086 A 
HETATM    3  C2  UNK     1      18.330   8.424  33.590  1.00  0.00     0.023 A 
HETATM    4  C3  UNK     1      18.931   6.414  32.657  1.00  0.00     0.094 A 
HETATM    5  C6  UNK     1      19.497   8.146  34.268  1.00  0.00     0.067 A 
ENDROOT
BRANCH   4   6
HETATM    6  N1  UNK     1      19.008   5.238  31.906  1.00  0.00    -0.316 N 
HETATM    7  C9  UNK     1      18.375   4.038  32.198  1.00  0.00     0.262 C 
HETATM    8  O4  UNK     1      17.640   3.769  33.146  1.00  0.00    -0.267 OA
HETATM    9  H2  UNK     1      19.575   5.314  31.065  1.00  0.00     0.169 HD
BRANCH   7  10
HETATM   10  C5  UNK     1      18.671   3.006  31.197  1.00  0.00     0.108 A 
HETATM   11  C13 UNK     1      18.588   3.273  29.744  1.00  0.00     0.304 A 
HETATM   12  O6  UNK     1      18.267   4.372  29.305  1.00  0.00    -0.259 OA
HETATM   13  O1  UNK     1      18.894   2.214  28.894  1.00  0.00    -0.274 OA
HETATM   14  C10 UNK     1      19.265   0.948  29.389  1.00  0.00     0.089 A 
HETATM   15  C7  UNK     1      19.337   0.717  30.759  1.00  0.00    -0.001 A 
HETATM   16  C15 UNK     1      19.553  -0.051  28.461  1.00  0.00     0.038 A 
HETATM   17  C14 UNK     1      19.708  -0.551  31.211  1.00  0.00     0.014 A 
HETATM   18  C8  UNK     1      19.023   1.805  31.673  1.00  0.00     0.037 A 
HETATM   19  C16 UNK     1      20.000  -1.563  30.292  1.00  0.00     0.001 A 
HETATM   20  C18 UNK     1      19.923  -1.313  28.920  1.00  0.00     0.003 A 
ENDBRANCH   7  10
ENDBRANCH   4   6
BRANCH   2  21
HETATM   21  C11 UNK     1      16.848   7.400  31.785  1.00  0.00     0.297 C 
HETATM   22  O5  UNK     1      16.749   8.087  30.758  1.00  0.00    -0.259 OA
BRANCH  21  23
HETATM   23  O3  UNK     1      15.843   6.554  32.202  1.00  0.00    -0.318 OA
BRANCH  23  24
HETATM   24  C20 UNK     1      14.499   7.028  32.060  1.00  0.00     0.174 C 
HETATM   25  C21 UNK     1      13.909   7.255  33.436  1.00  0.00     0.034 C 
ENDBRANCH  23  24
ENDBRANCH  21  23
ENDBRANCH   2  21
BRANCH   3  26
HETATM   26  C4  UNK     1      17.547   9.648  33.849  1.00  0.00     0.086 A 
HETATM   27  C12 UNK     1      16.290   9.679  34.406  1.00  0.00     0.040 A 
HETATM   28  C17 UNK     1      15.924  11.044  34.470  1.00  0.00     0.027 A 
HETATM   29  C19 UNK     1      16.983  11.749  33.949  1.00  0.00     0.142 A 
HETATM   30  O2  UNK     1      17.977  10.905  33.568  1.00  0.00    -0.322 OA
ENDBRANCH   3  26
TORSDOF 6
ENDMDL
MODEL 2
REMARK VINA RESULT:      -9.1      4.890      9.772
REMARK  6 active torsions:
REMARK  status: ('A' for Active; 'I' for Inactive)
REMARK    1  A    between atoms: C11_19  and  O3_4 
REMARK    2  A    between atoms: C20_28  and  O3_4 
REMARK    3  A    between atoms: C3_11  and  N1_8 
REMARK       I    between atoms: C9_17  and  N1_8 
REMARK    4  A    between atoms: C1_9  and  C11_19 
REMARK    5  A    between atoms: C2_10  and  C4_12 
REMARK    6  A    between atoms: C5_13  and  C9_17 
ROOT
HETATM    1  S1  UNK     1      17.903  -0.388  37.025  1.00  0.00    -0.082 SA
HETATM    2  C1  UNK     1      19.637  -1.653  35.612  1.00  0.00     0.086 A 
HETATM    3  C2  UNK     1      19.348  -2.491  36.728  1.00  0.00     0.023 A 
HETATM    4  C3  UNK     1      18.920  -0.501  35.667  1.00  0.00     0.094 A 
HETATM    5  C6  UNK     1      18.422  -1.924  37.576  1.00  0.00     0.067 A 
ENDROOT
BRANCH   4   6
HETATM    6  N1  UNK     1      18.889   0.590  34.794  1.00  0.00    -0.316 N 
HETATM    7  C9  UNK     1      17.773   1.065  34.118  1.00  0.00     0.262 C 
HETATM    8  O4  UNK     1      16.621   0.639  34.145  1.00  0.00    -0.267 OA
HETATM    9  H2  UNK     1      19.781   1.065  34.685  1.00  0.00     0.169 HD
BRANCH   7  10
HETATM   10  C5  UNK     1      18.095   2.229  33.283  1.00  0.00     0.108 A 
HETATM   11  C13 UNK     1      18.421   2.098  31.845  1.00  0.00     0.304 A 
HETATM   12  O6  UNK     1      18.439   1.009  31.281  1.00  0.00    -0.259 OA
HETATM   13  O1  UNK     1      18.708   3.275  31.159  1.00  0.00    -0.274 OA
HETATM   14  C10 UNK     1      18.689   4.531  31.797  1.00  0.00     0.089 A 
HETATM   15  C7  UNK     1      18.380   4.631  33.150  1.00  0.00    -0.001 A 
HETATM   16  C15 UNK     1      18.989   5.653  31.028  1.00  0.00     0.038 A 
HETATM   17  C14 UNK     1      18.371   5.894  33.748  1.00  0.00     0.014 A 
HETATM   18  C8  UNK     1      18.075   3.419  33.895  1.00  0.00     0.037 A 
HETATM   19  C16 UNK     1      18.671   7.028  32.989  1.00  0.00     0.001 A 
HETATM   20  C18 UNK     1      18.979   6.908  31.632  1.00  0.00     0.003 A 
ENDBRANCH   7  10
ENDBRANCH   4   6
BRANCH   2  21
HETATM   21  C11 UNK     1      20.561  -1.960  34.548  1.00  0.00     0.297 C 
HETATM   22  O5  UNK     1      21.772  -2.158  34.721  1.00  0.00    -0.259 OA
BRANCH  21  23
HETATM   23  O3  UNK     1      19.977  -2.014  33.301  1.00  0.00    -0.318 OA
BRANCH  23  24
HETATM   24  C20 UNK     1      20.823  -2.391  32.208  1.00  0.00     0.174 C 
HETATM   25  C21 UNK     1      20.165  -1.973  30.909  1.00  0.00     0.034 C 
ENDBRANCH  23  24
ENDBRANCH  21  23
ENDBRANCH   2  21
BRANCH   3  26
HETATM   26  C4  UNK     1      19.943  -3.816  36.993  1.00  0.00     0.086 A 
HETATM   27  C12 UNK     1      19.480  -5.006  36.483  1.00  0.00     0.040 A 
HETATM   28  C17 UNK     1      20.340  -6.010  36.989  1.00  0.00     0.027 A 
HETATM   29  C19 UNK     1      21.267  -5.361  37.770  1.00  0.00     0.142 A 
HETATM   30  O2  UNK     1      21.032  -4.022  37.778  1.00  0.00    -0.322 OA
ENDBRANCH   3  26
TORSDOF 6
ENDMDL
MODEL 3
REMARK VINA RESULT:      -8.9      7.598     10.202
REMARK  6 active torsions:
REMARK  status: ('A' for Active; 'I' for Inactive)
REMARK    1  A    between atoms: C11_19  and  O3_4 
REMARK    2  A    between atoms: C20_28  and  O3_4 
REMARK    3  A    between atoms: C3_11  and  N1_8 
REMARK       I    between atoms: C9_17  and  N1_8 
REMARK    4  A    between atoms: C1_9  and  C11_19 
REMARK    5  A    between atoms: C2_10  and  C4_12 
REMARK    6  A    between atoms: C5_13  and  C9_17 
ROOT
HETATM    1  S1  UNK     1      17.595  -1.524  37.754  1.00  0.00    -0.082 SA
HETATM    2  C1  UNK     1      18.678  -1.232  35.443  1.00  0.00     0.086 A 
HETATM    3  C2  UNK     1      18.136   0.039  35.789  1.00  0.00     0.023 A 
HETATM    4  C3  UNK     1      18.448  -2.146  36.422  1.00  0.00     0.094 A 
HETATM    5  C6  UNK     1      17.519   0.021  37.021  1.00  0.00     0.067 A 
ENDROOT
BRANCH   4   6
HETATM    6  N1  UNK     1      18.798  -3.497  36.502  1.00  0.00    -0.316 N 
HETATM    7  C9  UNK     1      19.965  -4.008  37.053  1.00  0.00     0.262 C 
HETATM    8  O4  UNK     1      20.901  -3.399  37.568  1.00  0.00    -0.267 OA
HETATM    9  H2  UNK     1      18.100  -4.134  36.128  1.00  0.00     0.169 HD
BRANCH   7  10
HETATM   10  C5  UNK     1      20.011  -5.473  36.973  1.00  0.00     0.108 A 
HETATM   11  C13 UNK     1      20.157  -6.185  35.683  1.00  0.00     0.304 A 
HETATM   12  O6  UNK     1      20.246  -5.584  34.618  1.00  0.00    -0.259 OA
HETATM   13  O1  UNK     1      20.189  -7.576  35.736  1.00  0.00    -0.274 OA
HETATM   14  C10 UNK     1      20.089  -8.275  36.956  1.00  0.00     0.089 A 
HETATM   15  C7  UNK     1      19.953  -7.586  38.157  1.00  0.00    -0.001 A 
HETATM   16  C15 UNK     1      20.131  -9.667  36.909  1.00  0.00     0.038 A 
HETATM   17  C14 UNK     1      19.856  -8.315  39.345  1.00  0.00     0.014 A 
HETATM   18  C8  UNK     1      19.916  -6.131  38.134  1.00  0.00     0.037 A 
HETATM   19  C16 UNK     1      19.897  -9.711  39.313  1.00  0.00     0.001 A 
HETATM   20  C18 UNK     1      20.034 -10.385  38.098  1.00  0.00     0.003 A 
ENDBRANCH   7  10
ENDBRANCH   4   6
BRANCH   2  21
HETATM   21  C11 UNK     1      19.384  -1.541  34.224  1.00  0.00     0.297 C 
HETATM   22  O5  UNK     1      20.547  -1.967  34.187  1.00  0.00    -0.259 OA
BRANCH  21  23
HETATM   23  O3  UNK     1      18.648  -1.317  33.081  1.00  0.00    -0.318 OA
BRANCH  23  24
HETATM   24  C20 UNK     1      19.343  -1.418  31.833  1.00  0.00     0.174 C 
HETATM   25  C21 UNK     1      19.492  -0.034  31.238  1.00  0.00     0.034 C 
ENDBRANCH  23  24
ENDBRANCH  21  23
ENDBRANCH   2  21
BRANCH   3  26
HETATM   26  C4  UNK     1      18.200   1.261  34.964  1.00  0.00     0.086 A 
HETATM   27  C12 UNK     1      18.884   2.406  35.299  1.00  0.00     0.040 A 
HETATM   28  C17 UNK     1      18.676   3.313  34.232  1.00  0.00     0.027 A 
HETATM   29  C19 UNK     1      17.881   2.656  33.322  1.00  0.00     0.142 A 
HETATM   30  O2  UNK     1      17.586   1.405  33.761  1.00  0.00    -0.322 OA
ENDBRANCH   3  26
TORSDOF 6
ENDMDL
MODEL 4
REMARK VINA RESULT:      -8.7     14.278     19.811
REMARK  6 active torsions:
REMARK  status: ('A' for Active; 'I' for Inactive)
REMARK    1  A    between atoms: C11_19  and  O3_4 
REMARK    2  A    between atoms: C20_28  and  O3_4 
REMARK    3  A    between atoms: C3_11  and  N1_8 
REMARK       I    between atoms: C9_17  and  N1_8 
REMARK    4  A    between atoms: C1_9  and  C11_19 
REMARK    5  A    between atoms: C2_10  and  C4_12 
REMARK    6  A    between atoms: C5_13  and  C9_17 
ROOT
HETATM    1  S1  UNK     1      19.542  -2.378  12.568  1.00  0.00    -0.082 SA
HETATM    2  C1  UNK     1      20.042  -4.213  14.295  1.00  0.00     0.086 A 
HETATM    3  C2  UNK     1      20.010  -4.862  13.027  1.00  0.00     0.023 A 
HETATM    4  C3  UNK     1      19.804  -2.882  14.170  1.00  0.00     0.094 A 
HETATM    5  C6  UNK     1      19.747  -3.981  12.001  1.00  0.00     0.067 A 
ENDROOT
BRANCH   4   6
HETATM    6  N1  UNK     1      19.744  -1.877  15.140  1.00  0.00    -0.316 N 
HETATM    7  C9  UNK     1      18.652  -1.582  15.945  1.00  0.00     0.262 C 
HETATM    8  O4  UNK     1      17.549  -2.124  15.971  1.00  0.00    -0.267 OA
HETATM    9  H2  UNK     1      20.605  -1.347  15.249  1.00  0.00     0.169 HD
BRANCH   7  10
HETATM   10  C5  UNK     1      18.931  -0.465  16.856  1.00  0.00     0.108 A 
HETATM   11  C13 UNK     1      19.189   0.906  16.361  1.00  0.00     0.304 A 
HETATM   12  O6  UNK     1      19.183   1.176  15.165  1.00  0.00    -0.259 OA
HETATM   13  O1  UNK     1      19.440   1.882  17.323  1.00  0.00    -0.274 OA
HETATM   14  C10 UNK     1      19.448   1.582  18.700  1.00  0.00     0.089 A 
HETATM   15  C7  UNK     1      19.204   0.287  19.143  1.00  0.00    -0.001 A 
HETATM   16  C15 UNK     1      19.709   2.624  19.587  1.00  0.00     0.038 A 
HETATM   17  C14 UNK     1      19.221   0.029  20.516  1.00  0.00     0.014 A 
HETATM   18  C8  UNK     1      18.938  -0.755  18.162  1.00  0.00     0.037 A 
HETATM   19  C16 UNK     1      19.481   1.064  21.418  1.00  0.00     0.001 A 
HETATM   20  C18 UNK     1      19.725   2.359  20.954  1.00  0.00     0.003 A 
ENDBRANCH   7  10
ENDBRANCH   4   6
BRANCH   2  21
HETATM   21  C11 UNK     1      20.291  -4.857  15.562  1.00  0.00     0.297 C 
HETATM   22  O5  UNK     1      19.785  -5.936  15.900  1.00  0.00    -0.259 OA
BRANCH  21  23
HETATM   23  O3  UNK     1      21.154  -4.161  16.381  1.00  0.00    -0.318 OA
BRANCH  23  24
HETATM   24  C20 UNK     1      22.510  -4.619  16.429  1.00  0.00     0.174 C 
HETATM   25  C21 UNK     1      23.435  -3.445  16.188  1.00  0.00     0.034 C 
ENDBRANCH  23  24
ENDBRANCH  21  23
ENDBRANCH   2  21
BRANCH   3  26
HETATM   26  C4  UNK     1      20.224  -6.302  12.785  1.00  0.00     0.086 A 
HETATM   27  C12 UNK     1      19.227  -7.228  12.587  1.00  0.00     0.040 A 
HETATM   28  C17 UNK     1      19.877  -8.470  12.395  1.00  0.00     0.027 A 
HETATM   29  C19 UNK     1      21.225  -8.214  12.489  1.00  0.00     0.142 A 
HETATM   30  O2  UNK     1      21.445  -6.894  12.727  1.00  0.00    -0.322 OA
ENDBRANCH   3  26
TORSDOF 6
ENDMDL
MODEL 5
REMARK VINA RESULT:      -8.6      2.007      3.803
REMARK  6 active torsions:
REMARK  status: ('A' for Active; 'I' for Inactive)
REMARK    1  A    between atoms: C11_19  and  O3_4 
REMARK    2  A    between atoms: C20_28  and  O3_4 
REMARK    3  A    between atoms: C3_11  and  N1_8 
REMARK       I    between atoms: C9_17  and  N1_8 
REMARK    4  A    between atoms: C1_9  and  C11_19 
REMARK    5  A    between atoms: C2_10  and  C4_12 
REMARK    6  A    between atoms: C5_13  and  C9_17 
ROOT
HETATM    1  S1  UNK     1      19.020   5.154  29.547  1.00  0.00    -0.082 SA
HETATM    2  C1  UNK     1      18.444   4.856  32.033  1.00  0.00     0.086 A 
HETATM    3  C2  UNK     1      18.220   6.232  31.737  1.00  0.00     0.023 A 
HETATM    4  C3  UNK     1      18.874   4.183  30.934  1.00  0.00     0.094 A 
HETATM    5  C6  UNK     1      18.495   6.530  30.421  1.00  0.00     0.067 A 
ENDROOT
BRANCH   4   6
HETATM    6  N1  UNK     1      19.209   2.836  30.770  1.00  0.00    -0.316 N 
HETATM    7  C9  UNK     1      18.469   1.887  30.077  1.00  0.00     0.262 C 
HETATM    8  O4  UNK     1      17.401   2.029  29.486  1.00  0.00    -0.267 OA
HETATM    9  H2  UNK     1      20.093   2.569  31.195  1.00  0.00     0.169 HD
BRANCH   7  10
HETATM   10  C5  UNK     1      19.113   0.568  30.101  1.00  0.00     0.108 A 
HETATM   11  C13 UNK     1      19.404  -0.186  28.861  1.00  0.00     0.304 A 
HETATM   12  O6  UNK     1      19.122   0.255  27.753  1.00  0.00    -0.259 OA
HETATM   13  O1  UNK     1      20.018  -1.427  29.013  1.00  0.00    -0.274 OA
HETATM   14  C10 UNK     1      20.348  -1.942  30.283  1.00  0.00     0.089 A 
HETATM   15  C7  UNK     1      20.064  -1.217  31.436  1.00  0.00    -0.001 A 
HETATM   16  C15 UNK     1      20.960  -3.192  30.335  1.00  0.00     0.038 A 
HETATM   17  C14 UNK     1      20.406  -1.761  32.676  1.00  0.00     0.014 A 
HETATM   18  C8  UNK     1      19.423   0.084  31.309  1.00  0.00     0.037 A 
HETATM   19  C16 UNK     1      21.021  -3.014  32.744  1.00  0.00     0.001 A 
HETATM   20  C18 UNK     1      21.297  -3.728  31.575  1.00  0.00     0.003 A 
ENDBRANCH   7  10
ENDBRANCH   4   6
BRANCH   2  21
HETATM   21  C11 UNK     1      18.248   4.230  33.318  1.00  0.00     0.297 C 
HETATM   22  O5  UNK     1      18.422   4.806  34.400  1.00  0.00    -0.259 OA
BRANCH  21  23
HETATM   23  O3  UNK     1      17.845   2.914  33.242  1.00  0.00    -0.318 OA
BRANCH  23  24
HETATM   24  C20 UNK     1      18.263   2.048  34.303  1.00  0.00     0.174 C 
HETATM   25  C21 UNK     1      17.355   0.836  34.336  1.00  0.00     0.034 C 
ENDBRANCH  23  24
ENDBRANCH  21  23
ENDBRANCH   2  21
BRANCH   3  26
HETATM   26  C4  UNK     1      17.751   7.257  32.690  1.00  0.00     0.086 A 
HETATM   27  C12 UNK     1      18.562   8.140  33.363  1.00  0.00     0.040 A 
HETATM   28  C17 UNK     1      17.701   8.933  34.159  1.00  0.00     0.027 A 
HETATM   29  C19 UNK     1      16.427   8.477  33.915  1.00  0.00     0.142 A 
HETATM   30  O2  UNK     1      16.448   7.455  33.020  1.00  0.00    -0.322 OA
ENDBRANCH   3  26
TORSDOF 6
ENDMDL
MODEL 6
REMARK VINA RESULT:      -8.4      6.141      9.216
REMARK  6 active torsions:
REMARK  status: ('A' for Active; 'I' for Inactive)
REMARK    1  A    between atoms: C11_19  and  O3_4 
REMARK    2  A    between atoms: C20_28  and  O3_4 
REMARK    3  A    between atoms: C3_11  and  N1_8 
REMARK       I    between atoms: C9_17  and  N1_8 
REMARK    4  A    between atoms: C1_9  and  C11_19 
REMARK    5  A    between atoms: C2_10  and  C4_12 
REMARK    6  A    between atoms: C5_13  and  C9_17 
ROOT
HETATM    1  S1  UNK     1      20.674  -2.314  31.437  1.00  0.00    -0.082 SA
HETATM    2  C1  UNK     1      19.141  -0.666  32.674  1.00  0.00     0.086 A 
HETATM    3  C2  UNK     1      19.435  -0.064  31.416  1.00  0.00     0.023 A 
HETATM    4  C3  UNK     1      19.751  -1.873  32.794  1.00  0.00     0.094 A 
HETATM    5  C6  UNK     1      20.260  -0.854  30.645  1.00  0.00     0.067 A 
ENDROOT
BRANCH   4   6
HETATM    6  N1  UNK     1      19.738  -2.796  33.844  1.00  0.00    -0.316 N 
HETATM    7  C9  UNK     1      20.555  -2.769  34.967  1.00  0.00     0.262 C 
HETATM    8  O4  UNK     1      21.430  -1.957  35.260  1.00  0.00    -0.267 OA
HETATM    9  H2  UNK     1      19.040  -3.528  33.750  1.00  0.00     0.169 HD
BRANCH   7  10
HETATM   10  C5  UNK     1      20.275  -3.890  35.872  1.00  0.00     0.108 A 
HETATM   11  C13 UNK     1      20.145  -3.704  37.335  1.00  0.00     0.304 A 
HETATM   12  O6  UNK     1      20.264  -2.603  37.862  1.00  0.00    -0.259 OA
HETATM   13  O1  UNK     1      19.879  -4.844  38.089  1.00  0.00    -0.274 OA
HETATM   14  C10 UNK     1      19.739  -6.113  37.494  1.00  0.00     0.089 A 
HETATM   15  C7  UNK     1      19.865  -6.266  36.116  1.00  0.00    -0.001 A 
HETATM   16  C15 UNK     1      19.472  -7.195  38.330  1.00  0.00     0.038 A 
HETATM   17  C14 UNK     1      19.720  -7.540  35.563  1.00  0.00     0.014 A 
HETATM   18  C8  UNK     1      20.144  -5.093  35.301  1.00  0.00     0.037 A 
HETATM   19  C16 UNK     1      19.453  -8.635  36.389  1.00  0.00     0.001 A 
HETATM   20  C18 UNK     1      19.329  -8.462  37.770  1.00  0.00     0.003 A 
ENDBRANCH   7  10
ENDBRANCH   4   6
BRANCH   2  21
HETATM   21  C11 UNK     1      18.309  -0.094  33.704  1.00  0.00     0.297 C 
HETATM   22  O5  UNK     1      17.085  -0.271  33.781  1.00  0.00    -0.259 OA
BRANCH  21  23
HETATM   23  O3  UNK     1      18.998   0.679  34.614  1.00  0.00    -0.318 OA
BRANCH  23  24
HETATM   24  C20 UNK     1      18.730   0.439  36.000  1.00  0.00     0.174 C 
HETATM   25  C21 UNK     1      18.092   1.675  36.600  1.00  0.00     0.034 C 
ENDBRANCH  23  24
ENDBRANCH  21  23
ENDBRANCH   2  21
BRANCH   3  26
HETATM   26  C4  UNK     1      18.943   1.246  30.947  1.00  0.00     0.086 A 
HETATM   27  C12 UNK     1      18.981   1.684  29.644  1.00  0.00     0.040 A 
HETATM   28  C17 UNK     1      18.410   2.979  29.650  1.00  0.00     0.027 A 
HETATM   29  C19 UNK     1      18.065   3.238  30.955  1.00  0.00     0.142 A 
HETATM   30  O2  UNK     1      18.387   2.187  31.753  1.00  0.00    -0.322 OA
ENDBRANCH   3  26
TORSDOF 6
ENDMDL
MODEL 7
REMARK VINA RESULT:      -8.4      4.939      9.930
REMARK  6 active torsions:
REMARK  status: ('A' for Active; 'I' for Inactive)
REMARK    1  A    between atoms: C11_19  and  O3_4 
REMARK    2  A    between atoms: C20_28  and  O3_4 
REMARK    3  A    between atoms: C3_11  and  N1_8 
REMARK       I    between atoms: C9_17  and  N1_8 
REMARK    4  A    between atoms: C1_9  and  C11_19 
REMARK    5  A    between atoms: C2_10  and  C4_12 
REMARK    6  A    between atoms: C5_13  and  C9_17 
ROOT
HETATM    1  S1  UNK     1      18.136  -0.926  37.230  1.00  0.00    -0.082 SA
HETATM    2  C1  UNK     1      19.664  -2.021  35.479  1.00  0.00     0.086 A 
HETATM    3  C2  UNK     1      19.446  -3.007  36.486  1.00  0.00     0.023 A 
HETATM    4  C3  UNK     1      19.010  -0.868  35.774  1.00  0.00     0.094 A 
HETATM    5  C6  UNK     1      18.633  -2.543  37.497  1.00  0.00     0.067 A 
ENDROOT
BRANCH   4   6
HETATM    6  N1  UNK     1      18.946   0.342  35.076  1.00  0.00    -0.316 N 
HETATM    7  C9  UNK     1      18.011   0.678  34.106  1.00  0.00     0.262 C 
HETATM    8  O4  UNK     1      17.078   0.004  33.674  1.00  0.00    -0.267 OA
HETATM    9  H2  UNK     1      19.655   1.019  35.344  1.00  0.00     0.169 HD
BRANCH   7  10
HETATM   10  C5  UNK     1      18.234   2.028  33.577  1.00  0.00     0.108 A 
HETATM   11  C13 UNK     1      18.319   3.214  34.459  1.00  0.00     0.304 A 
HETATM   12  O6  UNK     1      18.207   3.125  35.677  1.00  0.00    -0.259 OA
HETATM   13  O1  UNK     1      18.534   4.442  33.839  1.00  0.00    -0.274 OA
HETATM   14  C10 UNK     1      18.666   4.555  32.440  1.00  0.00     0.089 A 
HETATM   15  C7  UNK     1      18.582   3.427  31.629  1.00  0.00    -0.001 A 
HETATM   16  C15 UNK     1      18.879   5.825  31.910  1.00  0.00     0.038 A 
HETATM   17  C14 UNK     1      18.717   3.579  30.247  1.00  0.00     0.014 A 
HETATM   18  C8  UNK     1      18.358   2.129  32.248  1.00  0.00     0.037 A 
HETATM   19  C16 UNK     1      18.931   4.848  29.701  1.00  0.00     0.001 A 
HETATM   20  C18 UNK     1      19.012   5.968  30.532  1.00  0.00     0.003 A 
ENDBRANCH   7  10
ENDBRANCH   4   6
BRANCH   2  21
HETATM   21  C11 UNK     1      20.466  -2.196  34.293  1.00  0.00     0.297 C 
HETATM   22  O5  UNK     1      21.705  -2.232  34.296  1.00  0.00    -0.259 OA
BRANCH  21  23
HETATM   23  O3  UNK     1      19.729  -2.320  33.135  1.00  0.00    -0.318 OA
BRANCH  23  24
HETATM   24  C20 UNK     1      20.124  -1.502  32.028  1.00  0.00     0.174 C 
HETATM   25  C21 UNK     1      20.491  -2.396  30.861  1.00  0.00     0.034 C 
ENDBRANCH  23  24
ENDBRANCH  21  23
ENDBRANCH   2  21
BRANCH   3  26
HETATM   26  C4  UNK     1      20.001  -4.374  36.493  1.00  0.00     0.086 A 
HETATM   27  C12 UNK     1      20.781  -4.905  37.493  1.00  0.00     0.040 A 
HETATM   28  C17 UNK     1      21.085  -6.228  37.092  1.00  0.00     0.027 A 
HETATM   29  C19 UNK     1      20.468  -6.410  35.877  1.00  0.00     0.142 A 
HETATM   30  O2  UNK     1      19.805  -5.284  35.504  1.00  0.00    -0.322 OA
ENDBRANCH   3  26
TORSDOF 6
ENDMDL
MODEL 8
REMARK VINA RESULT:      -8.1      8.910     14.002
REMARK  6 active torsions:
REMARK  status: ('A' for Active; 'I' for Inactive)
REMARK    1  A    between atoms: C11_19  and  O3_4 
REMARK    2  A    between atoms: C20_28  and  O3_4 
REMARK    3  A    between atoms: C3_11  and  N1_8 
REMARK       I    between atoms: C9_17  and  N1_8 
REMARK    4  A    between atoms: C1_9  and  C11_19 
REMARK    5  A    between atoms: C2_10  and  C4_12 
REMARK    6  A    between atoms: C5_13  and  C9_17 
ROOT
HETATM    1  S1  UNK     1      20.607  -6.628  33.967  1.00  0.00    -0.082 SA
HETATM    2  C1  UNK     1      19.709  -7.001  36.345  1.00  0.00     0.086 A 
HETATM    3  C2  UNK     1      20.187  -8.268  35.899  1.00  0.00     0.023 A 
HETATM    4  C3  UNK     1      19.884  -6.049  35.392  1.00  0.00     0.094 A 
HETATM    5  C6  UNK     1      20.701  -8.207  34.622  1.00  0.00     0.067 A 
ENDROOT
BRANCH   4   6
HETATM    6  N1  UNK     1      19.565  -4.688  35.401  1.00  0.00    -0.316 N 
HETATM    7  C9  UNK     1      20.216  -3.701  36.128  1.00  0.00     0.262 C 
HETATM    8  O4  UNK     1      21.175  -3.815  36.889  1.00  0.00    -0.267 OA
HETATM    9  H2  UNK     1      18.792  -4.435  34.792  1.00  0.00     0.169 HD
BRANCH   7  10
HETATM   10  C5  UNK     1      19.623  -2.377  35.904  1.00  0.00     0.108 A 
HETATM   11  C13 UNK     1      19.732  -1.676  34.605  1.00  0.00     0.304 A 
HETATM   12  O6  UNK     1      20.325  -2.169  33.651  1.00  0.00    -0.259 OA
HETATM   13  O1  UNK     1      19.127  -0.425  34.516  1.00  0.00    -0.274 OA
HETATM   14  C10 UNK     1      18.443   0.149  35.606  1.00  0.00     0.089 A 
HETATM   15  C7  UNK     1      18.353  -0.527  36.819  1.00  0.00    -0.001 A 
HETATM   16  C15 UNK     1      17.870   1.405  35.421  1.00  0.00     0.038 A 
HETATM   17  C14 UNK     1      17.667   0.074  37.876  1.00  0.00     0.014 A 
HETATM   18  C8  UNK     1      18.975  -1.837  36.943  1.00  0.00     0.037 A 
HETATM   19  C16 UNK     1      17.086   1.334  37.706  1.00  0.00     0.001 A 
HETATM   20  C18 UNK     1      17.188   1.997  36.481  1.00  0.00     0.003 A 
ENDBRANCH   7  10
ENDBRANCH   4   6
BRANCH   2  21
HETATM   21  C11 UNK     1      19.116  -6.733  37.631  1.00  0.00     0.297 C 
HETATM   22  O5  UNK     1      17.899  -6.792  37.857  1.00  0.00    -0.259 OA
BRANCH  21  23
HETATM   23  O3  UNK     1      20.029  -6.399  38.608  1.00  0.00    -0.318 OA
BRANCH  23  24
HETATM   24  C20 UNK     1      20.301  -7.392  39.605  1.00  0.00     0.174 C 
HETATM   25  C21 UNK     1      21.763  -7.779  39.528  1.00  0.00     0.034 C 
ENDBRANCH  23  24
ENDBRANCH  21  23
ENDBRANCH   2  21
BRANCH   3  26
HETATM   26  C4  UNK     1      20.158  -9.525  36.671  1.00  0.00     0.086 A 
HETATM   27  C12 UNK     1      21.203 -10.413  36.776  1.00  0.00     0.040 A 
HETATM   28  C17 UNK     1      20.742 -11.464  37.604  1.00  0.00     0.027 A 
HETATM   29  C19 UNK     1      19.450 -11.142  37.947  1.00  0.00     0.142 A 
HETATM   30  O2  UNK     1      19.086  -9.962  37.382  1.00  0.00    -0.322 OA
ENDBRANCH   3  26
TORSDOF 6
ENDMDL
MODEL 9
REMARK VINA RESULT:      -8.1      7.708     10.661
REMARK  6 active torsions:
REMARK  status: ('A' for Active; 'I' for Inactive)
REMARK    1  A    between atoms: C11_19  and  O3_4 
REMARK    2  A    between atoms: C20_28  and  O3_4 
REMARK    3  A    between atoms: C3_11  and  N1_8 
REMARK       I    between atoms: C9_17  and  N1_8 
REMARK    4  A    between atoms: C1_9  and  C11_19 
REMARK    5  A    between atoms: C2_10  and  C4_12 
REMARK    6  A    between atoms: C5_13  and  C9_17 
ROOT
HETATM    1  S1  UNK     1      18.630  -2.212  37.923  1.00  0.00    -0.082 SA
HETATM    2  C1  UNK     1      19.545  -1.731  35.571  1.00  0.00     0.086 A 
HETATM    3  C2  UNK     1      18.741  -0.607  35.921  1.00  0.00     0.023 A 
HETATM    4  C3  UNK     1      19.557  -2.653  36.569  1.00  0.00     0.094 A 
HETATM    5  C6  UNK     1      18.184  -0.739  37.174  1.00  0.00     0.067 A 
ENDROOT
BRANCH   4   6
HETATM    6  N1  UNK     1      20.205  -3.889  36.653  1.00  0.00    -0.316 N 
HETATM    7  C9  UNK     1      19.597  -5.136  36.608  1.00  0.00     0.262 C 
HETATM    8  O4  UNK     1      18.403  -5.403  36.490  1.00  0.00    -0.267 OA
HETATM    9  H2  UNK     1      21.217  -3.827  36.734  1.00  0.00     0.169 HD
BRANCH   7  10
HETATM   10  C5  UNK     1      20.574  -6.225  36.723  1.00  0.00     0.108 A 
HETATM   11  C13 UNK     1      21.659  -6.203  37.730  1.00  0.00     0.304 A 
HETATM   12  O6  UNK     1      21.794  -5.273  38.518  1.00  0.00    -0.259 OA
HETATM   13  O1  UNK     1      22.524  -7.295  37.742  1.00  0.00    -0.274 OA
HETATM   14  C10 UNK     1      22.376  -8.369  36.842  1.00  0.00     0.089 A 
HETATM   15  C7  UNK     1      21.350  -8.369  35.903  1.00  0.00    -0.001 A 
HETATM   16  C15 UNK     1      23.290  -9.417  36.929  1.00  0.00     0.038 A 
HETATM   17  C14 UNK     1      21.236  -9.451  35.027  1.00  0.00     0.014 A 
HETATM   18  C8  UNK     1      20.430  -7.242  35.866  1.00  0.00     0.037 A 
HETATM   19  C16 UNK     1      22.146 -10.510  35.103  1.00  0.00     0.001 A 
HETATM   20  C18 UNK     1      23.170 -10.492  36.053  1.00  0.00     0.003 A 
ENDBRANCH   7  10
ENDBRANCH   4   6
BRANCH   2  21
HETATM   21  C11 UNK     1      20.262  -1.897  34.331  1.00  0.00     0.297 C 
HETATM   22  O5  UNK     1      21.488  -2.062  34.259  1.00  0.00    -0.259 OA
BRANCH  21  23
HETATM   23  O3  UNK     1      19.459  -1.855  33.212  1.00  0.00    -0.318 OA
BRANCH  23  24
HETATM   24  C20 UNK     1      20.118  -1.903  31.942  1.00  0.00     0.174 C 
HETATM   25  C21 UNK     1      19.867  -0.602  31.207  1.00  0.00     0.034 C 
ENDBRANCH  23  24
ENDBRANCH  21  23
ENDBRANCH   2  21
BRANCH   3  26
HETATM   26  C4  UNK     1      18.502   0.582  35.079  1.00  0.00     0.086 A 
HETATM   27  C12 UNK     1      18.821   1.873  35.426  1.00  0.00     0.040 A 
HETATM   28  C17 UNK     1      18.421   2.682  34.335  1.00  0.00     0.027 A 
HETATM   29  C19 UNK     1      17.887   1.826  33.401  1.00  0.00     0.142 A 
HETATM   30  O2  UNK     1      17.932   0.543  33.847  1.00  0.00    -0.322 OA
ENDBRANCH   3  26
TORSDOF 6
ENDMDL
MODEL 10
REMARK VINA RESULT:      -8.1      2.441      8.793
REMARK  6 active torsions:
REMARK  status: ('A' for Active; 'I' for Inactive)
REMARK    1  A    between atoms: C11_19  and  O3_4 
REMARK    2  A    between atoms: C20_28  and  O3_4 
REMARK    3  A    between atoms: C3_11  and  N1_8 
REMARK       I    between atoms: C9_17  and  N1_8 
REMARK    4  A    between atoms: C1_9  and  C11_19 
REMARK    5  A    between atoms: C2_10  and  C4_12 
REMARK    6  A    between atoms: C5_13  and  C9_17 
ROOT
HETATM    1  S1  UNK     1      18.470   3.969  30.108  1.00  0.00    -0.082 SA
HETATM    2  C1  UNK     1      18.392   2.589  32.274  1.00  0.00     0.086 A 
HETATM    3  C2  UNK     1      18.868   1.708  31.260  1.00  0.00     0.023 A 
HETATM    4  C3  UNK     1      18.147   3.827  31.771  1.00  0.00     0.094 A 
HETATM    5  C6  UNK     1      18.957   2.329  30.034  1.00  0.00     0.067 A 
ENDROOT
BRANCH   4   6
HETATM    6  N1  UNK     1      17.677   4.984  32.399  1.00  0.00    -0.316 N 
HETATM    7  C9  UNK     1      18.391   6.160  32.587  1.00  0.00     0.262 C 
HETATM    8  O4  UNK     1      19.546   6.418  32.253  1.00  0.00    -0.267 OA
HETATM    9  H2  UNK     1      16.713   4.927  32.716  1.00  0.00     0.169 HD
BRANCH   7  10
HETATM   10  C5  UNK     1      17.594   7.177  33.283  1.00  0.00     0.108 A 
HETATM   11  C13 UNK     1      17.987   7.713  34.606  1.00  0.00     0.304 A 
HETATM   12  O6  UNK     1      18.999   7.332  35.185  1.00  0.00    -0.259 OA
HETATM   13  O1  UNK     1      17.151   8.676  35.165  1.00  0.00    -0.274 OA
HETATM   14  C10 UNK     1      15.987   9.121  34.507  1.00  0.00     0.089 A 
HETATM   15  C7  UNK     1      15.636   8.604  33.264  1.00  0.00    -0.001 A 
HETATM   16  C15 UNK     1      15.212  10.087  35.145  1.00  0.00     0.038 A 
HETATM   17  C14 UNK     1      14.474   9.070  32.643  1.00  0.00     0.014 A 
HETATM   18  C8  UNK     1      16.490   7.596  32.654  1.00  0.00     0.037 A 
HETATM   19  C16 UNK     1      13.687  10.039  33.271  1.00  0.00     0.001 A 
HETATM   20  C18 UNK     1      14.056  10.546  34.519  1.00  0.00     0.003 A 
ENDBRANCH   7  10
ENDBRANCH   4   6
BRANCH   2  21
HETATM   21  C11 UNK     1      18.189   2.244  33.659  1.00  0.00     0.297 C 
HETATM   22  O5  UNK     1      18.917   2.635  34.583  1.00  0.00    -0.259 OA
BRANCH  21  23
HETATM   23  O3  UNK     1      17.100   1.428  33.877  1.00  0.00    -0.318 OA
BRANCH  23  24
HETATM   24  C20 UNK     1      17.114   0.636  35.070  1.00  0.00     0.174 C 
HETATM   25  C21 UNK     1      15.705   0.166  35.367  1.00  0.00     0.034 C 
ENDBRANCH  23  24
ENDBRANCH  21  23
ENDBRANCH   2  21
BRANCH   3  26
HETATM   26  C4  UNK     1      19.234   0.290  31.447  1.00  0.00     0.086 A 
HETATM   27  C12 UNK     1      20.343  -0.317  30.907  1.00  0.00     0.040 A 
HETATM   28  C17 UNK     1      20.301  -1.664  31.340  1.00  0.00     0.027 A 
HETATM   29  C19 UNK     1      19.171  -1.782  32.114  1.00  0.00     0.142 A 
HETATM   30  O2  UNK     1      18.514  -0.594  32.184  1.00  0.00    -0.322 OA
ENDBRANCH   3  26
TORSDOF 6
ENDMDL
