MODEL 1
REMARK VINA RESULT:     -10.0      0.000      0.000
REMARK  5 active torsions:
REMARK  status: ('A' for Active; 'I' for Inactive)
REMARK    1  A    between atoms: C16_24  and  O2_4 
REMARK       I    between atoms: C12_20  and  N1_8 
REMARK    2  A    between atoms: C4_12  and  N1_8 
REMARK    3  A    between atoms: C1_9  and  C3_11 
REMARK    4  A    between atoms: C16_24  and  C2_10 
REMARK    5  A    between atoms: C12_20  and  C8_16 
ROOT
HETATM    1  S1  UNK     1      17.985  -0.366  37.058  1.00  0.00    -0.082 SA
HETATM    2  C1  UNK     1      19.311  -2.524  36.631  1.00  0.00    -0.000 A 
HETATM    3  C2  UNK     1      19.566  -1.677  35.514  1.00  0.00     0.085 A 
HETATM    4  C4  UNK     1      18.907  -0.495  35.636  1.00  0.00     0.094 A 
HETATM    5  C5  UNK     1      18.467  -1.934  37.546  1.00  0.00     0.065 A 
ENDROOT
BRANCH   4   6
HETATM    6  N1  UNK     1      18.870   0.614  34.786  1.00  0.00    -0.316 N 
HETATM    7  C12 UNK     1      17.751   1.104  34.128  1.00  0.00     0.262 C 
HETATM    8  O3  UNK     1      16.598   0.678  34.155  1.00  0.00    -0.267 OA
HETATM    9  H4  UNK     1      19.767   1.068  34.646  1.00  0.00     0.169 HD
BRANCH   7  10
HETATM   10  C8  UNK     1      18.067   2.285  33.314  1.00  0.00     0.108 A 
HETATM   11  C11 UNK     1      18.050   3.461  33.950  1.00  0.00     0.037 A 
HETATM   12  C9  UNK     1      18.350   4.689  33.229  1.00  0.00     0.001 A 
HETATM   13  C13 UNK     1      18.656   4.615  31.874  1.00  0.00     0.089 A 
HETATM   14  C18 UNK     1      18.342   5.940  33.851  1.00  0.00     0.038 A 
HETATM   15  O1  UNK     1      18.674   3.373  31.210  1.00  0.00    -0.274 OA
HETATM   16  C19 UNK     1      18.952   5.753  31.126  1.00  0.00     0.040 A 
HETATM   17  C17 UNK     1      18.390   2.182  31.873  1.00  0.00     0.304 A 
HETATM   18  O5  UNK     1      18.408   1.105  31.288  1.00  0.00    -0.259 OA
HETATM   19  C22 UNK     1      18.942   6.996  31.754  1.00  0.00     0.026 A 
HETATM   20  C21 UNK     1      18.638   7.090  33.114  1.00  0.00     0.035 A 
HETATM   21 Cl1  UNK     1      18.628   8.630  33.885  1.00  0.00    -0.084 Cl
ENDBRANCH   7  10
ENDBRANCH   4   6
BRANCH   3  22
HETATM   22  C16 UNK     1      20.407  -2.002  34.389  1.00  0.00     0.296 C 
HETATM   23  O4  UNK     1      21.611  -2.278  34.483  1.00  0.00    -0.259 OA
BRANCH  22  24
HETATM   24  O2  UNK     1      19.751  -1.980  33.176  1.00  0.00    -0.322 OA
HETATM   25  C23 UNK     1      20.567  -1.996  32.000  1.00  0.00     0.213 C 
ENDBRANCH  22  24
ENDBRANCH   3  22
BRANCH   2  26
HETATM   26  C3  UNK     1      19.826  -3.848  36.867  1.00  0.00    -0.024 A 
HETATM   27  C6  UNK     1      19.169  -4.953  36.332  1.00  0.00     0.013 A 
HETATM   28  C14 UNK     1      19.668  -6.235  36.559  1.00  0.00     0.007 A 
HETATM   29  C10 UNK     1      20.822  -6.410  37.322  1.00  0.00    -0.062 A 
HETATM   30  C15 UNK     1      21.479  -5.301  37.857  1.00  0.00     0.007 A 
HETATM   31  C20 UNK     1      21.357  -7.780  37.563  1.00  0.00     0.048 C 
HETATM   32  C7  UNK     1      20.980  -4.018  37.629  1.00  0.00     0.013 A 
ENDBRANCH   2  26
TORSDOF 5
ENDMDL
MODEL 2
REMARK VINA RESULT:      -9.7      5.599     10.817
REMARK  5 active torsions:
REMARK  status: ('A' for Active; 'I' for Inactive)
REMARK    1  A    between atoms: C16_24  and  O2_4 
REMARK       I    between atoms: C12_20  and  N1_8 
REMARK    2  A    between atoms: C4_12  and  N1_8 
REMARK    3  A    between atoms: C1_9  and  C3_11 
REMARK    4  A    between atoms: C16_24  and  C2_10 
REMARK    5  A    between atoms: C12_20  and  C8_16 
ROOT
HETATM    1  S1  UNK     1      20.168   6.689  33.718  1.00  0.00    -0.082 SA
HETATM    2  C1  UNK     1      18.300   8.444  33.543  1.00  0.00    -0.000 A 
HETATM    3  C2  UNK     1      17.973   7.424  32.604  1.00  0.00     0.085 A 
HETATM    4  C4  UNK     1      18.903   6.435  32.611  1.00  0.00     0.094 A 
HETATM    5  C5  UNK     1      19.469   8.170  34.218  1.00  0.00     0.065 A 
ENDROOT
BRANCH   4   6
HETATM    6  N1  UNK     1      18.982   5.257  31.862  1.00  0.00    -0.316 N 
HETATM    7  C12 UNK     1      18.352   4.056  32.155  1.00  0.00     0.262 C 
HETATM    8  O3  UNK     1      17.617   3.787  33.103  1.00  0.00    -0.267 OA
HETATM    9  H4  UNK     1      19.580   5.317  31.043  1.00  0.00     0.169 HD
BRANCH   7  10
HETATM   10  C8  UNK     1      18.651   3.023  31.155  1.00  0.00     0.108 A 
HETATM   11  C11 UNK     1      19.089   1.852  31.629  1.00  0.00     0.037 A 
HETATM   12  C9  UNK     1      19.411   0.765  30.717  1.00  0.00     0.001 A 
HETATM   13  C13 UNK     1      19.256   0.967  29.349  1.00  0.00     0.089 A 
HETATM   14  C18 UNK     1      19.874  -0.474  31.167  1.00  0.00     0.038 A 
HETATM   15  O1  UNK     1      18.793   2.203  28.856  1.00  0.00    -0.274 OA
HETATM   16  C19 UNK     1      19.548  -0.032  28.422  1.00  0.00     0.040 A 
HETATM   17  C17 UNK     1      18.477   3.260  29.705  1.00  0.00     0.304 A 
HETATM   18  O5  UNK     1      18.075   4.332  29.267  1.00  0.00    -0.259 OA
HETATM   19  C22 UNK     1      20.007  -1.264  28.879  1.00  0.00     0.026 A 
HETATM   20  C21 UNK     1      20.170  -1.485  30.249  1.00  0.00     0.035 A 
HETATM   21 Cl1  UNK     1      20.738  -3.012  30.808  1.00  0.00    -0.084 Cl
ENDBRANCH   7  10
ENDBRANCH   4   6
BRANCH   3  22
HETATM   22  C16 UNK     1      16.815   7.415  31.744  1.00  0.00     0.296 C 
HETATM   23  O4  UNK     1      16.702   8.119  30.731  1.00  0.00    -0.259 OA
BRANCH  22  24
HETATM   24  O2  UNK     1      15.826   6.543  32.148  1.00  0.00    -0.322 OA
HETATM   25  C23 UNK     1      14.476   7.011  32.055  1.00  0.00     0.213 C 
ENDBRANCH  22  24
ENDBRANCH   3  22
BRANCH   2  26
HETATM   26  C3  UNK     1      17.563   9.648  33.827  1.00  0.00    -0.024 A 
HETATM   27  C6  UNK     1      16.198   9.581  34.091  1.00  0.00     0.013 A 
HETATM   28  C14 UNK     1      15.485  10.747  34.368  1.00  0.00     0.007 A 
HETATM   29  C10 UNK     1      16.140  11.979  34.377  1.00  0.00    -0.062 A 
HETATM   30  C15 UNK     1      17.508  12.044  34.112  1.00  0.00     0.007 A 
HETATM   31  C20 UNK     1      15.378  13.225  34.675  1.00  0.00     0.048 C 
HETATM   32  C7  UNK     1      18.221  10.876  33.836  1.00  0.00     0.013 A 
ENDBRANCH   2  26
TORSDOF 5
ENDMDL
MODEL 3
REMARK VINA RESULT:      -9.2      7.369     10.594
REMARK  5 active torsions:
REMARK  status: ('A' for Active; 'I' for Inactive)
REMARK    1  A    between atoms: C16_24  and  O2_4 
REMARK       I    between atoms: C12_20  and  N1_8 
REMARK    2  A    between atoms: C4_12  and  N1_8 
REMARK    3  A    between atoms: C1_9  and  C3_11 
REMARK    4  A    between atoms: C16_24  and  C2_10 
REMARK    5  A    between atoms: C12_20  and  C8_16 
ROOT
HETATM    1  S1  UNK     1      19.515   8.451  34.197  1.00  0.00    -0.082 SA
HETATM    2  C1  UNK     1      18.664   6.688  32.534  1.00  0.00    -0.000 A 
HETATM    3  C2  UNK     1      17.683   7.721  32.550  1.00  0.00     0.085 A 
HETATM    4  C4  UNK     1      18.035   8.716  33.405  1.00  0.00     0.094 A 
HETATM    5  C5  UNK     1      19.713   6.957  33.384  1.00  0.00     0.065 A 
ENDROOT
BRANCH   4   6
HETATM    6  N1  UNK     1      17.378   9.906  33.731  1.00  0.00    -0.316 N 
HETATM    7  C12 UNK     1      16.334  10.045  34.635  1.00  0.00     0.262 C 
HETATM    8  O3  UNK     1      15.790   9.178  35.316  1.00  0.00    -0.267 OA
HETATM    9  H4  UNK     1      17.708  10.723  33.225  1.00  0.00     0.169 HD
BRANCH   7  10
HETATM   10  C8  UNK     1      15.878  11.437  34.736  1.00  0.00     0.108 A 
HETATM   11  C11 UNK     1      14.554  11.626  34.737  1.00  0.00     0.037 A 
HETATM   12  C9  UNK     1      14.006  12.970  34.833  1.00  0.00     0.001 A 
HETATM   13  C13 UNK     1      14.880  14.048  34.925  1.00  0.00     0.089 A 
HETATM   14  C18 UNK     1      12.630  13.216  34.835  1.00  0.00     0.038 A 
HETATM   15  O1  UNK     1      16.273  13.843  34.925  1.00  0.00    -0.274 OA
HETATM   16  C19 UNK     1      14.419  15.361  35.019  1.00  0.00     0.040 A 
HETATM   17  C17 UNK     1      16.827  12.569  34.833  1.00  0.00     0.304 A 
HETATM   18  O5  UNK     1      18.041  12.399  34.834  1.00  0.00    -0.259 OA
HETATM   19  C22 UNK     1      13.046  15.596  35.022  1.00  0.00     0.026 A 
HETATM   20  C21 UNK     1      12.154  14.526  34.930  1.00  0.00     0.035 A 
HETATM   21 Cl1  UNK     1      10.457  14.824  34.935  1.00  0.00    -0.084 Cl
ENDBRANCH   7  10
ENDBRANCH   4   6
BRANCH   3  22
HETATM   22  C16 UNK     1      16.469   7.738  31.772  1.00  0.00     0.296 C 
HETATM   23  O4  UNK     1      16.265   8.512  30.827  1.00  0.00    -0.259 OA
BRANCH  22  24
HETATM   24  O2  UNK     1      15.535   6.806  32.174  1.00  0.00    -0.322 OA
HETATM   25  C23 UNK     1      14.175   7.247  32.253  1.00  0.00     0.213 C 
ENDBRANCH  22  24
ENDBRANCH   3  22
BRANCH   2  26
HETATM   26  C3  UNK     1      18.651   5.474  31.759  1.00  0.00    -0.024 A 
HETATM   27  C6  UNK     1      18.200   4.289  32.334  1.00  0.00     0.013 A 
HETATM   28  C14 UNK     1      18.186   3.114  31.583  1.00  0.00     0.007 A 
HETATM   29  C10 UNK     1      18.625   3.126  30.259  1.00  0.00    -0.062 A 
HETATM   30  C15 UNK     1      19.076   4.315  29.686  1.00  0.00     0.007 A 
HETATM   31  C20 UNK     1      18.608   1.871  29.456  1.00  0.00     0.048 C 
HETATM   32  C7  UNK     1      19.089   5.491  30.437  1.00  0.00     0.013 A 
ENDBRANCH   2  26
TORSDOF 5
ENDMDL
MODEL 4
REMARK VINA RESULT:      -8.9      7.448     10.786
REMARK  5 active torsions:
REMARK  status: ('A' for Active; 'I' for Inactive)
REMARK    1  A    between atoms: C16_24  and  O2_4 
REMARK       I    between atoms: C12_20  and  N1_8 
REMARK    2  A    between atoms: C4_12  and  N1_8 
REMARK    3  A    between atoms: C1_9  and  C3_11 
REMARK    4  A    between atoms: C16_24  and  C2_10 
REMARK    5  A    between atoms: C12_20  and  C8_16 
ROOT
HETATM    1  S1  UNK     1      19.327   8.408  34.441  1.00  0.00    -0.082 SA
HETATM    2  C1  UNK     1      18.558   6.722  32.661  1.00  0.00    -0.000 A 
HETATM    3  C2  UNK     1      17.559   7.737  32.701  1.00  0.00     0.085 A 
HETATM    4  C4  UNK     1      17.867   8.690  33.618  1.00  0.00     0.094 A 
HETATM    5  C5  UNK     1      19.576   6.963  33.556  1.00  0.00     0.065 A 
ENDROOT
BRANCH   4   6
HETATM    6  N1  UNK     1      17.179   9.851  33.986  1.00  0.00    -0.316 N 
HETATM    7  C12 UNK     1      17.666  11.148  33.915  1.00  0.00     0.262 C 
HETATM    8  O3  UNK     1      18.766  11.534  33.525  1.00  0.00    -0.267 OA
HETATM    9  H4  UNK     1      16.246   9.690  34.354  1.00  0.00     0.169 HD
BRANCH   7  10
HETATM   10  C8  UNK     1      16.679  12.130  34.383  1.00  0.00     0.108 A 
HETATM   11  C11 UNK     1      16.843  13.385  33.950  1.00  0.00     0.037 A 
HETATM   12  C9  UNK     1      15.915  14.428  34.358  1.00  0.00     0.001 A 
HETATM   13  C13 UNK     1      14.860  14.098  35.202  1.00  0.00     0.089 A 
HETATM   14  C18 UNK     1      16.049  15.753  33.933  1.00  0.00     0.038 A 
HETATM   15  O1  UNK     1      14.692  12.774  35.654  1.00  0.00    -0.274 OA
HETATM   16  C19 UNK     1      13.937  15.050  35.631  1.00  0.00     0.040 A 
HETATM   17  C17 UNK     1      15.563  11.755  35.280  1.00  0.00     0.304 A 
HETATM   18  O5  UNK     1      15.409  10.605  35.677  1.00  0.00    -0.259 OA
HETATM   19  C22 UNK     1      14.077  16.368  35.201  1.00  0.00     0.026 A 
HETATM   20  C21 UNK     1      15.130  16.719  34.354  1.00  0.00     0.035 A 
HETATM   21 Cl1  UNK     1      15.298  18.350  33.826  1.00  0.00    -0.084 Cl
ENDBRANCH   7  10
ENDBRANCH   4   6
BRANCH   3  22
HETATM   22  C16 UNK     1      16.368   7.775  31.889  1.00  0.00     0.296 C 
HETATM   23  O4  UNK     1      16.249   8.471  30.870  1.00  0.00    -0.259 OA
BRANCH  22  24
HETATM   24  O2  UNK     1      15.353   6.962  32.346  1.00  0.00    -0.322 OA
HETATM   25  C23 UNK     1      14.392   7.559  33.224  1.00  0.00     0.213 C 
ENDBRANCH  22  24
ENDBRANCH   3  22
BRANCH   2  26
HETATM   26  C3  UNK     1      18.590   5.552  31.823  1.00  0.00    -0.024 A 
HETATM   27  C6  UNK     1      18.164   4.326  32.327  1.00  0.00     0.013 A 
HETATM   28  C14 UNK     1      18.193   3.192  31.515  1.00  0.00     0.007 A 
HETATM   29  C10 UNK     1      18.651   3.287  30.201  1.00  0.00    -0.062 A 
HETATM   30  C15 UNK     1      19.077   4.517  29.698  1.00  0.00     0.007 A 
HETATM   31  C20 UNK     1      18.681   2.077  29.332  1.00  0.00     0.048 C 
HETATM   32  C7  UNK     1      19.047   5.651  30.511  1.00  0.00     0.013 A 
ENDBRANCH   2  26
TORSDOF 5
ENDMDL
MODEL 5
REMARK VINA RESULT:      -8.7      1.701      2.217
REMARK  5 active torsions:
REMARK  status: ('A' for Active; 'I' for Inactive)
REMARK    1  A    between atoms: C16_24  and  O2_4 
REMARK       I    between atoms: C12_20  and  N1_8 
REMARK    2  A    between atoms: C4_12  and  N1_8 
REMARK    3  A    between atoms: C1_9  and  C3_11 
REMARK    4  A    between atoms: C16_24  and  C2_10 
REMARK    5  A    between atoms: C12_20  and  C8_16 
ROOT
HETATM    1  S1  UNK     1      17.633  -1.997  37.012  1.00  0.00    -0.082 SA
HETATM    2  C1  UNK     1      19.381  -3.777  36.399  1.00  0.00    -0.000 A 
HETATM    3  C2  UNK     1      19.740  -2.606  35.672  1.00  0.00     0.085 A 
HETATM    4  C4  UNK     1      18.873  -1.590  35.923  1.00  0.00     0.094 A 
HETATM    5  C5  UNK     1      18.255  -3.584  37.168  1.00  0.00     0.065 A 
ENDROOT
BRANCH   4   6
HETATM    6  N1  UNK     1      18.843  -0.281  35.432  1.00  0.00    -0.316 N 
HETATM    7  C12 UNK     1      18.034   0.190  34.408  1.00  0.00     0.262 C 
HETATM    8  O3  UNK     1      17.202  -0.424  33.743  1.00  0.00    -0.267 OA
HETATM    9  H4  UNK     1      19.502   0.351  35.876  1.00  0.00     0.169 HD
BRANCH   7  10
HETATM   10  C8  UNK     1      18.259   1.618  34.146  1.00  0.00     0.108 A 
HETATM   11  C11 UNK     1      18.286   1.985  32.860  1.00  0.00     0.037 A 
HETATM   12  C9  UNK     1      18.503   3.378  32.499  1.00  0.00     0.001 A 
HETATM   13  C13 UNK     1      18.680   4.315  33.512  1.00  0.00     0.089 A 
HETATM   14  C18 UNK     1      18.541   3.806  31.170  1.00  0.00     0.038 A 
HETATM   15  O1  UNK     1      18.649   3.922  34.865  1.00  0.00    -0.274 OA
HETATM   16  C19 UNK     1      18.893   5.664  33.234  1.00  0.00     0.040 A 
HETATM   17  C17 UNK     1      18.445   2.597  35.240  1.00  0.00     0.304 A 
HETATM   18  O5  UNK     1      18.419   2.264  36.419  1.00  0.00    -0.259 OA
HETATM   19  C22 UNK     1      18.928   6.083  31.906  1.00  0.00     0.026 A 
HETATM   20  C21 UNK     1      18.752   5.156  30.876  1.00  0.00     0.035 A 
HETATM   21 Cl1  UNK     1      18.797   5.681  29.236  1.00  0.00    -0.084 Cl
ENDBRANCH   7  10
ENDBRANCH   4   6
BRANCH   3  22
HETATM   22  C16 UNK     1      20.866  -2.483  34.780  1.00  0.00     0.296 C 
HETATM   23  O4  UNK     1      21.892  -1.840  35.048  1.00  0.00    -0.259 OA
BRANCH  22  24
HETATM   24  O2  UNK     1      20.707  -3.150  33.584  1.00  0.00    -0.322 OA
HETATM   25  C23 UNK     1      20.870  -2.380  32.388  1.00  0.00     0.213 C 
ENDBRANCH  22  24
ENDBRANCH   3  22
BRANCH   2  26
HETATM   26  C3  UNK     1      20.050  -5.052  36.399  1.00  0.00    -0.024 A 
HETATM   27  C6  UNK     1      19.824  -5.954  35.363  1.00  0.00     0.013 A 
HETATM   28  C14 UNK     1      20.473  -7.188  35.362  1.00  0.00     0.007 A 
HETATM   29  C10 UNK     1      21.346  -7.519  36.398  1.00  0.00    -0.062 A 
HETATM   30  C15 UNK     1      21.571  -6.613  37.436  1.00  0.00     0.007 A 
HETATM   31  C20 UNK     1      22.041  -8.837  36.396  1.00  0.00     0.048 C 
HETATM   32  C7  UNK     1      20.922  -5.378  37.436  1.00  0.00     0.013 A 
ENDBRANCH   2  26
TORSDOF 5
ENDMDL
MODEL 6
REMARK VINA RESULT:      -8.6      2.154      3.000
REMARK  5 active torsions:
REMARK  status: ('A' for Active; 'I' for Inactive)
REMARK    1  A    between atoms: C16_24  and  O2_4 
REMARK       I    between atoms: C12_20  and  N1_8 
REMARK    2  A    between atoms: C4_12  and  N1_8 
REMARK    3  A    between atoms: C1_9  and  C3_11 
REMARK    4  A    between atoms: C16_24  and  C2_10 
REMARK    5  A    between atoms: C12_20  and  C8_16 
ROOT
HETATM    1  S1  UNK     1      20.453  -2.640  33.689  1.00  0.00    -0.082 SA
HETATM    2  C1  UNK     1      19.898  -3.929  35.842  1.00  0.00    -0.000 A 
HETATM    3  C2  UNK     1      19.431  -2.599  36.047  1.00  0.00     0.085 A 
HETATM    4  C4  UNK     1      19.675  -1.821  34.960  1.00  0.00     0.094 A 
HETATM    5  C5  UNK     1      20.475  -4.089  34.601  1.00  0.00     0.065 A 
ENDROOT
BRANCH   4   6
HETATM    6  N1  UNK     1      19.392  -0.472  34.727  1.00  0.00    -0.316 N 
HETATM    7  C12 UNK     1      18.267   0.029  34.088  1.00  0.00     0.262 C 
HETATM    8  O3  UNK     1      17.317  -0.588  33.610  1.00  0.00    -0.267 OA
HETATM    9  H4  UNK     1      20.106   0.171  35.053  1.00  0.00     0.169 HD
BRANCH   7  10
HETATM   10  C8  UNK     1      18.288   1.496  34.014  1.00  0.00     0.108 A 
HETATM   11  C11 UNK     1      18.339   2.024  32.786  1.00  0.00     0.037 A 
HETATM   12  C9  UNK     1      18.363   3.468  32.610  1.00  0.00     0.001 A 
HETATM   13  C13 UNK     1      18.331   4.284  33.736  1.00  0.00     0.089 A 
HETATM   14  C18 UNK     1      18.419   4.064  31.347  1.00  0.00     0.038 A 
HETATM   15  O1  UNK     1      18.276   3.721  35.026  1.00  0.00    -0.274 OA
HETATM   16  C19 UNK     1      18.353   5.674  33.636  1.00  0.00     0.040 A 
HETATM   17  C17 UNK     1      18.253   2.344  35.226  1.00  0.00     0.304 A 
HETATM   18  O5  UNK     1      18.204   1.863  36.353  1.00  0.00    -0.259 OA
HETATM   19  C22 UNK     1      18.407   6.260  32.373  1.00  0.00     0.026 A 
HETATM   20  C21 UNK     1      18.440   5.457  31.231  1.00  0.00     0.035 A 
HETATM   21 Cl1  UNK     1      18.507   6.187  29.673  1.00  0.00    -0.084 Cl
ENDBRANCH   7  10
ENDBRANCH   4   6
BRANCH   3  22
HETATM   22  C16 UNK     1      18.782  -2.112  37.239  1.00  0.00     0.296 C 
HETATM   23  O4  UNK     1      19.333  -2.045  38.347  1.00  0.00    -0.259 OA
BRANCH  22  24
HETATM   24  O2  UNK     1      17.475  -1.719  37.042  1.00  0.00    -0.322 OA
HETATM   25  C23 UNK     1      17.078  -0.476  37.632  1.00  0.00     0.213 C 
ENDBRANCH  22  24
ENDBRANCH   3  22
BRANCH   2  26
HETATM   26  C3  UNK     1      19.822  -5.039  36.755  1.00  0.00    -0.024 A 
HETATM   27  C6  UNK     1      18.762  -5.937  36.669  1.00  0.00     0.013 A 
HETATM   28  C14 UNK     1      18.689  -7.014  37.553  1.00  0.00     0.007 A 
HETATM   29  C10 UNK     1      19.677  -7.189  38.522  1.00  0.00    -0.062 A 
HETATM   30  C15 UNK     1      20.738  -6.287  38.606  1.00  0.00     0.007 A 
HETATM   31  C20 UNK     1      19.600  -8.340  39.465  1.00  0.00     0.048 C 
HETATM   32  C7  UNK     1      20.811  -5.211  37.721  1.00  0.00     0.013 A 
ENDBRANCH   2  26
TORSDOF 5
ENDMDL
MODEL 7
REMARK VINA RESULT:      -8.4      9.965     13.920
REMARK  5 active torsions:
REMARK  status: ('A' for Active; 'I' for Inactive)
REMARK    1  A    between atoms: C16_24  and  O2_4 
REMARK       I    between atoms: C12_20  and  N1_8 
REMARK    2  A    between atoms: C4_12  and  N1_8 
REMARK    3  A    between atoms: C1_9  and  C3_11 
REMARK    4  A    between atoms: C16_24  and  C2_10 
REMARK    5  A    between atoms: C12_20  and  C8_16 
ROOT
HETATM    1  S1  UNK     1      29.647  -9.576  38.179  1.00  0.00    -0.082 SA
HETATM    2  C1  UNK     1      31.434  -8.196  36.953  1.00  0.00    -0.000 A 
HETATM    3  C2  UNK     1      30.262  -7.388  36.979  1.00  0.00     0.085 A 
HETATM    4  C4  UNK     1      29.242  -8.026  37.610  1.00  0.00     0.094 A 
HETATM    5  C5  UNK     1      31.239  -9.411  37.571  1.00  0.00     0.065 A 
ENDROOT
BRANCH   4   6
HETATM    6  N1  UNK     1      27.930  -7.612  37.860  1.00  0.00    -0.316 N 
HETATM    7  C12 UNK     1      27.242  -7.751  39.058  1.00  0.00     0.262 C 
HETATM    8  O3  UNK     1      27.631  -8.250  40.112  1.00  0.00    -0.267 OA
HETATM    9  H4  UNK     1      27.460  -7.192  37.064  1.00  0.00     0.169 HD
BRANCH   7  10
HETATM   10  C8  UNK     1      25.880  -7.208  38.973  1.00  0.00     0.108 A 
HETATM   11  C11 UNK     1      24.884  -8.099  39.019  1.00  0.00     0.037 A 
HETATM   12  C9  UNK     1      23.500  -7.657  38.943  1.00  0.00     0.001 A 
HETATM   13  C13 UNK     1      23.235  -6.297  38.822  1.00  0.00     0.089 A 
HETATM   14  C18 UNK     1      22.428  -8.552  38.984  1.00  0.00     0.038 A 
HETATM   15  O1  UNK     1      24.288  -5.363  38.776  1.00  0.00    -0.274 OA
HETATM   16  C19 UNK     1      21.932  -5.808  38.744  1.00  0.00     0.040 A 
HETATM   17  C17 UNK     1      25.621  -5.756  38.846  1.00  0.00     0.304 A 
HETATM   18  O5  UNK     1      26.532  -4.936  38.805  1.00  0.00    -0.259 OA
HETATM   19  C22 UNK     1      20.869  -6.707  38.787  1.00  0.00     0.026 A 
HETATM   20  C21 UNK     1      21.117  -8.076  38.907  1.00  0.00     0.035 A 
HETATM   21 Cl1  UNK     1      19.798  -9.183  38.961  1.00  0.00    -0.084 Cl
ENDBRANCH   7  10
ENDBRANCH   4   6
BRANCH   3  22
HETATM   22  C16 UNK     1      30.141  -6.065  36.418  1.00  0.00     0.296 C 
HETATM   23  O4  UNK     1      30.335  -5.802  35.222  1.00  0.00    -0.259 OA
BRANCH  22  24
HETATM   24  O2  UNK     1      29.787  -5.099  37.335  1.00  0.00    -0.322 OA
HETATM   25  C23 UNK     1      30.769  -4.749  38.317  1.00  0.00     0.213 C 
ENDBRANCH  22  24
ENDBRANCH   3  22
BRANCH   2  26
HETATM   26  C3  UNK     1      32.714  -7.872  36.378  1.00  0.00    -0.024 A 
HETATM   27  C6  UNK     1      33.062  -8.380  35.129  1.00  0.00     0.013 A 
HETATM   28  C14 UNK     1      34.301  -8.064  34.572  1.00  0.00     0.007 A 
HETATM   29  C10 UNK     1      35.190  -7.243  35.265  1.00  0.00    -0.062 A 
HETATM   30  C15 UNK     1      34.838  -6.735  36.517  1.00  0.00     0.007 A 
HETATM   31  C20 UNK     1      36.513  -6.904  34.669  1.00  0.00     0.048 C 
HETATM   32  C7  UNK     1      33.598  -7.050  37.074  1.00  0.00     0.013 A 
ENDBRANCH   2  26
TORSDOF 5
ENDMDL
MODEL 8
REMARK VINA RESULT:      -8.3     18.959     21.505
REMARK  5 active torsions:
REMARK  status: ('A' for Active; 'I' for Inactive)
REMARK    1  A    between atoms: C16_24  and  O2_4 
REMARK       I    between atoms: C12_20  and  N1_8 
REMARK    2  A    between atoms: C4_12  and  N1_8 
REMARK    3  A    between atoms: C1_9  and  C3_11 
REMARK    4  A    between atoms: C16_24  and  C2_10 
REMARK    5  A    between atoms: C12_20  and  C8_16 
ROOT
HETATM    1  S1  UNK     1      17.934  -5.646  14.851  1.00  0.00    -0.082 SA
HETATM    2  C1  UNK     1      18.398  -6.114  12.367  1.00  0.00    -0.000 A 
HETATM    3  C2  UNK     1      18.663  -4.728  12.564  1.00  0.00     0.085 A 
HETATM    4  C4  UNK     1      18.448  -4.367  13.856  1.00  0.00     0.094 A 
HETATM    5  C5  UNK     1      17.993  -6.733  13.529  1.00  0.00     0.065 A 
ENDROOT
BRANCH   4   6
HETATM    6  N1  UNK     1      18.581  -3.126  14.485  1.00  0.00    -0.316 N 
HETATM    7  C12 UNK     1      19.481  -2.812  15.494  1.00  0.00     0.262 C 
HETATM    8  O3  UNK     1      20.321  -3.535  16.025  1.00  0.00    -0.267 OA
HETATM    9  H4  UNK     1      17.930  -2.417  14.162  1.00  0.00     0.169 HD
BRANCH   7  10
HETATM   10  C8  UNK     1      19.351  -1.415  15.928  1.00  0.00     0.108 A 
HETATM   11  C11 UNK     1      19.319  -1.207  17.248  1.00  0.00     0.037 A 
HETATM   12  C9  UNK     1      19.193   0.143  17.776  1.00  0.00     0.001 A 
HETATM   13  C13 UNK     1      19.106   1.208  16.885  1.00  0.00     0.089 A 
HETATM   14  C18 UNK     1      19.153   0.407  19.148  1.00  0.00     0.038 A 
HETATM   15  O1  UNK     1      19.141   0.982  15.495  1.00  0.00    -0.274 OA
HETATM   16  C19 UNK     1      18.983   2.524  17.325  1.00  0.00     0.040 A 
HETATM   17  C17 UNK     1      19.261  -0.297  14.961  1.00  0.00     0.304 A 
HETATM   18  O5  UNK     1      19.292  -0.484  13.750  1.00  0.00    -0.259 OA
HETATM   19  C22 UNK     1      18.945   2.779  18.694  1.00  0.00     0.026 A 
HETATM   20  C21 UNK     1      19.031   1.722  19.603  1.00  0.00     0.035 A 
HETATM   21 Cl1  UNK     1      18.984   2.043  21.295  1.00  0.00    -0.084 Cl
ENDBRANCH   7  10
ENDBRANCH   4   6
BRANCH   3  22
HETATM   22  C16 UNK     1      19.103  -3.805  11.547  1.00  0.00     0.296 C 
HETATM   23  O4  UNK     1      18.442  -3.525  10.537  1.00  0.00    -0.259 OA
BRANCH  22  24
HETATM   24  O2  UNK     1      20.340  -3.250  11.794  1.00  0.00    -0.322 OA
HETATM   25  C23 UNK     1      20.834  -2.317  10.826  1.00  0.00     0.213 C 
ENDBRANCH  22  24
ENDBRANCH   3  22
BRANCH   2  26
HETATM   26  C3  UNK     1      18.510  -6.867  11.145  1.00  0.00    -0.024 A 
HETATM   27  C6  UNK     1      17.363  -7.208  10.434  1.00  0.00     0.013 A 
HETATM   28  C14 UNK     1      17.472  -7.936   9.249  1.00  0.00     0.007 A 
HETATM   29  C10 UNK     1      18.728  -8.322   8.779  1.00  0.00    -0.062 A 
HETATM   30  C15 UNK     1      19.875  -7.978   9.494  1.00  0.00     0.007 A 
HETATM   31  C20 UNK     1      18.844  -9.098   7.512  1.00  0.00     0.048 C 
HETATM   32  C7  UNK     1      19.766  -7.249  10.679  1.00  0.00     0.013 A 
ENDBRANCH   2  26
TORSDOF 5
ENDMDL
MODEL 9
REMARK VINA RESULT:      -8.3      9.881     12.625
REMARK  5 active torsions:
REMARK  status: ('A' for Active; 'I' for Inactive)
REMARK    1  A    between atoms: C16_24  and  O2_4 
REMARK       I    between atoms: C12_20  and  N1_8 
REMARK    2  A    between atoms: C4_12  and  N1_8 
REMARK    3  A    between atoms: C1_9  and  C3_11 
REMARK    4  A    between atoms: C16_24  and  C2_10 
REMARK    5  A    between atoms: C12_20  and  C8_16 
ROOT
HETATM    1  S1  UNK     1      27.025 -10.160  39.602  1.00  0.00    -0.082 SA
HETATM    2  C1  UNK     1      28.853  -8.801  38.415  1.00  0.00    -0.000 A 
HETATM    3  C2  UNK     1      27.619  -8.168  38.092  1.00  0.00     0.085 A 
HETATM    4  C4  UNK     1      26.573  -8.810  38.674  1.00  0.00     0.094 A 
HETATM    5  C5  UNK     1      28.675  -9.897  39.229  1.00  0.00     0.065 A 
ENDROOT
BRANCH   4   6
HETATM    6  N1  UNK     1      25.202  -8.538  38.627  1.00  0.00    -0.316 N 
HETATM    7  C12 UNK     1      24.322  -8.935  37.630  1.00  0.00     0.262 C 
HETATM    8  O3  UNK     1      24.557  -9.586  36.614  1.00  0.00    -0.267 OA
HETATM    9  H4  UNK     1      24.856  -7.981  39.402  1.00  0.00     0.169 HD
BRANCH   7  10
HETATM   10  C8  UNK     1      22.952  -8.478  37.896  1.00  0.00     0.108 A 
HETATM   11  C11 UNK     1      22.126  -8.445  36.845  1.00  0.00     0.037 A 
HETATM   12  C9  UNK     1      20.748  -8.007  37.009  1.00  0.00     0.001 A 
HETATM   13  C13 UNK     1      20.308  -7.628  38.273  1.00  0.00     0.089 A 
HETATM   14  C18 UNK     1      19.850  -7.954  35.939  1.00  0.00     0.038 A 
HETATM   15  O1  UNK     1      21.183  -7.666  39.376  1.00  0.00    -0.274 OA
HETATM   16  C19 UNK     1      19.002  -7.198  38.497  1.00  0.00     0.040 A 
HETATM   17  C17 UNK     1      22.506  -8.080  39.250  1.00  0.00     0.304 A 
HETATM   18  O5  UNK     1      23.260  -8.111  40.216  1.00  0.00    -0.259 OA
HETATM   19  C22 UNK     1      18.113  -7.149  37.425  1.00  0.00     0.026 A 
HETATM   20  C21 UNK     1      18.537  -7.526  36.149  1.00  0.00     0.035 A 
HETATM   21 Cl1  UNK     1      17.433  -7.464  34.828  1.00  0.00    -0.084 Cl
ENDBRANCH   7  10
ENDBRANCH   4   6
BRANCH   3  22
HETATM   22  C16 UNK     1      27.467  -6.998  37.262  1.00  0.00     0.296 C 
HETATM   23  O4  UNK     1      27.755  -6.965  36.057  1.00  0.00    -0.259 OA
BRANCH  22  24
HETATM   24  O2  UNK     1      26.967  -5.900  37.929  1.00  0.00    -0.322 OA
HETATM   25  C23 UNK     1      27.911  -5.090  38.637  1.00  0.00     0.213 C 
ENDBRANCH  22  24
ENDBRANCH   3  22
BRANCH   2  26
HETATM   26  C3  UNK     1      30.175  -8.418  37.992  1.00  0.00    -0.024 A 
HETATM   27  C6  UNK     1      30.756  -7.257  38.496  1.00  0.00     0.013 A 
HETATM   28  C14 UNK     1      32.038  -6.888  38.087  1.00  0.00     0.007 A 
HETATM   29  C10 UNK     1      32.735  -7.679  37.175  1.00  0.00    -0.062 A 
HETATM   30  C15 UNK     1      32.151  -8.842  36.672  1.00  0.00     0.007 A 
HETATM   31  C20 UNK     1      34.105  -7.285  36.740  1.00  0.00     0.048 C 
HETATM   32  C7  UNK     1      30.869  -9.212  37.081  1.00  0.00     0.013 A 
ENDBRANCH   2  26
TORSDOF 5
ENDMDL
MODEL 10
REMARK VINA RESULT:      -8.2     25.596     28.367
REMARK  5 active torsions:
REMARK  status: ('A' for Active; 'I' for Inactive)
REMARK    1  A    between atoms: C16_24  and  O2_4 
REMARK       I    between atoms: C12_20  and  N1_8 
REMARK    2  A    between atoms: C4_12  and  N1_8 
REMARK    3  A    between atoms: C1_9  and  C3_11 
REMARK    4  A    between atoms: C16_24  and  C2_10 
REMARK    5  A    between atoms: C12_20  and  C8_16 
ROOT
HETATM    1  S1  UNK     1      15.458  12.036   7.419  1.00  0.00    -0.082 SA
HETATM    2  C1  UNK     1      17.616  11.564   8.730  1.00  0.00    -0.000 A 
HETATM    3  C2  UNK     1      16.743  10.472   9.001  1.00  0.00     0.085 A 
HETATM    4  C4  UNK     1      15.559  10.618   8.352  1.00  0.00     0.094 A 
HETATM    5  C5  UNK     1      17.043  12.487   7.884  1.00  0.00     0.065 A 
ENDROOT
BRANCH   4   6
HETATM    6  N1  UNK     1      14.428   9.797   8.332  1.00  0.00    -0.316 N 
HETATM    7  C12 UNK     1      13.475   9.692   9.335  1.00  0.00     0.262 C 
HETATM    8  O3  UNK     1      13.429  10.280  10.414  1.00  0.00    -0.267 OA
HETATM    9  H4  UNK     1      14.337   9.225   7.498  1.00  0.00     0.169 HD
BRANCH   7  10
HETATM   10  C8  UNK     1      12.417   8.735   8.987  1.00  0.00     0.108 A 
HETATM   11  C11 UNK     1      11.191   9.020   9.439  1.00  0.00     0.037 A 
HETATM   12  C9  UNK     1      10.076   8.132   9.145  1.00  0.00     0.001 A 
HETATM   13  C13 UNK     1      10.309   6.988   8.389  1.00  0.00     0.089 A 
HETATM   14  C18 UNK     1       8.779   8.389   9.598  1.00  0.00     0.038 A 
HETATM   15  O1  UNK     1      11.603   6.694   7.915  1.00  0.00    -0.274 OA
HETATM   16  C19 UNK     1       9.286   6.096   8.074  1.00  0.00     0.040 A 
HETATM   17  C17 UNK     1      12.688   7.524   8.181  1.00  0.00     0.304 A 
HETATM   18  O5  UNK     1      13.810   7.261   7.763  1.00  0.00    -0.259 OA
HETATM   19  C22 UNK     1       7.996   6.360   8.528  1.00  0.00     0.026 A 
HETATM   20  C21 UNK     1       7.743   7.504   9.289  1.00  0.00     0.035 A 
HETATM   21 Cl1  UNK     1       6.145   7.825   9.847  1.00  0.00    -0.084 Cl
ENDBRANCH   7  10
ENDBRANCH   4   6
BRANCH   3  22
HETATM   22  C16 UNK     1      17.047   9.344   9.848  1.00  0.00     0.296 C 
HETATM   23  O4  UNK     1      17.848   8.448   9.543  1.00  0.00    -0.259 OA
BRANCH  22  24
HETATM   24  O2  UNK     1      16.362   9.343  11.044  1.00  0.00    -0.322 OA
HETATM   25  C23 UNK     1      15.980   8.067  11.568  1.00  0.00     0.213 C 
ENDBRANCH  22  24
ENDBRANCH   3  22
BRANCH   2  26
HETATM   26  C3  UNK     1      18.951  11.769   9.230  1.00  0.00    -0.024 A 
HETATM   27  C6  UNK     1      20.030  11.762   8.350  1.00  0.00     0.013 A 
HETATM   28  C14 UNK     1      21.322  11.962   8.834  1.00  0.00     0.007 A 
HETATM   29  C10 UNK     1      21.533  12.169  10.198  1.00  0.00    -0.062 A 
HETATM   30  C15 UNK     1      20.450  12.176  11.077  1.00  0.00     0.007 A 
HETATM   31  C20 UNK     1      22.914  12.385  10.715  1.00  0.00     0.048 C 
HETATM   32  C7  UNK     1      19.157  11.976  10.592  1.00  0.00     0.013 A 
ENDBRANCH   2  26
TORSDOF 5
ENDMDL
