MODEL 1
REMARK VINA RESULT:      -8.1      0.000      0.000
REMARK  2 active torsions:
REMARK  status: ('A' for Active; 'I' for Inactive)
REMARK       I    between atoms: C7_15  and  N1_5 
REMARK    1  A    between atoms: N1_5  and  N2_6 
REMARK    2  A    between atoms: C3_11  and  C7_15 
ROOT
HETATM    1 Br1  UNK     1      20.905  -3.284  31.656  1.00  0.00    -0.051 Br
HETATM    2  O1  UNK     1      19.021   1.658  28.684  1.00  0.00    -0.274 OA
HETATM    3  O2  UNK     1      18.230   3.801  28.700  1.00  0.00    -0.259 OA
HETATM    4  C1  UNK     1      19.477   0.532  30.790  1.00  0.00     0.000 A 
HETATM    5  C2  UNK     1      19.454   0.525  29.400  1.00  0.00     0.089 A 
HETATM    6  C3  UNK     1      18.639   2.806  30.810  1.00  0.00     0.110 A 
HETATM    7  C4  UNK     1      19.048   1.731  31.495  1.00  0.00     0.037 A 
HETATM    8  C5  UNK     1      19.913  -0.611  31.463  1.00  0.00     0.033 A 
HETATM    9  C6  UNK     1      18.604   2.819  29.330  1.00  0.00     0.304 A 
HETATM   10  C8  UNK     1      19.853  -0.591  28.665  1.00  0.00     0.039 A 
HETATM   11  C9  UNK     1      20.316  -1.738  30.740  1.00  0.00     0.011 A 
HETATM   12  C10 UNK     1      20.286  -1.727  29.344  1.00  0.00     0.022 A 
ENDROOT
BRANCH   6  13
HETATM   13  C7  UNK     1      18.224   3.965  31.609  1.00  0.00     0.276 C 
HETATM   14  O3  UNK     1      17.520   3.826  32.607  1.00  0.00    -0.266 OA
HETATM   15  N1  UNK     1      18.711   5.156  31.104  1.00  0.00    -0.257 N 
HETATM   16  H5  UNK     1      19.311   5.233  30.289  1.00  0.00     0.191 HD
BRANCH  15  17
HETATM   17  N2  UNK     1      18.418   6.335  31.733  1.00  0.00    -0.237 N 
HETATM   18  C11 UNK     1      17.350   7.117  31.495  1.00  0.00     0.258 A 
HETATM   19  N3  UNK     1      17.404   8.159  32.293  1.00  0.00    -0.142 NA
HETATM   20  N4  UNK     1      18.544   8.034  33.062  1.00  0.00    -0.142 NA
HETATM   21  C12 UNK     1      19.141   6.920  32.704  1.00  0.00     0.258 A 
ENDBRANCH  15  17
ENDBRANCH   6  13
TORSDOF 2
ENDMDL
MODEL 2
REMARK VINA RESULT:      -7.9     13.492     15.247
REMARK  2 active torsions:
REMARK  status: ('A' for Active; 'I' for Inactive)
REMARK       I    between atoms: C7_15  and  N1_5 
REMARK    1  A    between atoms: N1_5  and  N2_6 
REMARK    2  A    between atoms: C3_11  and  C7_15 
ROOT
HETATM    1 Br1  UNK     1      19.839  -6.612  13.230  1.00  0.00    -0.051 Br
HETATM    2  O1  UNK     1      19.725  -0.585  13.918  1.00  0.00    -0.274 OA
HETATM    3  O2  UNK     1      19.355   1.257  15.218  1.00  0.00    -0.259 OA
HETATM    4  C1  UNK     1      19.400  -2.804  14.859  1.00  0.00     0.000 A 
HETATM    5  C2  UNK     1      19.742  -1.988  13.786  1.00  0.00     0.089 A 
HETATM    6  C3  UNK     1      19.009  -0.852  16.241  1.00  0.00     0.110 A 
HETATM    7  C4  UNK     1      19.023  -2.185  16.121  1.00  0.00     0.037 A 
HETATM    8  C5  UNK     1      19.431  -4.189  14.689  1.00  0.00     0.033 A 
HETATM    9  C6  UNK     1      19.368   0.035  15.112  1.00  0.00     0.304 A 
HETATM   10  C8  UNK     1      20.113  -2.516  12.551  1.00  0.00     0.039 A 
HETATM   11  C9  UNK     1      19.800  -4.735  13.456  1.00  0.00     0.011 A 
HETATM   12  C10 UNK     1      20.141  -3.900  12.390  1.00  0.00     0.022 A 
ENDROOT
BRANCH   6  13
HETATM   13  C7  UNK     1      18.614  -0.323  17.552  1.00  0.00     0.276 C 
HETATM   14  O3  UNK     1      17.495  -0.542  18.012  1.00  0.00    -0.266 OA
HETATM   15  N1  UNK     1      19.621   0.410  18.152  1.00  0.00    -0.257 N 
HETATM   16  H5  UNK     1      20.544   0.552  17.754  1.00  0.00     0.191 HD
BRANCH  15  17
HETATM   17  N2  UNK     1      19.417   0.973  19.381  1.00  0.00    -0.237 N 
HETATM   18  C11 UNK     1      18.844   2.166  19.623  1.00  0.00     0.258 A 
HETATM   19  N3  UNK     1      18.817   2.366  20.921  1.00  0.00    -0.142 NA
HETATM   20  N4  UNK     1      19.392   1.264  21.522  1.00  0.00    -0.142 NA
HETATM   21  C12 UNK     1      19.747   0.434  20.568  1.00  0.00     0.258 A 
ENDBRANCH  15  17
ENDBRANCH   6  13
TORSDOF 2
ENDMDL
MODEL 3
REMARK VINA RESULT:      -7.7      5.176      7.269
REMARK  2 active torsions:
REMARK  status: ('A' for Active; 'I' for Inactive)
REMARK       I    between atoms: C7_15  and  N1_5 
REMARK    1  A    between atoms: N1_5  and  N2_6 
REMARK    2  A    between atoms: C3_11  and  C7_15 
ROOT
HETATM    1 Br1  UNK     1      18.296   8.615  33.806  1.00  0.00    -0.051 Br
HETATM    2  O1  UNK     1      18.649   3.132  31.234  1.00  0.00    -0.274 OA
HETATM    3  O2  UNK     1      18.513   0.857  31.386  1.00  0.00    -0.259 OA
HETATM    4  C1  UNK     1      18.252   4.493  33.209  1.00  0.00     0.000 A 
HETATM    5  C2  UNK     1      18.561   4.392  31.857  1.00  0.00     0.089 A 
HETATM    6  C3  UNK     1      18.105   2.080  33.374  1.00  0.00     0.110 A 
HETATM    7  C4  UNK     1      18.021   3.275  33.971  1.00  0.00     0.037 A 
HETATM    8  C5  UNK     1      18.173   5.760  33.790  1.00  0.00     0.033 A 
HETATM    9  C6  UNK     1      18.434   1.949  31.936  1.00  0.00     0.304 A 
HETATM   10  C8  UNK     1      18.793   5.520  31.070  1.00  0.00     0.039 A 
HETATM   11  C9  UNK     1      18.403   6.901  33.015  1.00  0.00     0.011 A 
HETATM   12  C10 UNK     1      18.712   6.781  31.658  1.00  0.00     0.022 A 
ENDROOT
BRANCH   6  13
HETATM   13  C7  UNK     1      17.857   0.910  34.225  1.00  0.00     0.276 C 
HETATM   14  O3  UNK     1      16.792   0.299  34.164  1.00  0.00    -0.266 OA
HETATM   15  N1  UNK     1      18.928   0.619  35.049  1.00  0.00    -0.257 N 
HETATM   16  H5  UNK     1      19.804   1.132  35.056  1.00  0.00     0.191 HD
BRANCH  15  17
HETATM   17  N2  UNK     1      18.861  -0.444  35.907  1.00  0.00    -0.237 N 
HETATM   18  C11 UNK     1      18.235  -0.466  37.096  1.00  0.00     0.258 A 
HETATM   19  N3  UNK     1      18.382  -1.658  37.629  1.00  0.00    -0.142 NA
HETATM   20  N4  UNK     1      19.126  -2.416  36.748  1.00  0.00    -0.142 NA
HETATM   21  C12 UNK     1      19.404  -1.658  35.711  1.00  0.00     0.258 A 
ENDBRANCH  15  17
ENDBRANCH   6  13
TORSDOF 2
ENDMDL
MODEL 4
REMARK VINA RESULT:      -7.6      2.715      3.346
REMARK  2 active torsions:
REMARK  status: ('A' for Active; 'I' for Inactive)
REMARK       I    between atoms: C7_15  and  N1_5 
REMARK    1  A    between atoms: N1_5  and  N2_6 
REMARK    2  A    between atoms: C3_11  and  C7_15 
ROOT
HETATM    1 Br1  UNK     1      18.024  -0.650  37.195  1.00  0.00    -0.051 Br
HETATM    2  O1  UNK     1      18.600   1.268  31.468  1.00  0.00    -0.274 OA
HETATM    3  O2  UNK     1      18.643   2.965  29.939  1.00  0.00    -0.259 OA
HETATM    4  C1  UNK     1      18.242   1.780  33.818  1.00  0.00     0.000 A 
HETATM    5  C2  UNK     1      18.463   0.851  32.806  1.00  0.00     0.089 A 
HETATM    6  C3  UNK     1      18.288   3.581  32.199  1.00  0.00     0.110 A 
HETATM    7  C4  UNK     1      18.155   3.190  33.472  1.00  0.00     0.037 A 
HETATM    8  C5  UNK     1      18.111   1.326  35.132  1.00  0.00     0.033 A 
HETATM    9  C6  UNK     1      18.522   2.611  31.106  1.00  0.00     0.304 A 
HETATM   10  C8  UNK     1      18.556  -0.515  33.071  1.00  0.00     0.039 A 
HETATM   11  C9  UNK     1      18.203  -0.040  35.413  1.00  0.00     0.011 A 
HETATM   12  C10 UNK     1      18.425  -0.958  34.385  1.00  0.00     0.022 A 
ENDROOT
BRANCH   6  13
HETATM   13  C7  UNK     1      18.184   5.024  31.949  1.00  0.00     0.276 C 
HETATM   14  O3  UNK     1      19.035   5.613  31.284  1.00  0.00    -0.266 OA
HETATM   15  N1  UNK     1      17.064   5.583  32.534  1.00  0.00    -0.257 N 
HETATM   16  H5  UNK     1      16.367   5.061  33.057  1.00  0.00     0.191 HD
BRANCH  15  17
HETATM   17  N2  UNK     1      16.817   6.921  32.396  1.00  0.00    -0.237 N 
HETATM   18  C11 UNK     1      15.938   7.483  31.547  1.00  0.00     0.258 A 
HETATM   19  N3  UNK     1      15.976   8.787  31.703  1.00  0.00    -0.142 NA
HETATM   20  N4  UNK     1      16.909   9.060  32.683  1.00  0.00    -0.142 NA
HETATM   21  C12 UNK     1      17.405   7.913  33.088  1.00  0.00     0.258 A 
ENDBRANCH  15  17
ENDBRANCH   6  13
TORSDOF 2
ENDMDL
MODEL 5
REMARK VINA RESULT:      -7.6     14.620     17.013
REMARK  2 active torsions:
REMARK  status: ('A' for Active; 'I' for Inactive)
REMARK       I    between atoms: C7_15  and  N1_5 
REMARK    1  A    between atoms: N1_5  and  N2_6 
REMARK    2  A    between atoms: C3_11  and  C7_15 
ROOT
HETATM    1 Br1  UNK     1      19.035   2.044  21.168  1.00  0.00    -0.051 Br
HETATM    2  O1  UNK     1      19.178   0.887  15.215  1.00  0.00    -0.274 OA
HETATM    3  O2  UNK     1      19.215  -0.604  13.484  1.00  0.00    -0.259 OA
HETATM    4  C1  UNK     1      19.119   0.066  17.503  1.00  0.00     0.000 A 
HETATM    5  C2  UNK     1      19.144   1.126  16.602  1.00  0.00     0.089 A 
HETATM    6  C3  UNK     1      19.158  -1.517  15.669  1.00  0.00     0.110 A 
HETATM    7  C4  UNK     1      19.127  -1.295  16.989  1.00  0.00     0.037 A 
HETATM    8  C5  UNK     1      19.086   0.345  18.871  1.00  0.00     0.033 A 
HETATM    9  C6  UNK     1      19.187  -0.405  14.693  1.00  0.00     0.304 A 
HETATM   10  C8  UNK     1      19.138   2.453  17.029  1.00  0.00     0.039 A 
HETATM   11  C9  UNK     1      19.079   1.671  19.315  1.00  0.00     0.011 A 
HETATM   12  C10 UNK     1      19.105   2.722  18.396  1.00  0.00     0.022 A 
ENDROOT
BRANCH   6  13
HETATM   13  C7  UNK     1      19.165  -2.923  15.248  1.00  0.00     0.276 C 
HETATM   14  O3  UNK     1      18.160  -3.622  15.362  1.00  0.00    -0.266 OA
HETATM   15  N1  UNK     1      20.388  -3.316  14.739  1.00  0.00    -0.257 N 
HETATM   16  H5  UNK     1      21.192  -2.705  14.637  1.00  0.00     0.191 HD
BRANCH  15  17
HETATM   17  N2  UNK     1      20.564  -4.599  14.299  1.00  0.00    -0.237 N 
HETATM   18  C11 UNK     1      20.987  -5.641  15.037  1.00  0.00     0.258 A 
HETATM   19  N3  UNK     1      21.027  -6.710  14.274  1.00  0.00    -0.142 NA
HETATM   20  N4  UNK     1      20.616  -6.333  13.011  1.00  0.00    -0.142 NA
HETATM   21  C12 UNK     1      20.341  -5.049  13.052  1.00  0.00     0.258 A 
ENDBRANCH  15  17
ENDBRANCH   6  13
TORSDOF 2
ENDMDL
MODEL 6
REMARK VINA RESULT:      -7.6      9.176     10.905
REMARK  2 active torsions:
REMARK  status: ('A' for Active; 'I' for Inactive)
REMARK       I    between atoms: C7_15  and  N1_5 
REMARK    1  A    between atoms: N1_5  and  N2_6 
REMARK    2  A    between atoms: C3_11  and  C7_15 
ROOT
HETATM    1 Br1  UNK     1      23.743 -11.367  35.947  1.00  0.00    -0.051 Br
HETATM    2  O1  UNK     1      18.656  -8.253  37.055  1.00  0.00    -0.274 OA
HETATM    3  O2  UNK     1      17.575  -6.264  37.365  1.00  0.00    -0.259 OA
HETATM    4  C1  UNK     1      21.048  -8.263  36.617  1.00  0.00     0.000 A 
HETATM    5  C2  UNK     1      19.852  -8.950  36.797  1.00  0.00     0.089 A 
HETATM    6  C3  UNK     1      19.904  -6.152  36.945  1.00  0.00     0.110 A 
HETATM    7  C4  UNK     1      21.043  -6.810  36.700  1.00  0.00     0.037 A 
HETATM    8  C5  UNK     1      22.212  -8.990  36.362  1.00  0.00     0.033 A 
HETATM    9  C6  UNK     1      18.620  -6.863  37.141  1.00  0.00     0.304 A 
HETATM   10  C8  UNK     1      19.787 -10.341  36.729  1.00  0.00     0.039 A 
HETATM   11  C9  UNK     1      22.163 -10.386  36.292  1.00  0.00     0.011 A 
HETATM   12  C10 UNK     1      20.954 -11.059  36.474  1.00  0.00     0.022 A 
ENDROOT
BRANCH   6  13
HETATM   13  C7  UNK     1      20.001  -4.689  37.011  1.00  0.00     0.276 C 
HETATM   14  O3  UNK     1      20.860  -4.143  37.701  1.00  0.00    -0.266 OA
HETATM   15  N1  UNK     1      19.046  -4.060  36.235  1.00  0.00    -0.257 N 
HETATM   16  H5  UNK     1      18.365  -4.543  35.657  1.00  0.00     0.191 HD
BRANCH  15  17
HETATM   17  N2  UNK     1      18.998  -2.694  36.184  1.00  0.00    -0.237 N 
HETATM   18  C11 UNK     1      18.210  -1.899  36.929  1.00  0.00     0.258 A 
HETATM   19  N3  UNK     1      18.446  -0.648  36.605  1.00  0.00    -0.142 NA
HETATM   20  N4  UNK     1      19.415  -0.650  35.621  1.00  0.00    -0.142 NA
HETATM   21  C12 UNK     1      19.734  -1.903  35.384  1.00  0.00     0.258 A 
ENDBRANCH  15  17
ENDBRANCH   6  13
TORSDOF 2
ENDMDL
MODEL 7
REMARK VINA RESULT:      -7.1     22.529     24.006
REMARK  2 active torsions:
REMARK  status: ('A' for Active; 'I' for Inactive)
REMARK       I    between atoms: C7_15  and  N1_5 
REMARK    1  A    between atoms: N1_5  and  N2_6 
REMARK    2  A    between atoms: C3_11  and  C7_15 
ROOT
HETATM    1 Br1  UNK     1      16.318  12.480   7.923  1.00  0.00    -0.051 Br
HETATM    2  O1  UNK     1      15.522   6.932  10.247  1.00  0.00    -0.274 OA
HETATM    3  O2  UNK     1      14.298   5.011  10.422  1.00  0.00    -0.259 OA
HETATM    4  C1  UNK     1      14.740   8.727   8.805  1.00  0.00     0.000 A 
HETATM    5  C2  UNK     1      15.682   8.217   9.692  1.00  0.00     0.089 A 
HETATM    6  C3  UNK     1      13.440   6.691   8.988  1.00  0.00     0.110 A 
HETATM    7  C4  UNK     1      13.586   7.911   8.458  1.00  0.00     0.037 A 
HETATM    8  C5  UNK     1      14.934  10.005   8.276  1.00  0.00     0.033 A 
HETATM    9  C6  UNK     1      14.429   6.129   9.935  1.00  0.00     0.304 A 
HETATM   10  C8  UNK     1      16.810   8.947  10.065  1.00  0.00     0.039 A 
HETATM   11  C9  UNK     1      16.060  10.749   8.641  1.00  0.00     0.011 A 
HETATM   12  C10 UNK     1      16.996  10.221   9.533  1.00  0.00     0.022 A 
ENDROOT
BRANCH   6  13
HETATM   13  C7  UNK     1      12.243   5.945   8.578  1.00  0.00     0.276 C 
HETATM   14  O3  UNK     1      12.339   4.870   7.989  1.00  0.00    -0.266 OA
HETATM   15  N1  UNK     1      11.072   6.589   8.931  1.00  0.00    -0.257 N 
HETATM   16  H5  UNK     1      11.029   7.466   9.441  1.00  0.00     0.191 HD
BRANCH  15  17
HETATM   17  N2  UNK     1       9.864   6.027   8.624  1.00  0.00    -0.237 N 
HETATM   18  C11 UNK     1       9.142   5.214   9.415  1.00  0.00     0.258 A 
HETATM   19  N3  UNK     1       8.040   4.879   8.783  1.00  0.00    -0.142 NA
HETATM   20  N4  UNK     1       8.065   5.499   7.550  1.00  0.00    -0.142 NA
HETATM   21  C12 UNK     1       9.181   6.190   7.477  1.00  0.00     0.258 A 
ENDBRANCH  15  17
ENDBRANCH   6  13
TORSDOF 2
ENDMDL
MODEL 8
REMARK VINA RESULT:      -7.0      7.819      9.167
REMARK  2 active torsions:
REMARK  status: ('A' for Active; 'I' for Inactive)
REMARK       I    between atoms: C7_15  and  N1_5 
REMARK    1  A    between atoms: N1_5  and  N2_6 
REMARK    2  A    between atoms: C3_11  and  C7_15 
ROOT
HETATM    1 Br1  UNK     1      19.460 -10.391  38.527  1.00  0.00    -0.051 Br
HETATM    2  O1  UNK     1      20.505  -5.741  34.773  1.00  0.00    -0.274 OA
HETATM    3  O2  UNK     1      20.462  -3.499  34.331  1.00  0.00    -0.259 OA
HETATM    4  C1  UNK     1      19.723  -6.554  36.927  1.00  0.00     0.000 A 
HETATM    5  C2  UNK     1      20.253  -6.801  35.665  1.00  0.00     0.089 A 
HETATM    6  C3  UNK     1      19.677  -4.176  36.461  1.00  0.00     0.110 A 
HETATM    7  C4  UNK     1      19.434  -5.181  37.312  1.00  0.00     0.037 A 
HETATM    8  C5  UNK     1      19.487  -7.632  37.782  1.00  0.00     0.033 A 
HETATM    9  C6  UNK     1      20.239  -4.417  35.113  1.00  0.00     0.304 A 
HETATM   10  C8  UNK     1      20.552  -8.093  35.235  1.00  0.00     0.039 A 
HETATM   11  C9  UNK     1      19.782  -8.934  37.365  1.00  0.00     0.011 A 
HETATM   12  C10 UNK     1      20.314  -9.163  36.094  1.00  0.00     0.022 A 
ENDROOT
BRANCH   6  13
HETATM   13  C7  UNK     1      19.352  -2.827  36.940  1.00  0.00     0.276 C 
HETATM   14  O3  UNK     1      19.755  -2.429  38.031  1.00  0.00    -0.266 OA
HETATM   15  N1  UNK     1      18.576  -2.120  36.041  1.00  0.00    -0.257 N 
HETATM   16  H5  UNK     1      18.281  -2.471  35.135  1.00  0.00     0.191 HD
BRANCH  15  17
HETATM   17  N2  UNK     1      18.185  -0.842  36.333  1.00  0.00    -0.237 N 
HETATM   18  C11 UNK     1      17.165  -0.488  37.134  1.00  0.00     0.258 A 
HETATM   19  N3  UNK     1      17.097   0.823  37.177  1.00  0.00    -0.142 NA
HETATM   20  N4  UNK     1      18.108   1.316  36.376  1.00  0.00    -0.142 NA
HETATM   21  C12 UNK     1      18.754   0.287  35.876  1.00  0.00     0.258 A 
ENDBRANCH  15  17
ENDBRANCH   6  13
TORSDOF 2
ENDMDL
MODEL 9
REMARK VINA RESULT:      -7.0      7.293      9.127
REMARK  2 active torsions:
REMARK  status: ('A' for Active; 'I' for Inactive)
REMARK       I    between atoms: C7_15  and  N1_5 
REMARK    1  A    between atoms: N1_5  and  N2_6 
REMARK    2  A    between atoms: C3_11  and  C7_15 
ROOT
HETATM    1 Br1  UNK     1      20.153 -10.223  36.838  1.00  0.00    -0.051 Br
HETATM    2  O1  UNK     1      20.063  -4.343  38.330  1.00  0.00    -0.274 OA
HETATM    3  O2  UNK     1      20.061  -2.142  37.720  1.00  0.00    -0.259 OA
HETATM    4  C1  UNK     1      20.125  -6.064  36.612  1.00  0.00     0.000 A 
HETATM    5  C2  UNK     1      20.085  -5.701  37.955  1.00  0.00     0.089 A 
HETATM    6  C3  UNK     1      20.122  -3.730  35.962  1.00  0.00     0.110 A 
HETATM    7  C4  UNK     1      20.144  -5.018  35.601  1.00  0.00     0.037 A 
HETATM    8  C5  UNK     1      20.145  -7.421  36.281  1.00  0.00     0.033 A 
HETATM    9  C6  UNK     1      20.081  -3.321  37.385  1.00  0.00     0.304 A 
HETATM   10  C8  UNK     1      20.065  -6.653  38.973  1.00  0.00     0.039 A 
HETATM   11  C9  UNK     1      20.125  -8.388  37.291  1.00  0.00     0.011 A 
HETATM   12  C10 UNK     1      20.085  -8.004  38.633  1.00  0.00     0.022 A 
ENDROOT
BRANCH   6  13
HETATM   13  C7  UNK     1      20.145  -2.749  34.871  1.00  0.00     0.276 C 
HETATM   14  O3  UNK     1      21.137  -2.620  34.157  1.00  0.00    -0.266 OA
HETATM   15  N1  UNK     1      18.962  -2.040  34.773  1.00  0.00    -0.257 N 
HETATM   16  H5  UNK     1      18.151  -2.189  35.365  1.00  0.00     0.191 HD
BRANCH  15  17
HETATM   17  N2  UNK     1      18.817  -1.085  33.804  1.00  0.00    -0.237 N 
HETATM   18  C11 UNK     1      18.894  -1.283  32.476  1.00  0.00     0.258 A 
HETATM   19  N3  UNK     1      18.698  -0.135  31.867  1.00  0.00    -0.142 NA
HETATM   20  N4  UNK     1      18.491   0.821  32.841  1.00  0.00    -0.142 NA
HETATM   21  C12 UNK     1      18.568   0.221  34.007  1.00  0.00     0.258 A 
ENDBRANCH  15  17
ENDBRANCH   6  13
TORSDOF 2
ENDMDL
MODEL 10
REMARK VINA RESULT:      -7.0      9.363     11.004
REMARK  2 active torsions:
REMARK  status: ('A' for Active; 'I' for Inactive)
REMARK       I    between atoms: C7_15  and  N1_5 
REMARK    1  A    between atoms: N1_5  and  N2_6 
REMARK    2  A    between atoms: C3_11  and  C7_15 
ROOT
HETATM    1 Br1  UNK     1      19.239 -11.440  40.414  1.00  0.00    -0.051 Br
HETATM    2  O1  UNK     1      20.337  -8.111  35.462  1.00  0.00    -0.274 OA
HETATM    3  O2  UNK     1      20.591  -6.076  34.456  1.00  0.00    -0.259 OA
HETATM    4  C1  UNK     1      19.843  -8.221  37.841  1.00  0.00     0.000 A 
HETATM    5  C2  UNK     1      20.080  -8.859  36.628  1.00  0.00     0.089 A 
HETATM    6  C3  UNK     1      20.112  -6.060  36.777  1.00  0.00     0.110 A 
HETATM    7  C4  UNK     1      19.866  -6.767  37.887  1.00  0.00     0.037 A 
HETATM    8  C5  UNK     1      19.592  -8.998  38.973  1.00  0.00     0.033 A 
HETATM    9  C6  UNK     1      20.366  -6.719  35.475  1.00  0.00     0.304 A 
HETATM   10  C8  UNK     1      20.072 -10.249  36.516  1.00  0.00     0.039 A 
HETATM   11  C9  UNK     1      19.581 -10.392  38.877  1.00  0.00     0.011 A 
HETATM   12  C10 UNK     1      19.821 -11.016  37.651  1.00  0.00     0.022 A 
ENDROOT
BRANCH   6  13
HETATM   13  C7  UNK     1      20.113  -4.600  36.923  1.00  0.00     0.276 C 
HETATM   14  O3  UNK     1      20.894  -4.043  37.692  1.00  0.00    -0.266 OA
HETATM   15  N1  UNK     1      19.169  -3.987  36.121  1.00  0.00    -0.257 N 
HETATM   16  H5  UNK     1      18.555  -4.478  35.478  1.00  0.00     0.191 HD
BRANCH  15  17
HETATM   17  N2  UNK     1      19.039  -2.626  36.137  1.00  0.00    -0.237 N 
HETATM   18  C11 UNK     1      19.748  -1.752  35.401  1.00  0.00     0.258 A 
HETATM   19  N3  UNK     1      19.341  -0.535  35.683  1.00  0.00    -0.142 NA
HETATM   20  N4  UNK     1      18.342  -0.641  36.629  1.00  0.00    -0.142 NA
HETATM   21  C12 UNK     1      18.176  -1.919  36.888  1.00  0.00     0.258 A 
ENDBRANCH  15  17
ENDBRANCH   6  13
TORSDOF 2
ENDMDL
