MODEL 1
REMARK VINA RESULT:      -9.6      0.000      0.000
REMARK  2 active torsions:
REMARK  status: ('A' for Active; 'I' for Inactive)
REMARK    1  A    between atoms: C8_13  and  O3_3 
REMARK    2  A    between atoms: C15_20  and  O4_4 
ROOT
HETATM    1  O1  UNK     1      11.282   6.519   9.165  1.00  0.00    -0.306 OA
HETATM    2  O2  UNK     1      16.298   5.984   9.949  1.00  0.00    -0.275 OA
HETATM    3  O5  UNK     1      15.894   3.734   9.937  1.00  0.00    -0.260 OA
HETATM    4  C1  UNK     1      13.686   6.351   8.888  1.00  0.00     0.017 A 
HETATM    5  C2  UNK     1      12.378   6.416   8.365  1.00  0.00     0.088 A 
HETATM    6  C3  UNK     1      14.562   7.506   9.159  1.00  0.00     0.014 A 
HETATM    7  C4  UNK     1      10.589   6.480   7.015  1.00  0.00     0.003 A 
HETATM    8  C5  UNK     1      10.193   6.558   8.347  1.00  0.00     0.119 A 
HETATM    9  C6  UNK     1      12.006   6.389   7.038  1.00  0.00     0.052 A 
HETATM   10  C7  UNK     1      15.836   7.286   9.680  1.00  0.00     0.090 A 
HETATM   11  C8  UNK     1       8.868   6.661   8.764  1.00  0.00     0.102 A 
HETATM   12  C9  UNK     1      14.160   5.122   9.156  1.00  0.00     0.097 A 
HETATM   13  C10 UNK     1       9.599   6.506   6.018  1.00  0.00     0.014 A 
HETATM   14  C11 UNK     1      14.172   8.830   8.917  1.00  0.00     0.051 A 
HETATM   15  C12 UNK     1      16.714   8.334   9.961  1.00  0.00     0.041 A 
HETATM   16  C13 UNK     1       7.900   6.685   7.755  1.00  0.00     0.040 A 
HETATM   17  C14 UNK     1       8.256   6.609   6.406  1.00  0.00     0.004 A 
HETATM   18  C15 UNK     1      15.041   9.890   9.194  1.00  0.00     0.066 A 
HETATM   19  C16 UNK     1      15.504   4.874   9.707  1.00  0.00     0.289 A 
HETATM   20  C17 UNK     1      16.310   9.642   9.715  1.00  0.00     0.039 A 
ENDROOT
BRANCH  18  21
HETATM   21  O4  UNK     1      14.646  11.171   8.952  1.00  0.00    -0.361 OA
HETATM   22  H12 UNK     1      15.110  11.766   9.566  1.00  0.00     0.217 HD
ENDBRANCH  18  21
BRANCH  11  23
HETATM   23  O3  UNK     1       8.516   6.735  10.079  1.00  0.00    -0.353 OA
HETATM   24  C18 UNK     1       7.350   6.021  10.478  1.00  0.00     0.210 C 
ENDBRANCH  11  23
TORSDOF 2
ENDMDL
MODEL 2
REMARK VINA RESULT:      -9.0     24.109     26.072
REMARK  2 active torsions:
REMARK  status: ('A' for Active; 'I' for Inactive)
REMARK    1  A    between atoms: C8_13  and  O3_3 
REMARK    2  A    between atoms: C15_20  and  O4_4 
ROOT
HETATM    1  O1  UNK     1      17.167   5.784  33.353  1.00  0.00    -0.306 OA
HETATM    2  O2  UNK     1      18.348   0.995  32.039  1.00  0.00    -0.275 OA
HETATM    3  O5  UNK     1      18.292   1.746  29.880  1.00  0.00    -0.260 OA
HETATM    4  C1  UNK     1      18.335   3.712  32.874  1.00  0.00     0.017 A 
HETATM    5  C2  UNK     1      18.325   5.090  33.174  1.00  0.00     0.088 A 
HETATM    6  C3  UNK     1      18.369   2.618  33.861  1.00  0.00     0.014 A 
HETATM    7  C4  UNK     1      18.899   7.211  33.622  1.00  0.00     0.003 A 
HETATM    8  C5  UNK     1      17.514   7.074  33.625  1.00  0.00     0.119 A 
HETATM    9  C6  UNK     1      19.414   5.920  33.329  1.00  0.00     0.052 A 
HETATM   10  C7  UNK     1      18.375   1.298  33.413  1.00  0.00     0.090 A 
HETATM   11  C8  UNK     1      16.626   8.118  33.873  1.00  0.00     0.102 A 
HETATM   12  C9  UNK     1      18.311   3.387  31.570  1.00  0.00     0.097 A 
HETATM   13  C10 UNK     1      19.449   8.478  33.885  1.00  0.00     0.014 A 
HETATM   14  C11 UNK     1      18.397   2.841  35.244  1.00  0.00     0.051 A 
HETATM   15  C12 UNK     1      18.406   0.215  34.293  1.00  0.00     0.041 A 
HETATM   16  C13 UNK     1      17.195   9.369  34.132  1.00  0.00     0.040 A 
HETATM   17  C14 UNK     1      18.580   9.548  34.138  1.00  0.00     0.004 A 
HETATM   18  C15 UNK     1      18.428   1.767  36.138  1.00  0.00     0.066 A 
HETATM   19  C16 UNK     1      18.316   1.997  31.081  1.00  0.00     0.289 A 
HETATM   20  C17 UNK     1      18.433   0.456  35.664  1.00  0.00     0.039 A 
ENDROOT
BRANCH  18  21
HETATM   21  O4  UNK     1      18.456   2.002  37.480  1.00  0.00    -0.361 OA
HETATM   22  H12 UNK     1      18.421   2.962  37.632  1.00  0.00     0.217 HD
ENDBRANCH  18  21
BRANCH  11  23
HETATM   23  O3  UNK     1      15.273   7.947  33.868  1.00  0.00    -0.353 OA
HETATM   24  C18 UNK     1      14.477   9.075  34.220  1.00  0.00     0.210 C 
ENDBRANCH  11  23
TORSDOF 2
ENDMDL
MODEL 3
REMARK VINA RESULT:      -8.9     22.913     24.823
REMARK  2 active torsions:
REMARK  status: ('A' for Active; 'I' for Inactive)
REMARK    1  A    between atoms: C8_13  and  O3_3 
REMARK    2  A    between atoms: C15_20  and  O4_4 
ROOT
HETATM    1  O1  UNK     1      18.163   4.185  32.886  1.00  0.00    -0.306 OA
HETATM    2  O2  UNK     1      17.987   9.149  34.066  1.00  0.00    -0.275 OA
HETATM    3  O5  UNK     1      20.216   8.948  34.537  1.00  0.00    -0.260 OA
HETATM    4  C1  UNK     1      18.135   6.609  32.796  1.00  0.00     0.017 A 
HETATM    5  C2  UNK     1      18.323   5.347  32.196  1.00  0.00     0.088 A 
HETATM    6  C3  UNK     1      16.864   7.354  32.853  1.00  0.00     0.014 A 
HETATM    7  C4  UNK     1      18.742   3.675  30.762  1.00  0.00     0.003 A 
HETATM    8  C5  UNK     1      18.417   3.167  32.017  1.00  0.00     0.119 A 
HETATM    9  C6  UNK     1      18.678   5.088  30.890  1.00  0.00     0.052 A 
HETATM   10  C7  UNK     1      16.831   8.596  33.484  1.00  0.00     0.090 A 
HETATM   11  C8  UNK     1      18.365   1.808  32.320  1.00  0.00     0.102 A 
HETATM   12  C9  UNK     1      19.220   7.167  33.362  1.00  0.00     0.097 A 
HETATM   13  C10 UNK     1      19.038   2.770  29.728  1.00  0.00     0.014 A 
HETATM   14  C11 UNK     1      15.673   6.869  32.296  1.00  0.00     0.051 A 
HETATM   15  C12 UNK     1      15.661   9.353  33.573  1.00  0.00     0.041 A 
HETATM   16  C13 UNK     1      18.663   0.927  31.276  1.00  0.00     0.040 A 
HETATM   17  C14 UNK     1      18.994   1.397  30.003  1.00  0.00     0.004 A 
HETATM   18  C15 UNK     1      14.493   7.616  32.378  1.00  0.00     0.066 A 
HETATM   19  C16 UNK     1      19.201   8.479  34.033  1.00  0.00     0.289 A 
HETATM   20  C17 UNK     1      14.488   8.856  33.016  1.00  0.00     0.039 A 
ENDROOT
BRANCH  18  21
HETATM   21  O4  UNK     1      13.345   7.129  31.831  1.00  0.00    -0.361 OA
HETATM   22  H12 UNK     1      13.374   6.157  31.848  1.00  0.00     0.217 HD
ENDBRANCH  18  21
BRANCH  11  23
HETATM   23  O3  UNK     1      18.043   1.346  33.562  1.00  0.00    -0.353 OA
HETATM   24  C18 UNK     1      18.321  -0.024  33.834  1.00  0.00     0.210 C 
ENDBRANCH  11  23
TORSDOF 2
ENDMDL
MODEL 4
REMARK VINA RESULT:      -8.7      2.760      8.260
REMARK  2 active torsions:
REMARK  status: ('A' for Active; 'I' for Inactive)
REMARK    1  A    between atoms: C8_13  and  O3_3 
REMARK    2  A    between atoms: C15_20  and  O4_4 
ROOT
HETATM    1  O1  UNK     1       9.496   5.749   9.645  1.00  0.00    -0.306 OA
HETATM    2  O2  UNK     1       5.122   6.263  12.225  1.00  0.00    -0.275 OA
HETATM    3  O5  UNK     1       5.724   8.453  12.488  1.00  0.00    -0.260 OA
HETATM    4  C1  UNK     1       7.170   6.044  10.265  1.00  0.00     0.017 A 
HETATM    5  C2  UNK     1       8.211   6.050   9.314  1.00  0.00     0.088 A 
HETATM    6  C3  UNK     1       6.326   4.886  10.610  1.00  0.00     0.014 A 
HETATM    7  C4  UNK     1       9.422   6.213   7.434  1.00  0.00     0.003 A 
HETATM    8  C5  UNK     1      10.235   5.848   8.504  1.00  0.00     0.119 A 
HETATM    9  C6  UNK     1       8.113   6.342   7.971  1.00  0.00     0.052 A 
HETATM   10  C7  UNK     1       5.332   5.032  11.576  1.00  0.00     0.090 A 
HETATM   11  C8  UNK     1      11.606   5.620   8.401  1.00  0.00     0.102 A 
HETATM   12  C9  UNK     1       6.942   7.205  10.905  1.00  0.00     0.097 A 
HETATM   13  C10 UNK     1      10.010   6.366   6.166  1.00  0.00     0.014 A 
HETATM   14  C11 UNK     1       6.474   3.630  10.006  1.00  0.00     0.051 A 
HETATM   15  C12 UNK     1       4.498   3.976  11.949  1.00  0.00     0.041 A 
HETATM   16  C13 UNK     1      12.168   5.777   7.131  1.00  0.00     0.040 A 
HETATM   17  C14 UNK     1      11.387   6.143   6.032  1.00  0.00     0.004 A 
HETATM   18  C15 UNK     1       5.648   2.563  10.370  1.00  0.00     0.066 A 
HETATM   19  C16 UNK     1       5.896   7.374  11.929  1.00  0.00     0.289 A 
HETATM   20  C17 UNK     1       4.661   2.736  11.340  1.00  0.00     0.039 A 
ENDROOT
BRANCH  18  21
HETATM   21  O4  UNK     1       5.806   1.349   9.772  1.00  0.00    -0.361 OA
HETATM   22  H12 UNK     1       5.158   0.727  10.146  1.00  0.00     0.217 HD
ENDBRANCH  18  21
BRANCH  11  23
HETATM   23  O3  UNK     1      12.371   5.262   9.471  1.00  0.00    -0.353 OA
HETATM   24  C18 UNK     1      13.777   5.464   9.357  1.00  0.00     0.210 C 
ENDBRANCH  11  23
TORSDOF 2
ENDMDL
MODEL 5
REMARK VINA RESULT:      -8.7     24.431     26.570
REMARK  2 active torsions:
REMARK  status: ('A' for Active; 'I' for Inactive)
REMARK    1  A    between atoms: C8_13  and  O3_3 
REMARK    2  A    between atoms: C15_20  and  O4_4 
ROOT
HETATM    1  O1  UNK     1      19.094   0.195  34.658  1.00  0.00    -0.306 OA
HETATM    2  O2  UNK     1      21.037  -2.610  30.861  1.00  0.00    -0.275 OA
HETATM    3  O5  UNK     1      21.409  -4.210  32.451  1.00  0.00    -0.260 OA
HETATM    4  C1  UNK     1      19.383  -1.270  32.746  1.00  0.00     0.017 A 
HETATM    5  C2  UNK     1      18.589  -0.692  33.757  1.00  0.00     0.088 A 
HETATM    6  C3  UNK     1      19.590  -0.719  31.395  1.00  0.00     0.014 A 
HETATM    7  C4  UNK     1      16.901  -0.108  35.113  1.00  0.00     0.003 A 
HETATM    8  C5  UNK     1      18.070   0.551  35.484  1.00  0.00     0.119 A 
HETATM    9  C6  UNK     1      17.249  -0.910  33.995  1.00  0.00     0.052 A 
HETATM   10  C7  UNK     1      20.408  -1.404  30.498  1.00  0.00     0.090 A 
HETATM   11  C8  UNK     1      18.160   1.445  36.549  1.00  0.00     0.102 A 
HETATM   12  C9  UNK     1      19.999  -2.424  33.059  1.00  0.00     0.097 A 
HETATM   13  C10 UNK     1      15.731   0.135  35.854  1.00  0.00     0.014 A 
HETATM   14  C11 UNK     1      18.998   0.475  30.962  1.00  0.00     0.051 A 
HETATM   15  C12 UNK     1      20.646  -0.937  29.205  1.00  0.00     0.041 A 
HETATM   16  C13 UNK     1      16.984   1.671  37.271  1.00  0.00     0.040 A 
HETATM   17  C14 UNK     1      15.790   1.029  36.931  1.00  0.00     0.004 A 
HETATM   18  C15 UNK     1      19.228   0.956  29.669  1.00  0.00     0.066 A 
HETATM   19  C16 UNK     1      20.866  -3.160  32.122  1.00  0.00     0.289 A 
HETATM   20  C17 UNK     1      20.051   0.251  28.791  1.00  0.00     0.039 A 
ENDROOT
BRANCH  18  21
HETATM   21  O4  UNK     1      18.644   2.118  29.264  1.00  0.00    -0.361 OA
HETATM   22  H12 UNK     1      18.118   2.479  29.999  1.00  0.00     0.217 HD
ENDBRANCH  18  21
BRANCH  11  23
HETATM   23  O3  UNK     1      19.323   2.073  36.883  1.00  0.00    -0.353 OA
HETATM   24  C18 UNK     1      19.747   3.140  36.039  1.00  0.00     0.210 C 
ENDBRANCH  11  23
TORSDOF 2
ENDMDL
MODEL 6
REMARK VINA RESULT:      -8.6     28.331     30.717
REMARK  2 active torsions:
REMARK  status: ('A' for Active; 'I' for Inactive)
REMARK    1  A    between atoms: C8_13  and  O3_3 
REMARK    2  A    between atoms: C15_20  and  O4_4 
ROOT
HETATM    1  O1  UNK     1      19.591  -2.596  35.578  1.00  0.00    -0.306 OA
HETATM    2  O2  UNK     1      21.561  -6.740  37.815  1.00  0.00    -0.275 OA
HETATM    3  O5  UNK     1      23.173  -5.336  38.626  1.00  0.00    -0.260 OA
HETATM    4  C1  UNK     1      20.066  -4.434  37.089  1.00  0.00     0.017 A 
HETATM    5  C2  UNK     1      19.413  -3.225  36.772  1.00  0.00     0.088 A 
HETATM    6  C3  UNK     1      19.547  -5.787  36.821  1.00  0.00     0.014 A 
HETATM    7  C4  UNK     1      18.147  -1.374  36.815  1.00  0.00     0.003 A 
HETATM    8  C5  UNK     1      18.823  -1.471  35.602  1.00  0.00     0.119 A 
HETATM    9  C6  UNK     1      18.537  -2.515  37.565  1.00  0.00     0.052 A 
HETATM   10  C7  UNK     1      20.309  -6.894  37.192  1.00  0.00     0.090 A 
HETATM   11  C8  UNK     1      18.715  -0.539  34.571  1.00  0.00     0.102 A 
HETATM   12  C9  UNK     1      21.265  -4.323  37.687  1.00  0.00     0.097 A 
HETATM   13  C10 UNK     1      17.300  -0.272  37.026  1.00  0.00     0.014 A 
HETATM   14  C11 UNK     1      18.310  -6.019  36.205  1.00  0.00     0.051 A 
HETATM   15  C12 UNK     1      19.877  -8.202  36.966  1.00  0.00     0.041 A 
HETATM   16  C13 UNK     1      17.867   0.548  34.803  1.00  0.00     0.040 A 
HETATM   17  C14 UNK     1      17.172   0.682  36.007  1.00  0.00     0.004 A 
HETATM   18  C15 UNK     1      17.864  -7.324  35.972  1.00  0.00     0.066 A 
HETATM   19  C16 UNK     1      22.082  -5.484  38.084  1.00  0.00     0.289 A 
HETATM   20  C17 UNK     1      18.646  -8.414  36.353  1.00  0.00     0.039 A 
ENDROOT
BRANCH  18  21
HETATM   21  O4  UNK     1      16.659  -7.531  35.372  1.00  0.00    -0.361 OA
HETATM   22  H12 UNK     1      16.180  -6.686  35.326  1.00  0.00     0.217 HD
ENDBRANCH  18  21
BRANCH  11  23
HETATM   23  O3  UNK     1      19.392  -0.666  33.395  1.00  0.00    -0.353 OA
HETATM   24  C18 UNK     1      18.724  -1.343  32.334  1.00  0.00     0.210 C 
ENDBRANCH  11  23
TORSDOF 2
ENDMDL
MODEL 7
REMARK VINA RESULT:      -8.1     27.574     29.858
REMARK  2 active torsions:
REMARK  status: ('A' for Active; 'I' for Inactive)
REMARK    1  A    between atoms: C8_13  and  O3_3 
REMARK    2  A    between atoms: C15_20  and  O4_4 
ROOT
HETATM    1  O1  UNK     1      18.158  -3.812  36.596  1.00  0.00    -0.306 OA
HETATM    2  O2  UNK     1      17.884   1.276  36.288  1.00  0.00    -0.275 OA
HETATM    3  O5  UNK     1      17.604   1.235  38.556  1.00  0.00    -0.260 OA
HETATM    4  C1  UNK     1      18.682  -1.448  36.443  1.00  0.00     0.017 A 
HETATM    5  C2  UNK     1      19.060  -2.793  36.637  1.00  0.00     0.088 A 
HETATM    6  C3  UNK     1      18.638  -0.746  35.148  1.00  0.00     0.014 A 
HETATM    7  C4  UNK     1      20.201  -4.688  37.005  1.00  0.00     0.003 A 
HETATM    8  C5  UNK     1      18.850  -4.965  36.820  1.00  0.00     0.119 A 
HETATM    9  C6  UNK     1      20.325  -3.278  36.885  1.00  0.00     0.052 A 
HETATM   10  C7  UNK     1      18.241   0.590  35.112  1.00  0.00     0.090 A 
HETATM   11  C8  UNK     1      18.302  -6.245  36.861  1.00  0.00     0.102 A 
HETATM   12  C9  UNK     1      18.335  -0.763  37.546  1.00  0.00     0.097 A 
HETATM   13  C10 UNK     1      21.079  -5.758  37.251  1.00  0.00     0.014 A 
HETATM   14  C11 UNK     1      18.979  -1.362  33.936  1.00  0.00     0.051 A 
HETATM   15  C12 UNK     1      18.177   1.313  33.920  1.00  0.00     0.041 A 
HETATM   16  C13 UNK     1      19.193  -7.295  37.106  1.00  0.00     0.040 A 
HETATM   17  C14 UNK     1      20.557  -7.058  37.298  1.00  0.00     0.004 A 
HETATM   18  C15 UNK     1      18.918  -0.650  32.734  1.00  0.00     0.066 A 
HETATM   19  C16 UNK     1      17.913   0.649  37.524  1.00  0.00     0.289 A 
HETATM   20  C17 UNK     1      18.518   0.686  32.726  1.00  0.00     0.039 A 
ENDROOT
BRANCH  18  21
HETATM   21  O4  UNK     1      19.254  -1.264  31.566  1.00  0.00    -0.361 OA
HETATM   22  H12 UNK     1      20.088  -1.749  31.693  1.00  0.00     0.217 HD
ENDBRANCH  18  21
BRANCH  11  23
HETATM   23  O3  UNK     1      16.972  -6.480  36.674  1.00  0.00    -0.353 OA
HETATM   24  C18 UNK     1      16.592  -7.118  35.459  1.00  0.00     0.210 C 
ENDBRANCH  11  23
TORSDOF 2
ENDMDL
MODEL 8
REMARK VINA RESULT:      -7.9     32.576     35.232
REMARK  2 active torsions:
REMARK  status: ('A' for Active; 'I' for Inactive)
REMARK    1  A    between atoms: C8_13  and  O3_3 
REMARK    2  A    between atoms: C15_20  and  O4_4 
ROOT
HETATM    1  O1  UNK     1      22.991  -7.692  37.461  1.00  0.00    -0.306 OA
HETATM    2  O2  UNK     1      27.645  -6.232  38.964  1.00  0.00    -0.275 OA
HETATM    3  O5  UNK     1      26.832  -4.098  38.857  1.00  0.00    -0.260 OA
HETATM    4  C1  UNK     1      24.963  -7.151  38.767  1.00  0.00     0.017 A 
HETATM    5  C2  UNK     1      23.599  -7.494  38.662  1.00  0.00     0.088 A 
HETATM    6  C3  UNK     1      26.082  -8.104  38.875  1.00  0.00     0.014 A 
HETATM    7  C4  UNK     1      21.459  -8.009  39.092  1.00  0.00     0.003 A 
HETATM    8  C5  UNK     1      21.690  -8.005  37.719  1.00  0.00     0.119 A 
HETATM    9  C6  UNK     1      22.702  -7.677  39.693  1.00  0.00     0.052 A 
HETATM   10  C7  UNK     1      27.384  -7.615  38.970  1.00  0.00     0.090 A 
HETATM   11  C8  UNK     1      20.717  -8.284  36.762  1.00  0.00     0.102 A 
HETATM   12  C9  UNK     1      25.248  -5.838  38.764  1.00  0.00     0.097 A 
HETATM   13  C10 UNK     1      20.167  -8.313  39.554  1.00  0.00     0.014 A 
HETATM   14  C11 UNK     1      25.901  -9.493  38.888  1.00  0.00     0.051 A 
HETATM   15  C12 UNK     1      28.489  -8.461  39.075  1.00  0.00     0.041 A 
HETATM   16  C13 UNK     1      19.439  -8.583  37.245  1.00  0.00     0.040 A 
HETATM   17  C14 UNK     1      19.166  -8.598  38.615  1.00  0.00     0.004 A 
HETATM   18  C15 UNK     1      26.999 -10.354  38.991  1.00  0.00     0.066 A 
HETATM   19  C16 UNK     1      26.619  -5.306  38.864  1.00  0.00     0.289 A 
HETATM   20  C17 UNK     1      28.291  -9.838  39.085  1.00  0.00     0.039 A 
ENDROOT
BRANCH  18  21
HETATM   21  O4  UNK     1      26.804 -11.702  39.003  1.00  0.00    -0.361 OA
HETATM   22  H12 UNK     1      27.301 -12.086  39.746  1.00  0.00     0.217 HD
ENDBRANCH  18  21
BRANCH  11  23
HETATM   23  O3  UNK     1      20.979  -8.271  35.424  1.00  0.00    -0.353 OA
HETATM   24  C18 UNK     1      20.394  -7.219  34.661  1.00  0.00     0.210 C 
ENDBRANCH  11  23
TORSDOF 2
ENDMDL
MODEL 9
REMARK VINA RESULT:      -7.9      1.840      2.568
REMARK  2 active torsions:
REMARK  status: ('A' for Active; 'I' for Inactive)
REMARK    1  A    between atoms: C8_13  and  O3_3 
REMARK    2  A    between atoms: C15_20  and  O4_4 
ROOT
HETATM    1  O1  UNK     1      12.634   8.078   9.158  1.00  0.00    -0.306 OA
HETATM    2  O2  UNK     1      17.552   9.082  10.084  1.00  0.00    -0.275 OA
HETATM    3  O5  UNK     1      17.629   7.004  11.036  1.00  0.00    -0.260 OA
HETATM    4  C1  UNK     1      15.035   8.365   8.973  1.00  0.00     0.017 A 
HETATM    5  C2  UNK     1      13.798   7.905   8.476  1.00  0.00     0.088 A 
HETATM    6  C3  UNK     1      15.621   9.694   8.723  1.00  0.00     0.014 A 
HETATM    7  C4  UNK     1      12.173   6.989   7.233  1.00  0.00     0.003 A 
HETATM    8  C5  UNK     1      11.644   7.522   8.405  1.00  0.00     0.119 A 
HETATM    9  C6  UNK     1      13.569   7.243   7.290  1.00  0.00     0.052 A 
HETATM   10  C7  UNK     1      16.857  10.009   9.285  1.00  0.00     0.090 A 
HETATM   11  C8  UNK     1      10.292   7.483   8.741  1.00  0.00     0.102 A 
HETATM   12  C9  UNK     1      15.726   7.504   9.740  1.00  0.00     0.097 A 
HETATM   13  C10 UNK     1      11.298   6.370   6.322  1.00  0.00     0.014 A 
HETATM   14  C11 UNK     1      14.989  10.669   7.939  1.00  0.00     0.051 A 
HETATM   15  C12 UNK     1      17.468  11.249   9.089  1.00  0.00     0.041 A 
HETATM   16  C13 UNK     1       9.441   6.862   7.821  1.00  0.00     0.040 A 
HETATM   17  C14 UNK     1       9.933   6.315   6.633  1.00  0.00     0.004 A 
HETATM   18  C15 UNK     1      15.588  11.916   7.735  1.00  0.00     0.066 A 
HETATM   19  C16 UNK     1      17.034   7.822  10.341  1.00  0.00     0.289 A 
HETATM   20  C17 UNK     1      16.826  12.205   8.308  1.00  0.00     0.039 A 
ENDROOT
BRANCH  18  21
HETATM   21  O4  UNK     1      14.960  12.852   6.969  1.00  0.00    -0.361 OA
HETATM   22  H12 UNK     1      13.999  12.721   7.037  1.00  0.00     0.217 HD
ENDBRANCH  18  21
BRANCH  11  23
HETATM   23  O3  UNK     1       9.809   8.015   9.899  1.00  0.00    -0.353 OA
HETATM   24  C18 UNK     1       9.437   9.390   9.872  1.00  0.00     0.210 C 
ENDBRANCH  11  23
TORSDOF 2
ENDMDL
MODEL 10
REMARK VINA RESULT:      -7.9     30.941     34.140
REMARK  2 active torsions:
REMARK  status: ('A' for Active; 'I' for Inactive)
REMARK    1  A    between atoms: C8_13  and  O3_3 
REMARK    2  A    between atoms: C15_20  and  O4_4 
ROOT
HETATM    1  O1  UNK     1      29.157  -8.078  33.647  1.00  0.00    -0.306 OA
HETATM    2  O2  UNK     1      30.047  -5.913  38.183  1.00  0.00    -0.275 OA
HETATM    3  O5  UNK     1      31.707  -4.754  37.122  1.00  0.00    -0.260 OA
HETATM    4  C1  UNK     1      29.078  -6.668  35.619  1.00  0.00     0.017 A 
HETATM    5  C2  UNK     1      28.687  -6.981  34.301  1.00  0.00     0.088 A 
HETATM    6  C3  UNK     1      28.401  -7.122  36.847  1.00  0.00     0.014 A 
HETATM    7  C4  UNK     1      27.744  -6.980  32.267  1.00  0.00     0.003 A 
HETATM    8  C5  UNK     1      28.585  -8.080  32.410  1.00  0.00     0.119 A 
HETATM    9  C6  UNK     1      27.818  -6.275  33.497  1.00  0.00     0.052 A 
HETATM   10  C7  UNK     1      28.905  -6.731  38.086  1.00  0.00     0.090 A 
HETATM   11  C8  UNK     1      28.798  -9.035  31.418  1.00  0.00     0.102 A 
HETATM   12  C9  UNK     1      30.165  -5.887  35.748  1.00  0.00     0.097 A 
HETATM   13  C10 UNK     1      27.061  -6.811  31.049  1.00  0.00     0.014 A 
HETATM   14  C11 UNK     1      27.261  -7.936  36.830  1.00  0.00     0.051 A 
HETATM   15  C12 UNK     1      28.313  -7.126  39.287  1.00  0.00     0.041 A 
HETATM   16  C13 UNK     1      28.108  -8.847  30.216  1.00  0.00     0.040 A 
HETATM   17  C14 UNK     1      27.255  -7.756  30.033  1.00  0.00     0.004 A 
HETATM   18  C15 UNK     1      26.657  -8.340  38.025  1.00  0.00     0.066 A 
HETATM   19  C16 UNK     1      30.711  -5.466  37.051  1.00  0.00     0.289 A 
HETATM   20  C17 UNK     1      27.182  -7.935  39.252  1.00  0.00     0.039 A 
ENDROOT
BRANCH  18  21
HETATM   21  O4  UNK     1      25.548  -9.132  37.990  1.00  0.00    -0.361 OA
HETATM   22  H12 UNK     1      25.798 -10.009  37.651  1.00  0.00     0.217 HD
ENDBRANCH  18  21
BRANCH  11  23
HETATM   23  O3  UNK     1      29.630 -10.101  31.594  1.00  0.00    -0.353 OA
HETATM   24  C18 UNK     1      30.301 -10.595  30.438  1.00  0.00     0.210 C 
ENDBRANCH  11  23
TORSDOF 2
ENDMDL
