MODEL 1
REMARK VINA RESULT:     -10.2      0.000      0.000
REMARK  3 active torsions:
REMARK  status: ('A' for Active; 'I' for Inactive)
REMARK    1  A    between atoms: C1_8  and  N1_6 
REMARK       I    between atoms: C8_15  and  N1_6 
REMARK    2  A    between atoms: C4_11  and  N2_7 
REMARK    3  A    between atoms: C3_10  and  C8_15 
ROOT
HETATM    1  O2  UNK     1      21.384  -4.554  37.084  1.00  0.00    -0.267 OA
HETATM    2  N1  UNK     1      19.132  -5.241  37.022  1.00  0.00    -0.321 N 
HETATM    3  C8  UNK     1      20.187  -4.350  36.884  1.00  0.00     0.262 C 
HETATM    4  H2  UNK     1      18.212  -4.872  36.805  1.00  0.00     0.169 HD
ENDROOT
BRANCH   3   5
HETATM    5  C3  UNK     1      19.739  -3.023  36.442  1.00  0.00     0.108 A 
HETATM    6  C13 UNK     1      20.047  -2.500  35.092  1.00  0.00     0.304 A 
HETATM    7  O1  UNK     1      19.567  -1.228  34.790  1.00  0.00    -0.274 OA
HETATM    8  O3  UNK     1      20.693  -3.149  34.277  1.00  0.00    -0.259 OA
HETATM    9  C5  UNK     1      18.825  -0.474  35.720  1.00  0.00     0.089 A 
HETATM   10  C14 UNK     1      18.385   0.789  35.326  1.00  0.00     0.038 A 
HETATM   11  C2  UNK     1      18.545  -0.985  36.984  1.00  0.00    -0.001 A 
HETATM   12  C17 UNK     1      17.649   1.558  36.224  1.00  0.00     0.003 A 
HETATM   13  C16 UNK     1      17.360   1.062  37.497  1.00  0.00     0.001 A 
HETATM   14  C12 UNK     1      17.806  -0.207  37.878  1.00  0.00     0.014 A 
HETATM   15  C6  UNK     1      19.034  -2.311  37.329  1.00  0.00     0.037 A 
ENDBRANCH   3   5
BRANCH   2  16
HETATM   16  C1  UNK     1      19.192  -6.596  37.426  1.00  0.00     0.068 A 
HETATM   17  C4  UNK     1      18.877  -7.611  36.537  1.00  0.00     0.130 A 
HETATM   18  C10 UNK     1      18.947  -8.939  36.962  1.00  0.00     0.045 A 
HETATM   19  C7  UNK     1      19.331  -9.233  38.270  1.00  0.00    -0.059 A 
HETATM   20  C11 UNK     1      19.646  -8.200  39.153  1.00  0.00     0.009 A 
HETATM   21  C15 UNK     1      19.404 -10.652  38.724  1.00  0.00     0.048 C 
HETATM   22  C9  UNK     1      19.575  -6.873  38.729  1.00  0.00     0.032 A 
BRANCH  17  23
HETATM   23  N2  UNK     1      18.482  -7.339  35.197  1.00  0.00    -0.113 N 
HETATM   24  O4  UNK     1      17.279  -7.488  34.879  1.00  0.00    -0.532 OA
HETATM   25  O5  UNK     1      19.350  -6.957  34.377  1.00  0.00    -0.532 OA
ENDBRANCH  17  23
ENDBRANCH   2  16
TORSDOF 3
ENDMDL
MODEL 2
REMARK VINA RESULT:      -9.8     19.836     22.221
REMARK  3 active torsions:
REMARK  status: ('A' for Active; 'I' for Inactive)
REMARK    1  A    between atoms: C1_8  and  N1_6 
REMARK       I    between atoms: C8_15  and  N1_6 
REMARK    2  A    between atoms: C4_11  and  N2_7 
REMARK    3  A    between atoms: C3_10  and  C8_15 
ROOT
HETATM    1  O2  UNK     1      17.140  -2.038  16.776  1.00  0.00    -0.267 OA
HETATM    2  N1  UNK     1      19.136  -0.813  16.524  1.00  0.00    -0.321 N 
HETATM    3  C8  UNK     1      18.165  -1.737  16.165  1.00  0.00     0.262 C 
HETATM    4  H2  UNK     1      19.909  -0.711  15.876  1.00  0.00     0.169 HD
ENDROOT
BRANCH   3   5
HETATM    5  C3  UNK     1      18.468  -2.392  14.886  1.00  0.00     0.108 A 
HETATM    6  C13 UNK     1      18.930  -1.631  13.704  1.00  0.00     0.304 A 
HETATM    7  O1  UNK     1      19.185  -2.365  12.549  1.00  0.00    -0.274 OA
HETATM    8  O3  UNK     1      19.081  -0.415  13.735  1.00  0.00    -0.259 OA
HETATM    9  C5  UNK     1      19.014  -3.763  12.503  1.00  0.00     0.089 A 
HETATM   10  C14 UNK     1      19.296  -4.411  11.302  1.00  0.00     0.038 A 
HETATM   11  C2  UNK     1      18.580  -4.460  13.627  1.00  0.00    -0.001 A 
HETATM   12  C17 UNK     1      19.137  -5.793  11.227  1.00  0.00     0.003 A 
HETATM   13  C16 UNK     1      18.701  -6.508  12.344  1.00  0.00     0.001 A 
HETATM   14  C12 UNK     1      18.422  -5.844  13.542  1.00  0.00     0.014 A 
HETATM   15  C6  UNK     1      18.304  -3.720  14.849  1.00  0.00     0.037 A 
ENDBRANCH   3   5
BRANCH   2  16
HETATM   16  C1  UNK     1      19.170  -0.001  17.683  1.00  0.00     0.068 A 
HETATM   17  C4  UNK     1      19.226   1.379  17.575  1.00  0.00     0.130 A 
HETATM   18  C10 UNK     1      19.256   2.156  18.735  1.00  0.00     0.045 A 
HETATM   19  C7  UNK     1      19.231   1.540  19.987  1.00  0.00    -0.059 A 
HETATM   20  C11 UNK     1      19.174   0.150  20.079  1.00  0.00     0.009 A 
HETATM   21  C15 UNK     1      19.265   2.370  21.226  1.00  0.00     0.048 C 
HETATM   22  C9  UNK     1      19.144  -0.626  18.920  1.00  0.00     0.032 A 
BRANCH  17  23
HETATM   23  N2  UNK     1      19.253   2.032  16.311  1.00  0.00    -0.113 N 
HETATM   24  O4  UNK     1      18.490   3.006  16.117  1.00  0.00    -0.532 OA
HETATM   25  O5  UNK     1      20.041   1.613  15.431  1.00  0.00    -0.532 OA
ENDBRANCH  17  23
ENDBRANCH   2  16
TORSDOF 3
ENDMDL
MODEL 3
REMARK VINA RESULT:      -9.8     19.916     22.274
REMARK  3 active torsions:
REMARK  status: ('A' for Active; 'I' for Inactive)
REMARK    1  A    between atoms: C1_8  and  N1_6 
REMARK       I    between atoms: C8_15  and  N1_6 
REMARK    2  A    between atoms: C4_11  and  N2_7 
REMARK    3  A    between atoms: C3_10  and  C8_15 
ROOT
HETATM    1  O2  UNK     1      17.064  -2.016  16.792  1.00  0.00    -0.267 OA
HETATM    2  N1  UNK     1      19.124  -0.896  16.573  1.00  0.00    -0.321 N 
HETATM    3  C8  UNK     1      18.120  -1.781  16.206  1.00  0.00     0.262 C 
HETATM    4  H2  UNK     1      19.921  -0.849  15.947  1.00  0.00     0.169 HD
ENDROOT
BRANCH   3   5
HETATM    5  C3  UNK     1      18.431  -2.485  14.955  1.00  0.00     0.108 A 
HETATM    6  C13 UNK     1      18.064  -3.903  14.740  1.00  0.00     0.304 A 
HETATM    7  O1  UNK     1      18.413  -4.458  13.511  1.00  0.00    -0.274 OA
HETATM    8  O3  UNK     1      17.484  -4.559  15.597  1.00  0.00    -0.259 OA
HETATM    9  C5  UNK     1      19.080  -3.712  12.521  1.00  0.00     0.089 A 
HETATM   10  C14 UNK     1      19.386  -4.354  11.322  1.00  0.00     0.038 A 
HETATM   11  C2  UNK     1      19.415  -2.380  12.743  1.00  0.00    -0.001 A 
HETATM   12  C17 UNK     1      20.045  -3.642  10.323  1.00  0.00     0.003 A 
HETATM   13  C16 UNK     1      20.390  -2.305  10.529  1.00  0.00     0.001 A 
HETATM   14  C12 UNK     1      20.076  -1.673  11.736  1.00  0.00     0.014 A 
HETATM   15  C6  UNK     1      19.065  -1.771  14.017  1.00  0.00     0.037 A 
ENDBRANCH   3   5
BRANCH   2  16
HETATM   16  C1  UNK     1      19.162  -0.055  17.711  1.00  0.00     0.068 A 
HETATM   17  C4  UNK     1      19.207   1.322  17.569  1.00  0.00     0.130 A 
HETATM   18  C10 UNK     1      19.242   2.127  18.709  1.00  0.00     0.045 A 
HETATM   19  C7  UNK     1      19.232   1.542  19.976  1.00  0.00    -0.059 A 
HETATM   20  C11 UNK     1      19.186   0.154  20.103  1.00  0.00     0.009 A 
HETATM   21  C15 UNK     1      19.270   2.402  21.194  1.00  0.00     0.048 C 
HETATM   22  C9  UNK     1      19.151  -0.651  18.963  1.00  0.00     0.032 A 
BRANCH  17  23
HETATM   23  N2  UNK     1      19.219   1.944  16.289  1.00  0.00    -0.113 N 
HETATM   24  O4  UNK     1      18.470   2.928  16.088  1.00  0.00    -0.532 OA
HETATM   25  O5  UNK     1      19.980   1.488  15.403  1.00  0.00    -0.532 OA
ENDBRANCH  17  23
ENDBRANCH   2  16
TORSDOF 3
ENDMDL
MODEL 4
REMARK VINA RESULT:      -9.6      1.471      7.354
REMARK  3 active torsions:
REMARK  status: ('A' for Active; 'I' for Inactive)
REMARK    1  A    between atoms: C1_8  and  N1_6 
REMARK       I    between atoms: C8_15  and  N1_6 
REMARK    2  A    between atoms: C4_11  and  N2_7 
REMARK    3  A    between atoms: C3_10  and  C8_15 
ROOT
HETATM    1  O2  UNK     1      20.948  -3.756  37.924  1.00  0.00    -0.267 OA
HETATM    2  N1  UNK     1      18.996  -3.627  36.613  1.00  0.00    -0.321 N 
HETATM    3  C8  UNK     1      20.051  -4.263  37.252  1.00  0.00     0.262 C 
HETATM    4  H2  UNK     1      18.358  -4.231  36.107  1.00  0.00     0.169 HD
ENDROOT
BRANCH   3   5
HETATM    5  C3  UNK     1      20.023  -5.718  37.054  1.00  0.00     0.108 A 
HETATM    6  C13 UNK     1      20.148  -6.331  35.713  1.00  0.00     0.304 A 
HETATM    7  O1  UNK     1      20.107  -7.722  35.655  1.00  0.00    -0.274 OA
HETATM    8  O3  UNK     1      20.280  -5.653  34.700  1.00  0.00    -0.259 OA
HETATM    9  C5  UNK     1      19.954  -8.509  36.813  1.00  0.00     0.089 A 
HETATM   10  C14 UNK     1      19.926  -9.894  36.656  1.00  0.00     0.038 A 
HETATM   11  C2  UNK     1      19.839  -7.913  38.065  1.00  0.00    -0.001 A 
HETATM   12  C17 UNK     1      19.777 -10.699  37.782  1.00  0.00     0.003 A 
HETATM   13  C16 UNK     1      19.659 -10.118  39.047  1.00  0.00     0.001 A 
HETATM   14  C12 UNK     1      19.690  -8.728  39.189  1.00  0.00     0.014 A 
HETATM   15  C6  UNK     1      19.878  -6.462  38.158  1.00  0.00     0.037 A 
ENDBRANCH   3   5
BRANCH   2  16
HETATM   16  C1  UNK     1      18.709  -2.241  36.590  1.00  0.00     0.068 A 
HETATM   17  C4  UNK     1      19.257  -1.424  35.615  1.00  0.00     0.130 A 
HETATM   18  C10 UNK     1      18.956  -0.061  35.615  1.00  0.00     0.045 A 
HETATM   19  C7  UNK     1      18.110   0.466  36.591  1.00  0.00    -0.059 A 
HETATM   20  C11 UNK     1      17.565  -0.370  37.566  1.00  0.00     0.009 A 
HETATM   21  C15 UNK     1      17.789   1.922  36.592  1.00  0.00     0.048 C 
HETATM   22  C9  UNK     1      17.867  -1.732  37.567  1.00  0.00     0.032 A 
BRANCH  17  23
HETATM   23  N2  UNK     1      20.122  -1.935  34.608  1.00  0.00    -0.113 N 
HETATM   24  O4  UNK     1      19.711  -1.986  33.425  1.00  0.00    -0.532 OA
HETATM   25  O5  UNK     1      21.270  -2.318  34.935  1.00  0.00    -0.532 OA
ENDBRANCH  17  23
ENDBRANCH   2  16
TORSDOF 3
ENDMDL
MODEL 5
REMARK VINA RESULT:      -9.2      7.527     12.087
REMARK  3 active torsions:
REMARK  status: ('A' for Active; 'I' for Inactive)
REMARK    1  A    between atoms: C1_8  and  N1_6 
REMARK       I    between atoms: C8_15  and  N1_6 
REMARK    2  A    between atoms: C4_11  and  N2_7 
REMARK    3  A    between atoms: C3_10  and  C8_15 
ROOT
HETATM    1  O2  UNK     1      18.606   4.720  30.257  1.00  0.00    -0.267 OA
HETATM    2  N1  UNK     1      17.746   4.617  32.446  1.00  0.00    -0.321 N 
HETATM    3  C8  UNK     1      18.335   4.117  31.294  1.00  0.00     0.262 C 
HETATM    4  H2  UNK     1      17.608   3.950  33.197  1.00  0.00     0.169 HD
ENDROOT
BRANCH   3   5
HETATM    5  C3  UNK     1      18.643   2.686  31.405  1.00  0.00     0.108 A 
HETATM    6  C13 UNK     1      18.381   1.920  32.644  1.00  0.00     0.304 A 
HETATM    7  O1  UNK     1      18.717   0.568  32.627  1.00  0.00    -0.274 OA
HETATM    8  O3  UNK     1      17.894   2.444  33.640  1.00  0.00    -0.259 OA
HETATM    9  C5  UNK     1      19.278  -0.043  31.488  1.00  0.00     0.089 A 
HETATM   10  C14 UNK     1      19.579  -1.402  31.565  1.00  0.00     0.038 A 
HETATM   11  C2  UNK     1      19.515   0.695  30.333  1.00  0.00    -0.001 A 
HETATM   12  C17 UNK     1      20.135  -2.034  30.455  1.00  0.00     0.003 A 
HETATM   13  C16 UNK     1      20.381  -1.309  29.288  1.00  0.00     0.001 A 
HETATM   14  C12 UNK     1      20.072   0.053  29.225  1.00  0.00     0.014 A 
HETATM   15  C6  UNK     1      19.176   2.109  30.321  1.00  0.00     0.037 A 
ENDBRANCH   3   5
BRANCH   2  16
HETATM   16  C1  UNK     1      17.320   5.945  32.693  1.00  0.00     0.068 A 
HETATM   17  C4  UNK     1      18.178   6.863  33.275  1.00  0.00     0.130 A 
HETATM   18  C10 UNK     1      17.733   8.166  33.505  1.00  0.00     0.045 A 
HETATM   19  C7  UNK     1      16.434   8.532  33.150  1.00  0.00    -0.059 A 
HETATM   20  C11 UNK     1      15.581   7.595  32.565  1.00  0.00     0.009 A 
HETATM   21  C15 UNK     1      15.957   9.923  33.397  1.00  0.00     0.048 C 
HETATM   22  C9  UNK     1      16.026   6.293  32.335  1.00  0.00     0.032 A 
BRANCH  17  23
HETATM   23  N2  UNK     1      19.507   6.517  33.646  1.00  0.00    -0.113 N 
HETATM   24  O4  UNK     1      19.698   5.466  34.301  1.00  0.00    -0.532 OA
HETATM   25  O5  UNK     1      20.446   7.274  33.306  1.00  0.00    -0.532 OA
ENDBRANCH  17  23
ENDBRANCH   2  16
TORSDOF 3
ENDMDL
MODEL 6
REMARK VINA RESULT:      -9.2      8.110     11.984
REMARK  3 active torsions:
REMARK  status: ('A' for Active; 'I' for Inactive)
REMARK    1  A    between atoms: C1_8  and  N1_6 
REMARK       I    between atoms: C8_15  and  N1_6 
REMARK    2  A    between atoms: C4_11  and  N2_7 
REMARK    3  A    between atoms: C3_10  and  C8_15 
ROOT
HETATM    1  O2  UNK     1      17.621   2.909  33.020  1.00  0.00    -0.267 OA
HETATM    2  N1  UNK     1      18.451   4.469  31.464  1.00  0.00    -0.321 N 
HETATM    3  C8  UNK     1      18.188   3.203  31.969  1.00  0.00     0.262 C 
HETATM    4  H2  UNK     1      18.933   4.496  30.572  1.00  0.00     0.169 HD
ENDROOT
BRANCH   3   5
HETATM    5  C3  UNK     1      18.677   2.139  31.083  1.00  0.00     0.108 A 
HETATM    6  C13 UNK     1      18.687   2.287  29.610  1.00  0.00     0.304 A 
HETATM    7  O1  UNK     1      19.173   1.207  28.877  1.00  0.00    -0.274 OA
HETATM    8  O3  UNK     1      18.286   3.306  29.058  1.00  0.00    -0.259 OA
HETATM    9  C5  UNK     1      19.634   0.032  29.502  1.00  0.00     0.089 A 
HETATM   10  C14 UNK     1      20.105  -0.994  28.685  1.00  0.00     0.038 A 
HETATM   11  C2  UNK     1      19.617  -0.086  30.889  1.00  0.00    -0.001 A 
HETATM   12  C17 UNK     1      20.568  -2.168  29.275  1.00  0.00     0.003 A 
HETATM   13  C16 UNK     1      20.557  -2.305  30.664  1.00  0.00     0.001 A 
HETATM   14  C12 UNK     1      20.083  -1.267  31.471  1.00  0.00     0.014 A 
HETATM   15  C6  UNK     1      19.114   1.025  31.682  1.00  0.00     0.037 A 
ENDBRANCH   3   5
BRANCH   2  16
HETATM   16  C1  UNK     1      18.125   5.717  32.046  1.00  0.00     0.068 A 
HETATM   17  C4  UNK     1      19.119   6.624  32.372  1.00  0.00     0.130 A 
HETATM   18  C10 UNK     1      18.769   7.849  32.943  1.00  0.00     0.045 A 
HETATM   19  C7  UNK     1      17.427   8.148  33.181  1.00  0.00    -0.059 A 
HETATM   20  C11 UNK     1      16.436   7.224  32.846  1.00  0.00     0.009 A 
HETATM   21  C15 UNK     1      17.052   9.456  33.792  1.00  0.00     0.048 C 
HETATM   22  C9  UNK     1      16.787   6.001  32.276  1.00  0.00     0.032 A 
BRANCH  17  23
HETATM   23  N2  UNK     1      20.495   6.344  32.141  1.00  0.00    -0.113 N 
HETATM   24  O4  UNK     1      20.838   5.872  31.032  1.00  0.00    -0.532 OA
HETATM   25  O5  UNK     1      21.321   6.580  33.053  1.00  0.00    -0.532 OA
ENDBRANCH  17  23
ENDBRANCH   2  16
TORSDOF 3
ENDMDL
MODEL 7
REMARK VINA RESULT:      -9.0     20.033     21.641
REMARK  3 active torsions:
REMARK  status: ('A' for Active; 'I' for Inactive)
REMARK    1  A    between atoms: C1_8  and  N1_6 
REMARK       I    between atoms: C8_15  and  N1_6 
REMARK    2  A    between atoms: C4_11  and  N2_7 
REMARK    3  A    between atoms: C3_10  and  C8_15 
ROOT
HETATM    1  O2  UNK     1      17.837  -3.208  15.762  1.00  0.00    -0.267 OA
HETATM    2  N1  UNK     1      20.055  -3.027  14.989  1.00  0.00    -0.321 N 
HETATM    3  C8  UNK     1      18.883  -2.584  15.586  1.00  0.00     0.262 C 
HETATM    4  H2  UNK     1      20.809  -2.352  14.943  1.00  0.00     0.169 HD
ENDROOT
BRANCH   3   5
HETATM    5  C3  UNK     1      18.983  -1.190  16.038  1.00  0.00     0.108 A 
HETATM    6  C13 UNK     1      19.280  -0.081  15.103  1.00  0.00     0.304 A 
HETATM    7  O1  UNK     1      19.350   1.197  15.652  1.00  0.00    -0.274 OA
HETATM    8  O3  UNK     1      19.457  -0.273  13.905  1.00  0.00    -0.259 OA
HETATM    9  C5  UNK     1      19.149   1.427  17.027  1.00  0.00     0.089 A 
HETATM   10  C14 UNK     1      19.237   2.741  17.483  1.00  0.00     0.038 A 
HETATM   11  C2  UNK     1      18.870   0.370  17.889  1.00  0.00    -0.001 A 
HETATM   12  C17 UNK     1      19.042   3.000  18.838  1.00  0.00     0.003 A 
HETATM   13  C16 UNK     1      18.763   1.951  19.717  1.00  0.00     0.001 A 
HETATM   14  C12 UNK     1      18.676   0.639  19.245  1.00  0.00     0.014 A 
HETATM   15  C6  UNK     1      18.791  -0.977  17.345  1.00  0.00     0.037 A 
ENDBRANCH   3   5
BRANCH   2  16
HETATM   16  C1  UNK     1      20.316  -4.307  14.443  1.00  0.00     0.068 A 
HETATM   17  C4  UNK     1      20.174  -4.535  13.084  1.00  0.00     0.130 A 
HETATM   18  C10 UNK     1      20.440  -5.806  12.572  1.00  0.00     0.045 A 
HETATM   19  C7  UNK     1      20.843  -6.832  13.428  1.00  0.00    -0.059 A 
HETATM   20  C11 UNK     1      20.981  -6.587  14.794  1.00  0.00     0.009 A 
HETATM   21  C15 UNK     1      21.125  -8.191  12.881  1.00  0.00     0.048 C 
HETATM   22  C9  UNK     1      20.715  -5.316  15.305  1.00  0.00     0.032 A 
BRANCH  17  23
HETATM   23  N2  UNK     1      19.764  -3.507  12.189  1.00  0.00    -0.113 N 
HETATM   24  O4  UNK     1      18.597  -3.531  11.736  1.00  0.00    -0.532 OA
HETATM   25  O5  UNK     1      20.584  -2.610  11.884  1.00  0.00    -0.532 OA
ENDBRANCH  17  23
ENDBRANCH   2  16
TORSDOF 3
ENDMDL
MODEL 8
REMARK VINA RESULT:      -8.9     19.632     21.581
REMARK  3 active torsions:
REMARK  status: ('A' for Active; 'I' for Inactive)
REMARK    1  A    between atoms: C1_8  and  N1_6 
REMARK       I    between atoms: C8_15  and  N1_6 
REMARK    2  A    between atoms: C4_11  and  N2_7 
REMARK    3  A    between atoms: C3_10  and  C8_15 
ROOT
HETATM    1  O2  UNK     1      17.959  -2.103  15.843  1.00  0.00    -0.267 OA
HETATM    2  N1  UNK     1      19.691  -1.095  14.605  1.00  0.00    -0.321 N 
HETATM    3  C8  UNK     1      18.827  -1.246  15.681  1.00  0.00     0.262 C 
HETATM    4  H2  UNK     1      20.339  -0.318  14.666  1.00  0.00     0.169 HD
ENDROOT
BRANCH   3   5
HETATM    5  C3  UNK     1      19.038  -0.221  16.710  1.00  0.00     0.108 A 
HETATM    6  C13 UNK     1      19.241   1.205  16.368  1.00  0.00     0.304 A 
HETATM    7  O1  UNK     1      19.431   2.082  17.433  1.00  0.00    -0.274 OA
HETATM    8  O3  UNK     1      19.243   1.599  15.207  1.00  0.00    -0.259 OA
HETATM    9  C5  UNK     1      19.431   1.639  18.770  1.00  0.00     0.089 A 
HETATM   10  C14 UNK     1      19.628   2.592  19.768  1.00  0.00     0.038 A 
HETATM   11  C2  UNK     1      19.238   0.294  19.070  1.00  0.00    -0.001 A 
HETATM   12  C17 UNK     1      19.633   2.184  21.100  1.00  0.00     0.003 A 
HETATM   13  C16 UNK     1      19.442   0.837  21.420  1.00  0.00     0.001 A 
HETATM   14  C12 UNK     1      19.245  -0.106  20.408  1.00  0.00     0.014 A 
HETATM   15  C6  UNK     1      19.038  -0.647  17.979  1.00  0.00     0.037 A 
ENDBRANCH   3   5
BRANCH   2  16
HETATM   16  C1  UNK     1      19.771  -1.897  13.442  1.00  0.00     0.068 A 
HETATM   17  C4  UNK     1      20.409  -3.126  13.476  1.00  0.00     0.130 A 
HETATM   18  C10 UNK     1      20.472  -3.897  12.314  1.00  0.00     0.045 A 
HETATM   19  C7  UNK     1      19.895  -3.428  11.133  1.00  0.00    -0.059 A 
HETATM   20  C11 UNK     1      19.255  -2.188  11.115  1.00  0.00     0.009 A 
HETATM   21  C15 UNK     1      19.963  -4.251   9.892  1.00  0.00     0.048 C 
HETATM   22  C9  UNK     1      19.193  -1.417  12.276  1.00  0.00     0.032 A 
BRANCH  17  23
HETATM   23  N2  UNK     1      21.006  -3.629  14.666  1.00  0.00    -0.113 N 
HETATM   24  O4  UNK     1      20.453  -4.580  15.264  1.00  0.00    -0.532 OA
HETATM   25  O5  UNK     1      22.067  -3.104  15.078  1.00  0.00    -0.532 OA
ENDBRANCH  17  23
ENDBRANCH   2  16
TORSDOF 3
ENDMDL
MODEL 9
REMARK VINA RESULT:      -8.8      1.342      2.184
REMARK  3 active torsions:
REMARK  status: ('A' for Active; 'I' for Inactive)
REMARK    1  A    between atoms: C1_8  and  N1_6 
REMARK       I    between atoms: C8_15  and  N1_6 
REMARK    2  A    between atoms: C4_11  and  N2_7 
REMARK    3  A    between atoms: C3_10  and  C8_15 
ROOT
HETATM    1  O2  UNK     1      21.356  -4.376  36.909  1.00  0.00    -0.267 OA
HETATM    2  N1  UNK     1      19.123  -5.113  37.038  1.00  0.00    -0.321 N 
HETATM    3  C8  UNK     1      20.145  -4.214  36.767  1.00  0.00     0.262 C 
HETATM    4  H2  UNK     1      18.184  -4.783  36.849  1.00  0.00     0.169 HD
ENDROOT
BRANCH   3   5
HETATM    5  C3  UNK     1      19.637  -2.937  36.249  1.00  0.00     0.108 A 
HETATM    6  C13 UNK     1      19.034  -1.915  37.134  1.00  0.00     0.304 A 
HETATM    7  O1  UNK     1      18.590  -0.744  36.525  1.00  0.00    -0.274 OA
HETATM    8  O3  UNK     1      18.929  -2.086  38.344  1.00  0.00    -0.259 OA
HETATM    9  C5  UNK     1      18.706  -0.539  35.136  1.00  0.00     0.089 A 
HETATM   10  C14 UNK     1      18.234   0.665  34.617  1.00  0.00     0.038 A 
HETATM   11  C2  UNK     1      19.277  -1.513  34.322  1.00  0.00    -0.001 A 
HETATM   12  C17 UNK     1      18.335   0.897  33.248  1.00  0.00     0.003 A 
HETATM   13  C16 UNK     1      18.905  -0.069  32.415  1.00  0.00     0.001 A 
HETATM   14  C12 UNK     1      19.375  -1.272  32.950  1.00  0.00     0.014 A 
HETATM   15  C6  UNK     1      19.750  -2.747  34.929  1.00  0.00     0.037 A 
ENDBRANCH   3   5
BRANCH   2  16
HETATM   16  C1  UNK     1      19.242  -6.430  37.543  1.00  0.00     0.068 A 
HETATM   17  C4  UNK     1      18.870  -7.517  36.770  1.00  0.00     0.130 A 
HETATM   18  C10 UNK     1      19.000  -8.805  37.292  1.00  0.00     0.045 A 
HETATM   19  C7  UNK     1      19.500  -8.987  38.582  1.00  0.00    -0.059 A 
HETATM   20  C11 UNK     1      19.871  -7.882  39.348  1.00  0.00     0.009 A 
HETATM   21  C15 UNK     1      19.637 -10.363  39.141  1.00  0.00     0.048 C 
HETATM   22  C9  UNK     1      19.741  -6.595  38.826  1.00  0.00     0.032 A 
BRANCH  17  23
HETATM   23  N2  UNK     1      18.357  -7.360  35.452  1.00  0.00    -0.113 N 
HETATM   24  O4  UNK     1      17.127  -7.502  35.261  1.00  0.00    -0.532 OA
HETATM   25  O5  UNK     1      19.152  -7.084  34.523  1.00  0.00    -0.532 OA
ENDBRANCH  17  23
ENDBRANCH   2  16
TORSDOF 3
ENDMDL
MODEL 10
REMARK VINA RESULT:      -8.7      7.515     10.103
REMARK  3 active torsions:
REMARK  status: ('A' for Active; 'I' for Inactive)
REMARK    1  A    between atoms: C1_8  and  N1_6 
REMARK       I    between atoms: C8_15  and  N1_6 
REMARK    2  A    between atoms: C4_11  and  N2_7 
REMARK    3  A    between atoms: C3_10  and  C8_15 
ROOT
HETATM    1  O2  UNK     1      19.629   5.007  31.010  1.00  0.00    -0.267 OA
HETATM    2  N1  UNK     1      18.196   3.371  31.913  1.00  0.00    -0.321 N 
HETATM    3  C8  UNK     1      18.689   4.654  31.721  1.00  0.00     0.262 C 
HETATM    4  H2  UNK     1      17.407   3.292  32.544  1.00  0.00     0.169 HD
ENDROOT
BRANCH   3   5
HETATM    5  C3  UNK     1      17.944   5.656  32.493  1.00  0.00     0.108 A 
HETATM    6  C13 UNK     1      18.483   6.249  33.738  1.00  0.00     0.304 A 
HETATM    7  O1  UNK     1      17.683   7.189  34.380  1.00  0.00    -0.274 OA
HETATM    8  O3  UNK     1      19.580   5.931  34.184  1.00  0.00    -0.259 OA
HETATM    9  C5  UNK     1      16.421   7.560  33.875  1.00  0.00     0.089 A 
HETATM   10  C14 UNK     1      15.692   8.511  34.587  1.00  0.00     0.038 A 
HETATM   11  C2  UNK     1      15.933   6.991  32.703  1.00  0.00    -0.001 A 
HETATM   12  C17 UNK     1      14.442   8.899  34.112  1.00  0.00     0.003 A 
HETATM   13  C16 UNK     1      13.935   8.337  32.938  1.00  0.00     0.001 A 
HETATM   14  C12 UNK     1      14.678   7.386  32.234  1.00  0.00     0.014 A 
HETATM   15  C6  UNK     1      16.746   6.005  32.009  1.00  0.00     0.037 A 
ENDBRANCH   3   5
BRANCH   2  16
HETATM   16  C1  UNK     1      18.666   2.168  31.332  1.00  0.00     0.068 A 
HETATM   17  C4  UNK     1      18.730   1.003  32.078  1.00  0.00     0.130 A 
HETATM   18  C10 UNK     1      19.195  -0.169  31.479  1.00  0.00     0.045 A 
HETATM   19  C7  UNK     1      19.590  -0.158  30.140  1.00  0.00    -0.059 A 
HETATM   20  C11 UNK     1      19.519   1.024  29.402  1.00  0.00     0.009 A 
HETATM   21  C15 UNK     1      20.088  -1.409  29.500  1.00  0.00     0.048 C 
HETATM   22  C9  UNK     1      19.054   2.195  30.001  1.00  0.00     0.032 A 
BRANCH  17  23
HETATM   23  N2  UNK     1      18.334   0.964  33.444  1.00  0.00    -0.113 N 
HETATM   24  O4  UNK     1      19.079   0.393  34.274  1.00  0.00    -0.532 OA
HETATM   25  O5  UNK     1      17.252   1.504  33.775  1.00  0.00    -0.532 OA
ENDBRANCH  17  23
ENDBRANCH   2  16
TORSDOF 3
ENDMDL
