MODEL 1
REMARK VINA RESULT:      -9.3      0.000      0.000
REMARK  10 active torsions:
REMARK  status: ('A' for Active; 'I' for Inactive)
REMARK    1  A    between atoms: C1_8  and  O1_1 
REMARK    2  A    between atoms: C5_12  and  O1_1 
REMARK    3  A    between atoms: C13_20  and  O2_2 
REMARK    4  A    between atoms: C3_10  and  O2_2 
REMARK    5  A    between atoms: C12_19  and  O3_3 
REMARK    6  A    between atoms: C8_15  and  O3_3 
REMARK    7  A    between atoms: C21_28  and  N1_6 
REMARK    8  A    between atoms: C2_9  and  C9_16 
REMARK    9  A    between atoms: C5_12  and  C8_15 
REMARK   10  A    between atoms: C10_17  and  C11_18 
ROOT
HETATM    1  N2  UNK     1      14.518   6.968  31.692  1.00  0.00    -0.191 NA
HETATM    2  C9  UNK     1      17.687   7.547  32.923  1.00  0.00     0.035 C 
HETATM    3  C10 UNK     1      16.449   8.105  33.010  1.00  0.00     0.055 C 
HETATM    4  C26 UNK     1      15.386   7.468  32.276  1.00  0.00     0.100 C 
ENDROOT
BRANCH   3   5
HETATM    5  C11 UNK     1      16.149   9.289  33.799  1.00  0.00    -0.015 A 
HETATM    6  C15 UNK     1      17.043  10.359  33.818  1.00  0.00     0.015 A 
HETATM    7  C22 UNK     1      16.755  11.495  34.576  1.00  0.00     0.037 A 
HETATM    8  C21 UNK     1      15.574  11.561  35.314  1.00  0.00     0.102 A 
HETATM    9  C23 UNK     1      14.680  10.489  35.295  1.00  0.00     0.037 A 
HETATM   10  C16 UNK     1      14.967   9.354  34.537  1.00  0.00     0.015 A 
BRANCH   8  11
HETATM   11  N1  UNK     1      15.282  12.716  36.085  1.00  0.00    -0.116 N 
HETATM   12  O4  UNK     1      14.925  12.575  37.280  1.00  0.00    -0.532 OA
HETATM   13  O5  UNK     1      15.391  13.846  35.552  1.00  0.00    -0.532 OA
ENDBRANCH   8  11
ENDBRANCH   3   5
BRANCH   2  14
HETATM   14  C2  UNK     1      18.033   6.349  32.146  1.00  0.00    -0.032 A 
HETATM   15  C4  UNK     1      17.765   5.081  32.661  1.00  0.00     0.051 A 
HETATM   16  C3  UNK     1      18.094   3.943  31.925  1.00  0.00     0.102 A 
HETATM   17  C1  UNK     1      18.691   4.073  30.671  1.00  0.00     0.102 A 
HETATM   18  C6  UNK     1      18.959   5.342  30.154  1.00  0.00     0.040 A 
HETATM   19  C7  UNK     1      18.630   6.479  30.892  1.00  0.00     0.014 A 
BRANCH  16  20
HETATM   20  O2  UNK     1      17.827   2.711  32.439  1.00  0.00    -0.349 OA
BRANCH  20  21
HETATM   21  C13 UNK     1      18.131   2.505  33.817  1.00  0.00     0.171 C 
HETATM   22  C24 UNK     1      17.881   1.053  34.166  1.00  0.00     0.034 C 
ENDBRANCH  20  21
ENDBRANCH  16  20
BRANCH  17  23
HETATM   23  O1  UNK     1      19.016   2.972  29.940  1.00  0.00    -0.346 OA
BRANCH  23  24
HETATM   24  C5  UNK     1      18.141   2.622  28.870  1.00  0.00     0.202 C 
BRANCH  24  25
HETATM   25  C8  UNK     1      18.121   1.112  28.721  1.00  0.00     0.202 C 
BRANCH  25  26
HETATM   26  O3  UNK     1      19.458   0.633  28.670  1.00  0.00    -0.349 OA
BRANCH  26  27
HETATM   27  C12 UNK     1      19.816  -0.297  29.611  1.00  0.00     0.068 A 
HETATM   28  C17 UNK     1      19.524  -0.076  30.957  1.00  0.00     0.037 A 
HETATM   29  C19 UNK     1      19.887  -1.022  31.915  1.00  0.00     0.009 A 
HETATM   30  C14 UNK     1      20.544  -2.190  31.527  1.00  0.00    -0.062 A 
HETATM   31  C20 UNK     1      20.837  -2.411  30.181  1.00  0.00     0.009 A 
HETATM   32  C25 UNK     1      20.932  -3.201  32.552  1.00  0.00     0.048 C 
HETATM   33  C18 UNK     1      20.472  -1.465  29.224  1.00  0.00     0.037 A 
ENDBRANCH  26  27
ENDBRANCH  25  26
ENDBRANCH  24  25
ENDBRANCH  23  24
ENDBRANCH  17  23
ENDBRANCH   2  14
TORSDOF 10
ENDMDL
MODEL 2
REMARK VINA RESULT:      -8.7      6.111     12.391
REMARK  10 active torsions:
REMARK  status: ('A' for Active; 'I' for Inactive)
REMARK    1  A    between atoms: C1_8  and  O1_1 
REMARK    2  A    between atoms: C5_12  and  O1_1 
REMARK    3  A    between atoms: C13_20  and  O2_2 
REMARK    4  A    between atoms: C3_10  and  O2_2 
REMARK    5  A    between atoms: C12_19  and  O3_3 
REMARK    6  A    between atoms: C8_15  and  O3_3 
REMARK    7  A    between atoms: C21_28  and  N1_6 
REMARK    8  A    between atoms: C2_9  and  C9_16 
REMARK    9  A    between atoms: C5_12  and  C8_15 
REMARK   10  A    between atoms: C10_17  and  C11_18 
ROOT
HETATM    1  N2  UNK     1      21.993  -1.971  35.478  1.00  0.00    -0.191 NA
HETATM    2  C9  UNK     1      18.817  -2.880  36.465  1.00  0.00     0.035 C 
HETATM    3  C10 UNK     1      20.086  -3.357  36.573  1.00  0.00     0.055 C 
HETATM    4  C26 UNK     1      21.135  -2.583  35.963  1.00  0.00     0.100 C 
ENDROOT
BRANCH   3   5
HETATM    5  C11 UNK     1      20.431  -4.587  37.268  1.00  0.00    -0.015 A 
HETATM    6  C15 UNK     1      19.526  -5.647  37.301  1.00  0.00     0.015 A 
HETATM    7  C22 UNK     1      19.857  -6.827  37.969  1.00  0.00     0.037 A 
HETATM    8  C21 UNK     1      21.093  -6.946  38.604  1.00  0.00     0.102 A 
HETATM    9  C23 UNK     1      21.998  -5.884  38.571  1.00  0.00     0.037 A 
HETATM   10  C16 UNK     1      21.668  -4.706  37.903  1.00  0.00     0.015 A 
BRANCH   8  11
HETATM   11  N1  UNK     1      21.429  -8.146  39.284  1.00  0.00    -0.116 N 
HETATM   12  O4  UNK     1      22.443  -8.162  40.023  1.00  0.00    -0.532 OA
HETATM   13  O5  UNK     1      20.702  -9.156  39.128  1.00  0.00    -0.532 OA
ENDBRANCH   8  11
ENDBRANCH   3   5
BRANCH   2  14
HETATM   14  C2  UNK     1      18.424  -1.641  35.779  1.00  0.00    -0.032 A 
HETATM   15  C4  UNK     1      18.637  -1.504  34.407  1.00  0.00     0.051 A 
HETATM   16  C3  UNK     1      18.264  -0.328  33.756  1.00  0.00     0.102 A 
HETATM   17  C1  UNK     1      17.678   0.712  34.477  1.00  0.00     0.102 A 
HETATM   18  C6  UNK     1      17.464   0.576  35.850  1.00  0.00     0.040 A 
HETATM   19  C7  UNK     1      17.837  -0.601  36.500  1.00  0.00     0.014 A 
BRANCH  16  20
HETATM   20  O2  UNK     1      18.478  -0.207  32.417  1.00  0.00    -0.349 OA
BRANCH  20  21
HETATM   21  C13 UNK     1      19.498  -1.025  31.847  1.00  0.00     0.171 C 
HETATM   22  C24 UNK     1      20.213  -0.240  30.767  1.00  0.00     0.034 C 
ENDBRANCH  20  21
ENDBRANCH  16  20
BRANCH  17  23
HETATM   23  O1  UNK     1      17.309   1.865  33.854  1.00  0.00    -0.346 OA
BRANCH  23  24
HETATM   24  C5  UNK     1      18.237   2.948  33.891  1.00  0.00     0.202 C 
BRANCH  24  25
HETATM   25  C8  UNK     1      18.225   3.656  32.550  1.00  0.00     0.202 C 
BRANCH  25  26
HETATM   26  O3  UNK     1      17.510   4.878  32.676  1.00  0.00    -0.349 OA
BRANCH  26  27
HETATM   27  C12 UNK     1      18.210   5.957  33.148  1.00  0.00     0.068 A 
HETATM   28  C17 UNK     1      17.586   6.883  33.984  1.00  0.00     0.037 A 
HETATM   29  C19 UNK     1      18.299   7.981  34.465  1.00  0.00     0.009 A 
HETATM   30  C14 UNK     1      19.636   8.153  34.109  1.00  0.00    -0.062 A 
HETATM   31  C20 UNK     1      20.261   7.228  33.273  1.00  0.00     0.009 A 
HETATM   32  C25 UNK     1      20.398   9.328  34.624  1.00  0.00     0.048 C 
HETATM   33  C18 UNK     1      19.548   6.130  32.793  1.00  0.00     0.037 A 
ENDBRANCH  26  27
ENDBRANCH  25  26
ENDBRANCH  24  25
ENDBRANCH  23  24
ENDBRANCH  17  23
ENDBRANCH   2  14
TORSDOF 10
ENDMDL
MODEL 3
REMARK VINA RESULT:      -8.7      5.822     12.357
REMARK  10 active torsions:
REMARK  status: ('A' for Active; 'I' for Inactive)
REMARK    1  A    between atoms: C1_8  and  O1_1 
REMARK    2  A    between atoms: C5_12  and  O1_1 
REMARK    3  A    between atoms: C13_20  and  O2_2 
REMARK    4  A    between atoms: C3_10  and  O2_2 
REMARK    5  A    between atoms: C12_19  and  O3_3 
REMARK    6  A    between atoms: C8_15  and  O3_3 
REMARK    7  A    between atoms: C21_28  and  N1_6 
REMARK    8  A    between atoms: C2_9  and  C9_16 
REMARK    9  A    between atoms: C5_12  and  C8_15 
REMARK   10  A    between atoms: C10_17  and  C11_18 
ROOT
HETATM    1  N2  UNK     1      22.052  -1.760  35.351  1.00  0.00    -0.191 NA
HETATM    2  C9  UNK     1      18.721  -2.416  35.954  1.00  0.00     0.035 C 
HETATM    3  C10 UNK     1      19.926  -3.003  36.183  1.00  0.00     0.055 C 
HETATM    4  C26 UNK     1      21.097  -2.307  35.719  1.00  0.00     0.100 C 
ENDROOT
BRANCH   3   5
HETATM    5  C11 UNK     1      20.088  -4.276  36.869  1.00  0.00    -0.015 A 
HETATM    6  C15 UNK     1      21.219  -4.507  37.651  1.00  0.00     0.015 A 
HETATM    7  C22 UNK     1      21.375  -5.729  38.308  1.00  0.00     0.037 A 
HETATM    8  C21 UNK     1      20.401  -6.718  38.182  1.00  0.00     0.102 A 
HETATM    9  C23 UNK     1      19.269  -6.486  37.398  1.00  0.00     0.037 A 
HETATM   10  C16 UNK     1      19.113  -5.265  36.743  1.00  0.00     0.015 A 
BRANCH   8  11
HETATM   11  N1  UNK     1      20.560  -7.960  38.849  1.00  0.00    -0.116 N 
HETATM   12  O4  UNK     1      21.628  -8.186  39.469  1.00  0.00    -0.532 OA
HETATM   13  O5  UNK     1      19.627  -8.798  38.804  1.00  0.00    -0.532 OA
ENDBRANCH   8  11
ENDBRANCH   3   5
BRANCH   2  14
HETATM   14  C2  UNK     1      18.511  -1.130  35.273  1.00  0.00    -0.032 A 
HETATM   15  C4  UNK     1      18.664  -1.040  33.890  1.00  0.00     0.051 A 
HETATM   16  C3  UNK     1      18.466   0.180  33.243  1.00  0.00     0.102 A 
HETATM   17  C1  UNK     1      18.113   1.311  33.980  1.00  0.00     0.102 A 
HETATM   18  C6  UNK     1      17.959   1.220  35.364  1.00  0.00     0.040 A 
HETATM   19  C7  UNK     1      18.158   0.001  36.010  1.00  0.00     0.014 A 
BRANCH  16  20
HETATM   20  O2  UNK     1      18.619   0.255  31.892  1.00  0.00    -0.349 OA
BRANCH  20  21
HETATM   21  C13 UNK     1      19.705  -0.472  31.321  1.00  0.00     0.171 C 
HETATM   22  C24 UNK     1      20.088   0.166  30.003  1.00  0.00     0.034 C 
ENDBRANCH  20  21
ENDBRANCH  16  20
BRANCH  17  23
HETATM   23  O1  UNK     1      17.916   2.507  33.361  1.00  0.00    -0.346 OA
BRANCH  23  24
HETATM   24  C5  UNK     1      18.360   3.674  34.051  1.00  0.00     0.202 C 
BRANCH  24  25
HETATM   25  C8  UNK     1      18.208   4.876  33.137  1.00  0.00     0.202 C 
BRANCH  25  26
HETATM   26  O3  UNK     1      19.327   5.736  33.311  1.00  0.00    -0.349 OA
BRANCH  26  27
HETATM   27  C12 UNK     1      19.059   7.065  33.509  1.00  0.00     0.068 A 
HETATM   28  C17 UNK     1      17.859   7.610  33.049  1.00  0.00     0.037 A 
HETATM   29  C19 UNK     1      17.586   8.963  33.251  1.00  0.00     0.009 A 
HETATM   30  C14 UNK     1      18.511   9.770  33.911  1.00  0.00    -0.062 A 
HETATM   31  C20 UNK     1      19.711   9.226  34.371  1.00  0.00     0.009 A 
HETATM   32  C25 UNK     1      18.218  11.217  34.126  1.00  0.00     0.048 C 
HETATM   33  C18 UNK     1      19.984   7.873  34.170  1.00  0.00     0.037 A 
ENDBRANCH  26  27
ENDBRANCH  25  26
ENDBRANCH  24  25
ENDBRANCH  23  24
ENDBRANCH  17  23
ENDBRANCH   2  14
TORSDOF 10
ENDMDL
MODEL 4
REMARK VINA RESULT:      -8.4      1.455      1.839
REMARK  10 active torsions:
REMARK  status: ('A' for Active; 'I' for Inactive)
REMARK    1  A    between atoms: C1_8  and  O1_1 
REMARK    2  A    between atoms: C5_12  and  O1_1 
REMARK    3  A    between atoms: C13_20  and  O2_2 
REMARK    4  A    between atoms: C3_10  and  O2_2 
REMARK    5  A    between atoms: C12_19  and  O3_3 
REMARK    6  A    between atoms: C8_15  and  O3_3 
REMARK    7  A    between atoms: C21_28  and  N1_6 
REMARK    8  A    between atoms: C2_9  and  C9_16 
REMARK    9  A    between atoms: C5_12  and  C8_15 
REMARK   10  A    between atoms: C10_17  and  C11_18 
ROOT
HETATM    1  N2  UNK     1      19.766   8.771  34.306  1.00  0.00    -0.191 NA
HETATM    2  C9  UNK     1      16.652   8.194  32.942  1.00  0.00     0.035 C 
HETATM    3  C10 UNK     1      17.240   9.090  33.779  1.00  0.00     0.055 C 
HETATM    4  C26 UNK     1      18.639   8.905  34.065  1.00  0.00     0.100 C 
ENDROOT
BRANCH   3   5
HETATM    5  C11 UNK     1      16.540  10.211  34.387  1.00  0.00    -0.015 A 
HETATM    6  C15 UNK     1      17.132  11.473  34.409  1.00  0.00     0.015 A 
HETATM    7  C22 UNK     1      16.460  12.548  34.993  1.00  0.00     0.037 A 
HETATM    8  C21 UNK     1      15.197  12.361  35.554  1.00  0.00     0.102 A 
HETATM    9  C23 UNK     1      14.606  11.097  35.531  1.00  0.00     0.037 A 
HETATM   10  C16 UNK     1      15.276  10.022  34.948  1.00  0.00     0.015 A 
BRANCH   8  11
HETATM   11  N1  UNK     1      14.515  13.454  36.148  1.00  0.00    -0.116 N 
HETATM   12  O4  UNK     1      14.604  13.626  37.388  1.00  0.00    -0.532 OA
HETATM   13  O5  UNK     1      13.842  14.220  35.416  1.00  0.00    -0.532 OA
ENDBRANCH   8  11
ENDBRANCH   3   5
BRANCH   2  14
HETATM   14  C2  UNK     1      17.322   7.053  32.301  1.00  0.00    -0.032 A 
HETATM   15  C4  UNK     1      17.295   5.798  32.909  1.00  0.00     0.051 A 
HETATM   16  C3  UNK     1      17.931   4.715  32.302  1.00  0.00     0.102 A 
HETATM   17  C1  UNK     1      18.593   4.887  31.086  1.00  0.00     0.102 A 
HETATM   18  C6  UNK     1      18.619   6.143  30.478  1.00  0.00     0.040 A 
HETATM   19  C7  UNK     1      17.983   7.225  31.086  1.00  0.00     0.014 A 
BRANCH  16  20
HETATM   20  O2  UNK     1      17.899   3.495  32.905  1.00  0.00    -0.349 OA
BRANCH  20  21
HETATM   21  C13 UNK     1      18.282   3.440  34.278  1.00  0.00     0.171 C 
HETATM   22  C24 UNK     1      18.453   1.992  34.685  1.00  0.00     0.034 C 
ENDBRANCH  20  21
ENDBRANCH  16  20
BRANCH  17  23
HETATM   23  O1  UNK     1      19.217   3.838  30.483  1.00  0.00    -0.346 OA
BRANCH  23  24
HETATM   24  C5  UNK     1      18.641   3.351  29.272  1.00  0.00     0.202 C 
BRANCH  24  25
HETATM   25  C8  UNK     1      18.615   1.835  29.311  1.00  0.00     0.202 C 
BRANCH  25  26
HETATM   26  O3  UNK     1      18.702   1.404  30.663  1.00  0.00    -0.349 OA
BRANCH  26  27
HETATM   27  C12 UNK     1      19.312   0.198  30.888  1.00  0.00     0.068 A 
HETATM   28  C17 UNK     1      20.215  -0.312  29.954  1.00  0.00     0.037 A 
HETATM   29  C19 UNK     1      20.836  -1.540  30.183  1.00  0.00     0.009 A 
HETATM   30  C14 UNK     1      20.555  -2.257  31.344  1.00  0.00    -0.062 A 
HETATM   31  C20 UNK     1      19.652  -1.749  32.278  1.00  0.00     0.009 A 
HETATM   32  C25 UNK     1      21.220  -3.570  31.588  1.00  0.00     0.048 C 
HETATM   33  C18 UNK     1      19.031  -0.520  32.049  1.00  0.00     0.037 A 
ENDBRANCH  26  27
ENDBRANCH  25  26
ENDBRANCH  24  25
ENDBRANCH  23  24
ENDBRANCH  17  23
ENDBRANCH   2  14
TORSDOF 10
ENDMDL
MODEL 5
REMARK VINA RESULT:      -8.4      2.991     11.260
REMARK  10 active torsions:
REMARK  status: ('A' for Active; 'I' for Inactive)
REMARK    1  A    between atoms: C1_8  and  O1_1 
REMARK    2  A    between atoms: C5_12  and  O1_1 
REMARK    3  A    between atoms: C13_20  and  O2_2 
REMARK    4  A    between atoms: C3_10  and  O2_2 
REMARK    5  A    between atoms: C12_19  and  O3_3 
REMARK    6  A    between atoms: C8_15  and  O3_3 
REMARK    7  A    between atoms: C21_28  and  N1_6 
REMARK    8  A    between atoms: C2_9  and  C9_16 
REMARK    9  A    between atoms: C5_12  and  C8_15 
REMARK   10  A    between atoms: C10_17  and  C11_18 
ROOT
HETATM    1  N2  UNK     1      17.874   3.408  33.993  1.00  0.00    -0.191 NA
HETATM    2  C9  UNK     1      18.725   5.049  31.082  1.00  0.00     0.035 C 
HETATM    3  C10 UNK     1      18.568   3.769  31.514  1.00  0.00     0.055 C 
HETATM    4  C26 UNK     1      18.184   3.579  32.888  1.00  0.00     0.100 C 
ENDROOT
BRANCH   3   5
HETATM    5  C11 UNK     1      18.760   2.600  30.669  1.00  0.00    -0.015 A 
HETATM    6  C15 UNK     1      18.198   2.563  29.393  1.00  0.00     0.015 A 
HETATM    7  C22 UNK     1      18.381   1.441  28.583  1.00  0.00     0.037 A 
HETATM    8  C21 UNK     1      19.126   0.358  29.049  1.00  0.00     0.102 A 
HETATM    9  C23 UNK     1      19.688   0.396  30.326  1.00  0.00     0.037 A 
HETATM   10  C16 UNK     1      19.506   1.517  31.136  1.00  0.00     0.015 A 
BRANCH   8  11
HETATM   11  N1  UNK     1      19.312  -0.783  28.225  1.00  0.00    -0.116 N 
HETATM   12  O4  UNK     1      19.960  -1.759  28.675  1.00  0.00    -0.532 OA
HETATM   13  O5  UNK     1      18.820  -0.785  27.070  1.00  0.00    -0.532 OA
ENDBRANCH   8  11
ENDBRANCH   3   5
BRANCH   2  14
HETATM   14  C2  UNK     1      18.535   6.257  31.897  1.00  0.00    -0.032 A 
HETATM   15  C4  UNK     1      17.372   7.015  31.761  1.00  0.00     0.051 A 
HETATM   16  C3  UNK     1      17.191   8.162  32.534  1.00  0.00     0.102 A 
HETATM   17  C1  UNK     1      18.173   8.551  33.445  1.00  0.00     0.102 A 
HETATM   18  C6  UNK     1      19.337   7.792  33.582  1.00  0.00     0.040 A 
HETATM   19  C7  UNK     1      19.517   6.646  32.808  1.00  0.00     0.014 A 
BRANCH  16  20
HETATM   20  O2  UNK     1      16.051   8.893  32.391  1.00  0.00    -0.349 OA
BRANCH  20  21
HETATM   21  C13 UNK     1      14.814   8.191  32.492  1.00  0.00     0.171 C 
HETATM   22  C24 UNK     1      14.503   7.947  33.953  1.00  0.00     0.034 C 
ENDBRANCH  20  21
ENDBRANCH  16  20
BRANCH  17  23
HETATM   23  O1  UNK     1      18.009   9.667  34.206  1.00  0.00    -0.346 OA
BRANCH  23  24
HETATM   24  C5  UNK     1      18.795  10.807  33.864  1.00  0.00     0.202 C 
BRANCH  24  25
HETATM   25  C8  UNK     1      17.990  12.063  34.135  1.00  0.00     0.202 C 
BRANCH  25  26
HETATM   26  O3  UNK     1      16.605  11.749  34.076  1.00  0.00    -0.349 OA
BRANCH  26  27
HETATM   27  C12 UNK     1      15.856  12.048  35.184  1.00  0.00     0.068 A 
HETATM   28  C17 UNK     1      14.712  11.303  35.475  1.00  0.00     0.037 A 
HETATM   29  C19 UNK     1      13.951  11.607  36.603  1.00  0.00     0.009 A 
HETATM   30  C14 UNK     1      14.331  12.656  37.439  1.00  0.00    -0.062 A 
HETATM   31  C20 UNK     1      15.474  13.401  37.148  1.00  0.00     0.009 A 
HETATM   32  C25 UNK     1      13.515  12.980  38.645  1.00  0.00     0.048 C 
HETATM   33  C18 UNK     1      16.236  13.096  36.021  1.00  0.00     0.037 A 
ENDBRANCH  26  27
ENDBRANCH  25  26
ENDBRANCH  24  25
ENDBRANCH  23  24
ENDBRANCH  17  23
ENDBRANCH   2  14
TORSDOF 10
ENDMDL
MODEL 6
REMARK VINA RESULT:      -8.3      2.932     11.176
REMARK  10 active torsions:
REMARK  status: ('A' for Active; 'I' for Inactive)
REMARK    1  A    between atoms: C1_8  and  O1_1 
REMARK    2  A    between atoms: C5_12  and  O1_1 
REMARK    3  A    between atoms: C13_20  and  O2_2 
REMARK    4  A    between atoms: C3_10  and  O2_2 
REMARK    5  A    between atoms: C12_19  and  O3_3 
REMARK    6  A    between atoms: C8_15  and  O3_3 
REMARK    7  A    between atoms: C21_28  and  N1_6 
REMARK    8  A    between atoms: C2_9  and  C9_16 
REMARK    9  A    between atoms: C5_12  and  C8_15 
REMARK   10  A    between atoms: C10_17  and  C11_18 
ROOT
HETATM    1  N2  UNK     1      17.867   3.506  34.095  1.00  0.00    -0.191 NA
HETATM    2  C9  UNK     1      18.669   5.164  31.180  1.00  0.00     0.035 C 
HETATM    3  C10 UNK     1      18.539   3.881  31.612  1.00  0.00     0.055 C 
HETATM    4  C26 UNK     1      18.167   3.683  32.989  1.00  0.00     0.100 C 
ENDROOT
BRANCH   3   5
HETATM    5  C11 UNK     1      18.749   2.717  30.766  1.00  0.00    -0.015 A 
HETATM    6  C15 UNK     1      19.402   1.594  31.273  1.00  0.00     0.015 A 
HETATM    7  C22 UNK     1      19.605   0.478  30.460  1.00  0.00     0.037 A 
HETATM    8  C21 UNK     1      19.154   0.485  29.140  1.00  0.00     0.102 A 
HETATM    9  C23 UNK     1      18.502   1.610  28.633  1.00  0.00     0.037 A 
HETATM   10  C16 UNK     1      18.298   2.725  29.445  1.00  0.00     0.015 A 
BRANCH   8  11
HETATM   11  N1  UNK     1      19.360  -0.650  28.314  1.00  0.00    -0.116 N 
HETATM   12  O4  UNK     1      20.005  -1.625  28.769  1.00  0.00    -0.532 OA
HETATM   13  O5  UNK     1      18.890  -0.648  27.150  1.00  0.00    -0.532 OA
ENDBRANCH   8  11
ENDBRANCH   3   5
BRANCH   2  14
HETATM   14  C2  UNK     1      18.460   6.368  31.997  1.00  0.00    -0.032 A 
HETATM   15  C4  UNK     1      17.322   7.152  31.806  1.00  0.00     0.051 A 
HETATM   16  C3  UNK     1      17.123   8.295  32.581  1.00  0.00     0.102 A 
HETATM   17  C1  UNK     1      18.062   8.653  33.548  1.00  0.00     0.102 A 
HETATM   18  C6  UNK     1      19.200   7.869  33.740  1.00  0.00     0.040 A 
HETATM   19  C7  UNK     1      19.398   6.726  32.964  1.00  0.00     0.014 A 
BRANCH  16  20
HETATM   20  O2  UNK     1      16.008   9.052  32.384  1.00  0.00    -0.349 OA
BRANCH  20  21
HETATM   21  C13 UNK     1      14.748   8.416  32.592  1.00  0.00     0.171 C 
HETATM   22  C24 UNK     1      14.441   8.402  34.075  1.00  0.00     0.034 C 
ENDBRANCH  20  21
ENDBRANCH  16  20
BRANCH  17  23
HETATM   23  O1  UNK     1      17.879   9.765  34.312  1.00  0.00    -0.346 OA
BRANCH  23  24
HETATM   24  C5  UNK     1      18.492  10.971  33.858  1.00  0.00     0.202 C 
BRANCH  24  25
HETATM   25  C8  UNK     1      17.535  12.127  34.083  1.00  0.00     0.202 C 
BRANCH  25  26
HETATM   26  O3  UNK     1      16.516  11.717  34.986  1.00  0.00    -0.349 OA
BRANCH  26  27
HETATM   27  C12 UNK     1      15.222  11.943  34.600  1.00  0.00     0.068 A 
HETATM   28  C17 UNK     1      14.936  12.261  33.271  1.00  0.00     0.037 A 
HETATM   29  C19 UNK     1      13.618  12.491  32.877  1.00  0.00     0.009 A 
HETATM   30  C14 UNK     1      12.586  12.404  33.810  1.00  0.00    -0.062 A 
HETATM   31  C20 UNK     1      12.871  12.087  35.139  1.00  0.00     0.009 A 
HETATM   32  C25 UNK     1      11.177  12.651  33.387  1.00  0.00     0.048 C 
HETATM   33  C18 UNK     1      14.189  11.856  35.532  1.00  0.00     0.037 A 
ENDBRANCH  26  27
ENDBRANCH  25  26
ENDBRANCH  24  25
ENDBRANCH  23  24
ENDBRANCH  17  23
ENDBRANCH   2  14
TORSDOF 10
ENDMDL
MODEL 7
REMARK VINA RESULT:      -8.3      7.438     13.701
REMARK  10 active torsions:
REMARK  status: ('A' for Active; 'I' for Inactive)
REMARK    1  A    between atoms: C1_8  and  O1_1 
REMARK    2  A    between atoms: C5_12  and  O1_1 
REMARK    3  A    between atoms: C13_20  and  O2_2 
REMARK    4  A    between atoms: C3_10  and  O2_2 
REMARK    5  A    between atoms: C12_19  and  O3_3 
REMARK    6  A    between atoms: C8_15  and  O3_3 
REMARK    7  A    between atoms: C21_28  and  N1_6 
REMARK    8  A    between atoms: C2_9  and  C9_16 
REMARK    9  A    between atoms: C5_12  and  C8_15 
REMARK   10  A    between atoms: C10_17  and  C11_18 
ROOT
HETATM    1  N2  UNK     1      22.278  -4.755  37.951  1.00  0.00    -0.191 NA
HETATM    2  C9  UNK     1      19.035  -5.237  36.883  1.00  0.00     0.035 C 
HETATM    3  C10 UNK     1      20.000  -5.937  37.537  1.00  0.00     0.055 C 
HETATM    4  C26 UNK     1      21.258  -5.274  37.762  1.00  0.00     0.100 C 
ENDROOT
BRANCH   3   5
HETATM    5  C11 UNK     1      19.825  -7.298  38.020  1.00  0.00    -0.015 A 
HETATM    6  C15 UNK     1      20.303  -7.657  39.280  1.00  0.00     0.015 A 
HETATM    7  C22 UNK     1      20.137  -8.964  39.742  1.00  0.00     0.037 A 
HETATM    8  C21 UNK     1      19.493  -9.909  38.945  1.00  0.00     0.102 A 
HETATM    9  C23 UNK     1      19.016  -9.548  37.684  1.00  0.00     0.037 A 
HETATM   10  C16 UNK     1      19.181  -8.243  37.221  1.00  0.00     0.015 A 
BRANCH   8  11
HETATM   11  N1  UNK     1      19.324 -11.238  39.415  1.00  0.00    -0.116 N 
HETATM   12  O4  UNK     1      19.163 -11.432  40.644  1.00  0.00    -0.532 OA
HETATM   13  O5  UNK     1      19.338 -12.182  38.588  1.00  0.00    -0.532 OA
ENDBRANCH   8  11
ENDBRANCH   3   5
BRANCH   2  14
HETATM   14  C2  UNK     1      19.166  -3.860  36.385  1.00  0.00    -0.032 A 
HETATM   15  C4  UNK     1      20.046  -3.576  35.340  1.00  0.00     0.051 A 
HETATM   16  C3  UNK     1      20.170  -2.269  34.868  1.00  0.00     0.102 A 
HETATM   17  C1  UNK     1      19.414  -1.246  35.439  1.00  0.00     0.102 A 
HETATM   18  C6  UNK     1      18.533  -1.530  36.484  1.00  0.00     0.040 A 
HETATM   19  C7  UNK     1      18.409  -2.836  36.957  1.00  0.00     0.014 A 
BRANCH  16  20
HETATM   20  O2  UNK     1      21.033  -2.005  33.848  1.00  0.00    -0.349 OA
BRANCH  20  21
HETATM   21  C13 UNK     1      20.723  -2.569  32.575  1.00  0.00     0.171 C 
HETATM   22  C24 UNK     1      19.877  -1.587  31.793  1.00  0.00     0.034 C 
ENDBRANCH  20  21
ENDBRANCH  16  20
BRANCH  17  23
HETATM   23  O1  UNK     1      19.525   0.033  34.987  1.00  0.00    -0.346 OA
BRANCH  23  24
HETATM   24  C5  UNK     1      18.680   1.010  35.593  1.00  0.00     0.202 C 
BRANCH  24  25
HETATM   25  C8  UNK     1      17.593   1.401  34.609  1.00  0.00     0.202 C 
BRANCH  25  26
HETATM   26  O3  UNK     1      18.088   1.251  33.285  1.00  0.00    -0.349 OA
BRANCH  26  27
HETATM   27  C12 UNK     1      18.291   2.400  32.568  1.00  0.00     0.068 A 
HETATM   28  C17 UNK     1      18.165   3.643  33.191  1.00  0.00     0.037 A 
HETATM   29  C19 UNK     1      18.372   4.813  32.461  1.00  0.00     0.009 A 
HETATM   30  C14 UNK     1      18.704   4.742  31.109  1.00  0.00    -0.062 A 
HETATM   31  C20 UNK     1      18.830   3.500  30.485  1.00  0.00     0.009 A 
HETATM   32  C25 UNK     1      18.925   5.994  30.330  1.00  0.00     0.048 C 
HETATM   33  C18 UNK     1      18.624   2.330  31.216  1.00  0.00     0.037 A 
ENDBRANCH  26  27
ENDBRANCH  25  26
ENDBRANCH  24  25
ENDBRANCH  23  24
ENDBRANCH  17  23
ENDBRANCH   2  14
TORSDOF 10
ENDMDL
MODEL 8
REMARK VINA RESULT:      -8.1      5.748     11.966
REMARK  10 active torsions:
REMARK  status: ('A' for Active; 'I' for Inactive)
REMARK    1  A    between atoms: C1_8  and  O1_1 
REMARK    2  A    between atoms: C5_12  and  O1_1 
REMARK    3  A    between atoms: C13_20  and  O2_2 
REMARK    4  A    between atoms: C3_10  and  O2_2 
REMARK    5  A    between atoms: C12_19  and  O3_3 
REMARK    6  A    between atoms: C8_15  and  O3_3 
REMARK    7  A    between atoms: C21_28  and  N1_6 
REMARK    8  A    between atoms: C2_9  and  C9_16 
REMARK    9  A    between atoms: C5_12  and  C8_15 
REMARK   10  A    between atoms: C10_17  and  C11_18 
ROOT
HETATM    1  N2  UNK     1      17.731  -2.000  37.467  1.00  0.00    -0.191 NA
HETATM    2  C9  UNK     1      19.995  -2.577  34.930  1.00  0.00     0.035 C 
HETATM    3  C10 UNK     1      19.617  -3.156  36.101  1.00  0.00     0.055 C 
HETATM    4  C26 UNK     1      18.573  -2.508  36.850  1.00  0.00     0.100 C 
ENDROOT
BRANCH   3   5
HETATM    5  C11 UNK     1      20.202  -4.381  36.623  1.00  0.00    -0.015 A 
HETATM    6  C15 UNK     1      21.105  -4.326  37.685  1.00  0.00     0.015 A 
HETATM    7  C22 UNK     1      21.667  -5.501  38.185  1.00  0.00     0.037 A 
HETATM    8  C21 UNK     1      21.326  -6.731  37.623  1.00  0.00     0.102 A 
HETATM    9  C23 UNK     1      20.423  -6.786  36.560  1.00  0.00     0.037 A 
HETATM   10  C16 UNK     1      19.861  -5.612  36.061  1.00  0.00     0.015 A 
BRANCH   8  11
HETATM   11  N1  UNK     1      21.898  -7.927  38.132  1.00  0.00    -0.116 N 
HETATM   12  O4  UNK     1      22.170  -8.858  37.335  1.00  0.00    -0.532 OA
HETATM   13  O5  UNK     1      22.119  -8.019  39.364  1.00  0.00    -0.532 OA
ENDBRANCH   8  11
ENDBRANCH   3   5
BRANCH   2  14
HETATM   14  C2  UNK     1      19.428  -1.345  34.362  1.00  0.00    -0.032 A 
HETATM   15  C4  UNK     1      19.106  -0.276  35.197  1.00  0.00     0.051 A 
HETATM   16  C3  UNK     1      18.567   0.893  34.659  1.00  0.00     0.102 A 
HETATM   17  C1  UNK     1      18.350   0.992  33.285  1.00  0.00     0.102 A 
HETATM   18  C6  UNK     1      18.673  -0.078  32.449  1.00  0.00     0.040 A 
HETATM   19  C7  UNK     1      19.212  -1.246  32.988  1.00  0.00     0.014 A 
BRANCH  16  20
HETATM   20  O2  UNK     1      18.256   1.930  35.485  1.00  0.00    -0.349 OA
BRANCH  20  21
HETATM   21  C13 UNK     1      18.126   1.636  36.875  1.00  0.00     0.171 C 
HETATM   22  C24 UNK     1      16.656   1.563  37.228  1.00  0.00     0.034 C 
ENDBRANCH  20  21
ENDBRANCH  16  20
BRANCH  17  23
HETATM   23  O1  UNK     1      17.826   2.127  32.746  1.00  0.00    -0.346 OA
BRANCH  23  24
HETATM   24  C5  UNK     1      18.237   2.467  31.423  1.00  0.00     0.202 C 
BRANCH  24  25
HETATM   25  C8  UNK     1      18.185   3.974  31.260  1.00  0.00     0.202 C 
BRANCH  25  26
HETATM   26  O3  UNK     1      17.605   4.547  32.425  1.00  0.00    -0.349 OA
BRANCH  26  27
HETATM   27  C12 UNK     1      18.236   5.642  32.953  1.00  0.00     0.068 A 
HETATM   28  C17 UNK     1      17.571   6.454  33.874  1.00  0.00     0.037 A 
HETATM   29  C19 UNK     1      18.213   7.569  34.412  1.00  0.00     0.009 A 
HETATM   30  C14 UNK     1      19.519   7.873  34.031  1.00  0.00    -0.062 A 
HETATM   31  C20 UNK     1      20.184   7.062  33.111  1.00  0.00     0.009 A 
HETATM   32  C25 UNK     1      20.205   9.066  34.607  1.00  0.00     0.048 C 
HETATM   33  C18 UNK     1      19.542   5.947  32.573  1.00  0.00     0.037 A 
ENDBRANCH  26  27
ENDBRANCH  25  26
ENDBRANCH  24  25
ENDBRANCH  23  24
ENDBRANCH  17  23
ENDBRANCH   2  14
TORSDOF 10
ENDMDL
MODEL 9
REMARK VINA RESULT:      -8.1      3.081     11.277
REMARK  10 active torsions:
REMARK  status: ('A' for Active; 'I' for Inactive)
REMARK    1  A    between atoms: C1_8  and  O1_1 
REMARK    2  A    between atoms: C5_12  and  O1_1 
REMARK    3  A    between atoms: C13_20  and  O2_2 
REMARK    4  A    between atoms: C3_10  and  O2_2 
REMARK    5  A    between atoms: C12_19  and  O3_3 
REMARK    6  A    between atoms: C8_15  and  O3_3 
REMARK    7  A    between atoms: C21_28  and  N1_6 
REMARK    8  A    between atoms: C2_9  and  C9_16 
REMARK    9  A    between atoms: C5_12  and  C8_15 
REMARK   10  A    between atoms: C10_17  and  C11_18 
ROOT
HETATM    1  N2  UNK     1      19.642   6.290  29.926  1.00  0.00    -0.191 NA
HETATM    2  C9  UNK     1      17.691   4.380  32.032  1.00  0.00     0.035 C 
HETATM    3  C10 UNK     1      18.487   4.196  30.945  1.00  0.00     0.055 C 
HETATM    4  C26 UNK     1      19.122   5.361  30.388  1.00  0.00     0.100 C 
ENDROOT
BRANCH   3   5
HETATM    5  C11 UNK     1      18.730   2.900  30.331  1.00  0.00    -0.015 A 
HETATM    6  C15 UNK     1      19.438   1.920  31.026  1.00  0.00     0.015 A 
HETATM    7  C22 UNK     1      19.673   0.678  30.436  1.00  0.00     0.037 A 
HETATM    8  C21 UNK     1      19.199   0.415  29.151  1.00  0.00     0.102 A 
HETATM    9  C23 UNK     1      18.491   1.396  28.455  1.00  0.00     0.037 A 
HETATM   10  C16 UNK     1      18.256   2.638  29.045  1.00  0.00     0.015 A 
BRANCH   8  11
HETATM   11  N1  UNK     1      19.438  -0.849  28.550  1.00  0.00    -0.116 N 
HETATM   12  O4  UNK     1      20.020  -1.739  29.217  1.00  0.00    -0.532 OA
HETATM   13  O5  UNK     1      19.058  -1.042  27.370  1.00  0.00    -0.532 OA
ENDBRANCH   8  11
ENDBRANCH   3   5
BRANCH   2  14
HETATM   14  C2  UNK     1      17.424   5.667  32.689  1.00  0.00    -0.032 A 
HETATM   15  C4  UNK     1      18.371   6.222  33.550  1.00  0.00     0.051 A 
HETATM   16  C3  UNK     1      18.118   7.443  34.174  1.00  0.00     0.102 A 
HETATM   17  C1  UNK     1      16.917   8.111  33.937  1.00  0.00     0.102 A 
HETATM   18  C6  UNK     1      15.969   7.557  33.076  1.00  0.00     0.040 A 
HETATM   19  C7  UNK     1      16.222   6.335  32.452  1.00  0.00     0.014 A 
BRANCH  16  20
HETATM   20  O2  UNK     1      19.051   7.973  35.012  1.00  0.00    -0.349 OA
BRANCH  20  21
HETATM   21  C13 UNK     1      20.291   8.373  34.431  1.00  0.00     0.171 C 
HETATM   22  C24 UNK     1      20.450   9.871  34.589  1.00  0.00     0.034 C 
ENDBRANCH  20  21
ENDBRANCH  16  20
BRANCH  17  23
HETATM   23  O1  UNK     1      16.657   9.304  34.539  1.00  0.00    -0.346 OA
BRANCH  23  24
HETATM   24  C5  UNK     1      15.295   9.592  34.847  1.00  0.00     0.202 C 
BRANCH  24  25
HETATM   25  C8  UNK     1      15.105  11.096  34.896  1.00  0.00     0.202 C 
BRANCH  25  26
HETATM   26  O3  UNK     1      16.334  11.707  35.270  1.00  0.00    -0.349 OA
BRANCH  26  27
HETATM   27  C12 UNK     1      16.824  12.671  34.429  1.00  0.00     0.068 A 
HETATM   28  C17 UNK     1      18.138  12.591  33.967  1.00  0.00     0.037 A 
HETATM   29  C19 UNK     1      18.637  13.573  33.110  1.00  0.00     0.009 A 
HETATM   30  C14 UNK     1      17.823  14.634  32.717  1.00  0.00    -0.062 A 
HETATM   31  C20 UNK     1      16.509  14.715  33.179  1.00  0.00     0.009 A 
HETATM   32  C25 UNK     1      18.358  15.683  31.801  1.00  0.00     0.048 C 
HETATM   33  C18 UNK     1      16.010  13.733  34.035  1.00  0.00     0.037 A 
ENDBRANCH  26  27
ENDBRANCH  25  26
ENDBRANCH  24  25
ENDBRANCH  23  24
ENDBRANCH  17  23
ENDBRANCH   2  14
TORSDOF 10
ENDMDL
MODEL 10
REMARK VINA RESULT:      -8.1      6.055     12.016
REMARK  10 active torsions:
REMARK  status: ('A' for Active; 'I' for Inactive)
REMARK    1  A    between atoms: C1_8  and  O1_1 
REMARK    2  A    between atoms: C5_12  and  O1_1 
REMARK    3  A    between atoms: C13_20  and  O2_2 
REMARK    4  A    between atoms: C3_10  and  O2_2 
REMARK    5  A    between atoms: C12_19  and  O3_3 
REMARK    6  A    between atoms: C8_15  and  O3_3 
REMARK    7  A    between atoms: C21_28  and  N1_6 
REMARK    8  A    between atoms: C2_9  and  C9_16 
REMARK    9  A    between atoms: C5_12  and  C8_15 
REMARK   10  A    between atoms: C10_17  and  C11_18 
ROOT
HETATM    1  N2  UNK     1      19.028  -1.676  37.616  1.00  0.00    -0.191 NA
HETATM    2  C9  UNK     1      20.165  -3.674  35.045  1.00  0.00     0.035 C 
HETATM    3  C10 UNK     1      20.044  -3.736  36.398  1.00  0.00     0.055 C 
HETATM    4  C26 UNK     1      19.480  -2.591  37.063  1.00  0.00     0.100 C 
ENDROOT
BRANCH   3   5
HETATM    5  C11 UNK     1      20.442  -4.887  37.194  1.00  0.00    -0.015 A 
HETATM    6  C15 UNK     1      19.589  -5.984  37.309  1.00  0.00     0.015 A 
HETATM    7  C22 UNK     1      19.971  -7.088  38.073  1.00  0.00     0.037 A 
HETATM    8  C21 UNK     1      21.205  -7.094  38.722  1.00  0.00     0.102 A 
HETATM    9  C23 UNK     1      22.058  -5.995  38.606  1.00  0.00     0.037 A 
HETATM   10  C16 UNK     1      21.677  -4.893  37.842  1.00  0.00     0.015 A 
BRANCH   8  11
HETATM   11  N1  UNK     1      21.593  -8.216  39.499  1.00  0.00    -0.116 N 
HETATM   12  O4  UNK     1      20.930  -9.277  39.409  1.00  0.00    -0.532 OA
HETATM   13  O5  UNK     1      22.591  -8.117  40.254  1.00  0.00    -0.532 OA
ENDBRANCH   8  11
ENDBRANCH   3   5
BRANCH   2  14
HETATM   14  C2  UNK     1      19.770  -2.536  34.202  1.00  0.00    -0.032 A 
HETATM   15  C4  UNK     1      18.747  -1.683  34.617  1.00  0.00     0.051 A 
HETATM   16  C3  UNK     1      18.371  -0.604  33.817  1.00  0.00     0.102 A 
HETATM   17  C1  UNK     1      19.017  -0.377  32.602  1.00  0.00     0.102 A 
HETATM   18  C6  UNK     1      20.041  -1.231  32.187  1.00  0.00     0.040 A 
HETATM   19  C7  UNK     1      20.416  -2.310  32.987  1.00  0.00     0.014 A 
BRANCH  16  20
HETATM   20  O2  UNK     1      17.371   0.222  34.233  1.00  0.00    -0.349 OA
BRANCH  20  21
HETATM   21  C13 UNK     1      17.481   0.761  35.550  1.00  0.00     0.171 C 
HETATM   22  C24 UNK     1      18.513   1.868  35.546  1.00  0.00     0.034 C 
ENDBRANCH  20  21
ENDBRANCH  16  20
BRANCH  17  23
HETATM   23  O1  UNK     1      18.661   0.673  31.813  1.00  0.00    -0.346 OA
BRANCH  23  24
HETATM   24  C5  UNK     1      19.340   0.807  30.566  1.00  0.00     0.202 C 
BRANCH  24  25
HETATM   25  C8  UNK     1      18.740   1.968  29.797  1.00  0.00     0.202 C 
BRANCH  25  26
HETATM   26  O3  UNK     1      17.854   2.681  30.650  1.00  0.00    -0.349 OA
BRANCH  26  27
HETATM   27  C12 UNK     1      18.365   3.778  31.292  1.00  0.00     0.068 A 
HETATM   28  C17 UNK     1      19.204   4.659  30.607  1.00  0.00     0.037 A 
HETATM   29  C19 UNK     1      19.725   5.776  31.260  1.00  0.00     0.009 A 
HETATM   30  C14 UNK     1      19.407   6.013  32.597  1.00  0.00    -0.062 A 
HETATM   31  C20 UNK     1      18.570   5.132  33.282  1.00  0.00     0.009 A 
HETATM   32  C25 UNK     1      19.965   7.208  33.294  1.00  0.00     0.048 C 
HETATM   33  C18 UNK     1      18.049   4.016  32.629  1.00  0.00     0.037 A 
ENDBRANCH  26  27
ENDBRANCH  25  26
ENDBRANCH  24  25
ENDBRANCH  23  24
ENDBRANCH  17  23
ENDBRANCH   2  14
TORSDOF 10
ENDMDL
