MODEL 1
REMARK VINA RESULT:      -8.0      0.000      0.000
REMARK  3 active torsions:
REMARK  status: ('A' for Active; 'I' for Inactive)
REMARK    1  A    between atoms: C3_9  and  N1_6 
REMARK       I    between atoms: C7_13  and  N1_6 
REMARK    2  A    between atoms: C1_7  and  C3_9 
REMARK    3  A    between atoms: C7_13  and  C8_14 
ROOT
HETATM    1 Br1  UNK     1      18.292   2.288  28.992  1.00  0.00    -0.051 Br
HETATM    2  O3  UNK     1      20.865  -2.948  30.657  1.00  0.00    -0.274 OA
HETATM    3  O4  UNK     1      21.585  -4.374  32.291  1.00  0.00    -0.259 OA
HETATM    4  C8  UNK     1      20.606  -2.340  33.011  1.00  0.00     0.108 A 
HETATM    5  C9  UNK     1      20.036  -1.177  32.676  1.00  0.00     0.037 A 
HETATM    6  C10 UNK     1      19.845  -0.830  31.276  1.00  0.00     0.000 A 
HETATM    7  C11 UNK     1      21.061  -3.307  31.988  1.00  0.00     0.304 A 
HETATM    8  C12 UNK     1      20.265  -1.725  30.298  1.00  0.00     0.089 A 
HETATM    9  C13 UNK     1      19.254   0.372  30.881  1.00  0.00     0.033 A 
HETATM   10  C14 UNK     1      20.110  -1.454  28.940  1.00  0.00     0.039 A 
HETATM   11  C15 UNK     1      19.093   0.659  29.522  1.00  0.00     0.011 A 
HETATM   12  C16 UNK     1      19.520  -0.252  28.554  1.00  0.00     0.022 A 
ENDROOT
BRANCH   4  13
HETATM   13  C7  UNK     1      20.756  -2.599  34.448  1.00  0.00     0.258 C 
HETATM   14  O2  UNK     1      21.601  -2.003  35.112  1.00  0.00    -0.267 OA
HETATM   15  N1  UNK     1      19.868  -3.550  34.919  1.00  0.00    -0.350 N 
HETATM   16  H12 UNK     1      19.189  -3.966  34.290  1.00  0.00     0.163 HD
BRANCH  15  17
HETATM   17  C3  UNK     1      19.827  -3.973  36.301  1.00  0.00     0.109 C 
HETATM   18  C6  UNK     1      18.695  -3.266  37.032  1.00  0.00     0.035 C 
BRANCH  17  19
HETATM   19  C1  UNK     1      19.687  -5.480  36.392  1.00  0.00     0.143 C 
HETATM   20  O1  UNK     1      18.336  -5.823  36.748  1.00  0.00    -0.384 OA
HETATM   21  C5  UNK     1      17.934  -6.956  35.964  1.00  0.00     0.168 C 
HETATM   22  C4  UNK     1      19.171  -7.464  35.254  1.00  0.00     0.029 C 
HETATM   23  C2  UNK     1      19.974  -6.198  35.085  1.00  0.00     0.036 C 
ENDBRANCH  17  19
ENDBRANCH  15  17
ENDBRANCH   4  13
TORSDOF 3
ENDMDL
MODEL 2
REMARK VINA RESULT:      -8.0     25.602     27.350
REMARK  3 active torsions:
REMARK  status: ('A' for Active; 'I' for Inactive)
REMARK    1  A    between atoms: C3_9  and  N1_6 
REMARK       I    between atoms: C7_13  and  N1_6 
REMARK    2  A    between atoms: C1_7  and  C3_9 
REMARK    3  A    between atoms: C7_13  and  C8_14 
ROOT
HETATM    1 Br1  UNK     1      18.018  11.015   9.158  1.00  0.00    -0.051 Br
HETATM    2  O3  UNK     1      14.222   6.428  10.322  1.00  0.00    -0.274 OA
HETATM    3  O4  UNK     1      12.132   5.507  10.224  1.00  0.00    -0.259 OA
HETATM    4  C8  UNK     1      12.385   7.670   9.290  1.00  0.00     0.108 A 
HETATM    5  C9  UNK     1      13.197   8.699   9.021  1.00  0.00     0.037 A 
HETATM    6  C10 UNK     1      14.602   8.643   9.397  1.00  0.00     0.000 A 
HETATM    7  C11 UNK     1      12.874   6.452   9.974  1.00  0.00     0.304 A 
HETATM    8  C12 UNK     1      15.081   7.507  10.040  1.00  0.00     0.089 A 
HETATM    9  C13 UNK     1      15.485   9.693   9.134  1.00  0.00     0.033 A 
HETATM   10  C14 UNK     1      16.415   7.390  10.425  1.00  0.00     0.039 A 
HETATM   11  C15 UNK     1      16.826   9.591   9.516  1.00  0.00     0.011 A 
HETATM   12  C16 UNK     1      17.290   8.441  10.160  1.00  0.00     0.022 A 
ENDROOT
BRANCH   4  13
HETATM   13  C7  UNK     1      10.986   7.820   8.873  1.00  0.00     0.258 C 
HETATM   14  O2  UNK     1      10.315   8.779   9.250  1.00  0.00    -0.267 OA
HETATM   15  N1  UNK     1      10.557   6.795   8.050  1.00  0.00    -0.350 N 
HETATM   16  H12 UNK     1      11.201   6.060   7.776  1.00  0.00     0.163 HD
BRANCH  15  17
HETATM   17  C3  UNK     1       9.217   6.725   7.513  1.00  0.00     0.109 C 
HETATM   18  C6  UNK     1       9.259   6.306   6.050  1.00  0.00     0.035 C 
BRANCH  17  19
HETATM   19  C1  UNK     1       8.363   5.777   8.333  1.00  0.00     0.143 C 
HETATM   20  O1  UNK     1       9.191   4.759   8.920  1.00  0.00    -0.384 OA
HETATM   21  C5  UNK     1       8.752   4.537  10.267  1.00  0.00     0.168 C 
HETATM   22  C4  UNK     1       7.456   5.300  10.441  1.00  0.00     0.029 C 
HETATM   23  C2  UNK     1       7.644   6.453   9.488  1.00  0.00     0.036 C 
ENDBRANCH  17  19
ENDBRANCH  15  17
ENDBRANCH   4  13
TORSDOF 3
ENDMDL
MODEL 3
REMARK VINA RESULT:      -7.9      6.357      9.527
REMARK  3 active torsions:
REMARK  status: ('A' for Active; 'I' for Inactive)
REMARK    1  A    between atoms: C3_9  and  N1_6 
REMARK       I    between atoms: C7_13  and  N1_6 
REMARK    2  A    between atoms: C1_7  and  C3_9 
REMARK    3  A    between atoms: C7_13  and  C8_14 
ROOT
HETATM    1 Br1  UNK     1      17.880  -0.403  37.570  1.00  0.00    -0.051 Br
HETATM    2  O3  UNK     1      18.749   0.609  31.651  1.00  0.00    -0.274 OA
HETATM    3  O4  UNK     1      18.854   2.046  29.878  1.00  0.00    -0.259 OA
HETATM    4  C8  UNK     1      18.364   2.999  31.991  1.00  0.00     0.108 A 
HETATM    5  C9  UNK     1      18.166   2.809  33.300  1.00  0.00     0.037 A 
HETATM    6  C10 UNK     1      18.253   1.471  33.869  1.00  0.00     0.000 A 
HETATM    7  C11 UNK     1      18.673   1.875  31.079  1.00  0.00     0.304 A 
HETATM    8  C12 UNK     1      18.542   0.401  33.029  1.00  0.00     0.089 A 
HETATM    9  C13 UNK     1      18.055   1.227  35.230  1.00  0.00     0.033 A 
HETATM   10  C14 UNK     1      18.641  -0.902  33.510  1.00  0.00     0.039 A 
HETATM   11  C15 UNK     1      18.149  -0.076  35.727  1.00  0.00     0.011 A 
HETATM   12  C16 UNK     1      18.442  -1.138  34.868  1.00  0.00     0.022 A 
ENDROOT
BRANCH   4  13
HETATM   13  C7  UNK     1      18.255   4.382  31.513  1.00  0.00     0.258 C 
HETATM   14  O2  UNK     1      18.864   4.754  30.512  1.00  0.00    -0.267 OA
HETATM   15  N1  UNK     1      17.422   5.159  32.298  1.00  0.00    -0.350 N 
HETATM   16  H12 UNK     1      16.943   4.748  33.093  1.00  0.00     0.163 HD
BRANCH  15  17
HETATM   17  C3  UNK     1      17.160   6.555  32.027  1.00  0.00     0.109 C 
HETATM   18  C6  UNK     1      15.792   6.946  32.567  1.00  0.00     0.035 C 
BRANCH  17  19
HETATM   19  C1  UNK     1      18.254   7.427  32.612  1.00  0.00     0.143 C 
HETATM   20  O1  UNK     1      17.775   8.773  32.765  1.00  0.00    -0.384 OA
HETATM   21  C5  UNK     1      18.242   9.282  34.023  1.00  0.00     0.168 C 
HETATM   22  C4  UNK     1      19.235   8.275  34.565  1.00  0.00     0.029 C 
HETATM   23  C2  UNK     1      18.712   6.983  33.990  1.00  0.00     0.036 C 
ENDBRANCH  17  19
ENDBRANCH  15  17
ENDBRANCH   4  13
TORSDOF 3
ENDMDL
MODEL 4
REMARK VINA RESULT:      -7.8      5.733      8.945
REMARK  3 active torsions:
REMARK  status: ('A' for Active; 'I' for Inactive)
REMARK    1  A    between atoms: C3_9  and  N1_6 
REMARK       I    between atoms: C7_13  and  N1_6 
REMARK    2  A    between atoms: C1_7  and  C3_9 
REMARK    3  A    between atoms: C7_13  and  C8_14 
ROOT
HETATM    1 Br1  UNK     1      21.000  -3.200  31.942  1.00  0.00    -0.051 Br
HETATM    2  O3  UNK     1      18.975   1.458  28.623  1.00  0.00    -0.274 OA
HETATM    3  O4  UNK     1      18.173   3.593  28.481  1.00  0.00    -0.259 OA
HETATM    4  C8  UNK     1      18.672   2.788  30.653  1.00  0.00     0.108 A 
HETATM    5  C9  UNK     1      19.113   1.779  31.412  1.00  0.00     0.037 A 
HETATM    6  C10 UNK     1      19.520   0.523  30.800  1.00  0.00     0.000 A 
HETATM    7  C11 UNK     1      18.578   2.671  29.180  1.00  0.00     0.304 A 
HETATM    8  C12 UNK     1      19.441   0.392  29.417  1.00  0.00     0.089 A 
HETATM    9  C13 UNK     1      19.989  -0.556  31.553  1.00  0.00     0.033 A 
HETATM   10  C14 UNK     1      19.816  -0.782  28.769  1.00  0.00     0.039 A 
HETATM   11  C15 UNK     1      20.367  -1.741  30.917  1.00  0.00     0.011 A 
HETATM   12  C16 UNK     1      20.281  -1.854  29.528  1.00  0.00     0.022 A 
ENDROOT
BRANCH   4  13
HETATM   13  C7  UNK     1      18.285   4.013  31.362  1.00  0.00     0.258 C 
HETATM   14  O2  UNK     1      17.481   3.976  32.292  1.00  0.00    -0.267 OA
HETATM   15  N1  UNK     1      18.911   5.143  30.867  1.00  0.00    -0.350 N 
HETATM   16  H12 UNK     1      19.581   5.061  30.109  1.00  0.00     0.163 HD
BRANCH  15  17
HETATM   17  C3  UNK     1      18.686   6.466  31.404  1.00  0.00     0.109 C 
HETATM   18  C6  UNK     1      17.260   6.914  31.116  1.00  0.00     0.035 C 
BRANCH  17  19
HETATM   19  C1  UNK     1      18.985   6.497  32.890  1.00  0.00     0.143 C 
HETATM   20  O1  UNK     1      20.165   7.281  33.134  1.00  0.00    -0.384 OA
HETATM   21  C5  UNK     1      19.941   8.087  34.300  1.00  0.00     0.168 C 
HETATM   22  C4  UNK     1      18.646   7.612  34.924  1.00  0.00     0.029 C 
HETATM   23  C2  UNK     1      17.879   7.128  33.719  1.00  0.00     0.036 C 
ENDBRANCH  17  19
ENDBRANCH  15  17
ENDBRANCH   4  13
TORSDOF 3
ENDMDL
MODEL 5
REMARK VINA RESULT:      -7.6      2.246      3.285
REMARK  3 active torsions:
REMARK  status: ('A' for Active; 'I' for Inactive)
REMARK    1  A    between atoms: C3_9  and  N1_6 
REMARK       I    between atoms: C7_13  and  N1_6 
REMARK    2  A    between atoms: C1_7  and  C3_9 
REMARK    3  A    between atoms: C7_13  and  C8_14 
ROOT
HETATM    1 Br1  UNK     1      20.505  -0.699  28.914  1.00  0.00    -0.051 Br
HETATM    2  O3  UNK     1      18.699  -0.403  34.698  1.00  0.00    -0.274 OA
HETATM    3  O4  UNK     1      18.617  -1.296  36.800  1.00  0.00    -0.259 OA
HETATM    4  C8  UNK     1      19.796  -2.538  35.162  1.00  0.00     0.108 A 
HETATM    5  C9  UNK     1      20.208  -2.633  33.893  1.00  0.00     0.037 A 
HETATM    6  C10 UNK     1      19.879  -1.588  32.934  1.00  0.00     0.000 A 
HETATM    7  C11 UNK     1      18.998  -1.386  35.637  1.00  0.00     0.304 A 
HETATM    8  C12 UNK     1      19.130  -0.496  33.361  1.00  0.00     0.089 A 
HETATM    9  C13 UNK     1      20.289  -1.646  31.601  1.00  0.00     0.033 A 
HETATM   10  C14 UNK     1      18.783   0.538  32.494  1.00  0.00     0.039 A 
HETATM   11  C15 UNK     1      19.947  -0.617  30.719  1.00  0.00     0.011 A 
HETATM   12  C16 UNK     1      19.195   0.473  31.165  1.00  0.00     0.022 A 
ENDROOT
BRANCH   4  13
HETATM   13  C7  UNK     1      20.177  -3.641  36.052  1.00  0.00     0.258 C 
HETATM   14  O2  UNK     1      21.125  -3.528  36.827  1.00  0.00    -0.267 OA
HETATM   15  N1  UNK     1      19.370  -4.755  35.905  1.00  0.00    -0.350 N 
HETATM   16  H12 UNK     1      18.594  -4.737  35.252  1.00  0.00     0.163 HD
BRANCH  15  17
HETATM   17  C3  UNK     1      19.553  -5.966  36.672  1.00  0.00     0.109 C 
HETATM   18  C6  UNK     1      18.231  -6.710  36.801  1.00  0.00     0.035 C 
BRANCH  17  19
HETATM   19  C1  UNK     1      20.618  -6.842  36.042  1.00  0.00     0.143 C 
HETATM   20  O1  UNK     1      21.688  -7.058  36.977  1.00  0.00    -0.384 OA
HETATM   21  C5  UNK     1      22.097  -8.431  36.891  1.00  0.00     0.168 C 
HETATM   22  C4  UNK     1      21.391  -9.027  35.692  1.00  0.00     0.029 C 
HETATM   23  C2  UNK     1      20.117  -8.220  35.648  1.00  0.00     0.036 C 
ENDBRANCH  17  19
ENDBRANCH  15  17
ENDBRANCH   4  13
TORSDOF 3
ENDMDL
MODEL 6
REMARK VINA RESULT:      -7.6     25.836     27.791
REMARK  3 active torsions:
REMARK  status: ('A' for Active; 'I' for Inactive)
REMARK    1  A    between atoms: C3_9  and  N1_6 
REMARK       I    between atoms: C7_13  and  N1_6 
REMARK    2  A    between atoms: C1_7  and  C3_9 
REMARK    3  A    between atoms: C7_13  and  C8_14 
ROOT
HETATM    1 Br1  UNK     1      17.218  10.293  10.087  1.00  0.00    -0.051 Br
HETATM    2  O3  UNK     1      14.090   5.212   8.987  1.00  0.00    -0.274 OA
HETATM    3  O4  UNK     1      12.215   4.166   8.204  1.00  0.00    -0.259 OA
HETATM    4  C8  UNK     1      12.247   6.532   8.070  1.00  0.00     0.108 A 
HETATM    5  C9  UNK     1      12.911   7.670   8.301  1.00  0.00     0.037 A 
HETATM    6  C10 UNK     1      14.236   7.637   8.903  1.00  0.00     0.000 A 
HETATM    7  C11 UNK     1      12.821   5.212   8.413  1.00  0.00     0.304 A 
HETATM    8  C12 UNK     1      14.794   6.407   9.232  1.00  0.00     0.089 A 
HETATM    9  C13 UNK     1      14.965   8.800   9.160  1.00  0.00     0.033 A 
HETATM   10  C14 UNK     1      16.059   6.307   9.809  1.00  0.00     0.039 A 
HETATM   11  C15 UNK     1      16.234   8.715   9.740  1.00  0.00     0.011 A 
HETATM   12  C16 UNK     1      16.780   7.471  10.064  1.00  0.00     0.022 A 
ENDROOT
BRANCH   4  13
HETATM   13  C7  UNK     1      10.918   6.668   7.461  1.00  0.00     0.258 C 
HETATM   14  O2  UNK     1      10.794   7.019   6.289  1.00  0.00    -0.267 OA
HETATM   15  N1  UNK     1       9.891   6.365   8.336  1.00  0.00    -0.350 N 
HETATM   16  H12 UNK     1      10.102   6.058   9.281  1.00  0.00     0.163 HD
BRANCH  15  17
HETATM   17  C3  UNK     1       8.496   6.429   7.965  1.00  0.00     0.109 C 
HETATM   18  C6  UNK     1       7.801   5.118   8.309  1.00  0.00     0.035 C 
BRANCH  17  19
HETATM   19  C1  UNK     1       7.817   7.605   8.640  1.00  0.00     0.143 C 
HETATM   20  O1  UNK     1       6.525   7.207   9.130  1.00  0.00    -0.384 OA
HETATM   21  C5  UNK     1       6.333   7.790  10.428  1.00  0.00     0.168 C 
HETATM   22  C4  UNK     1       7.469   8.766  10.647  1.00  0.00     0.029 C 
HETATM   23  C2  UNK     1       8.579   8.138   9.842  1.00  0.00     0.036 C 
ENDBRANCH  17  19
ENDBRANCH  15  17
ENDBRANCH   4  13
TORSDOF 3
ENDMDL
MODEL 7
REMARK VINA RESULT:      -7.4      6.921     10.022
REMARK  3 active torsions:
REMARK  status: ('A' for Active; 'I' for Inactive)
REMARK    1  A    between atoms: C3_9  and  N1_6 
REMARK       I    between atoms: C7_13  and  N1_6 
REMARK    2  A    between atoms: C1_7  and  C3_9 
REMARK    3  A    between atoms: C7_13  and  C8_14 
ROOT
HETATM    1 Br1  UNK     1      18.076  -1.076  37.971  1.00  0.00    -0.051 Br
HETATM    2  O3  UNK     1      18.303   1.332  32.407  1.00  0.00    -0.274 OA
HETATM    3  O4  UNK     1      18.380   3.160  31.037  1.00  0.00    -0.259 OA
HETATM    4  C8  UNK     1      18.311   3.581  33.368  1.00  0.00     0.108 A 
HETATM    5  C9  UNK     1      18.260   3.081  34.608  1.00  0.00     0.037 A 
HETATM    6  C10 UNK     1      18.228   1.641  34.817  1.00  0.00     0.000 A 
HETATM    7  C11 UNK     1      18.334   2.705  32.175  1.00  0.00     0.304 A 
HETATM    8  C12 UNK     1      18.250   0.800  33.710  1.00  0.00     0.089 A 
HETATM    9  C13 UNK     1      18.176   1.075  36.093  1.00  0.00     0.033 A 
HETATM   10  C14 UNK     1      18.223  -0.587  33.842  1.00  0.00     0.039 A 
HETATM   11  C15 UNK     1      18.147  -0.314  36.241  1.00  0.00     0.011 A 
HETATM   12  C16 UNK     1      18.171  -1.144  35.118  1.00  0.00     0.022 A 
ENDROOT
BRANCH   4  13
HETATM   13  C7  UNK     1      18.339   5.044  33.259  1.00  0.00     0.258 C 
HETATM   14  O2  UNK     1      19.247   5.698  33.769  1.00  0.00    -0.267 OA
HETATM   15  N1  UNK     1      17.267   5.552  32.548  1.00  0.00    -0.350 N 
HETATM   16  H12 UNK     1      16.581   4.922  32.144  1.00  0.00     0.163 HD
BRANCH  15  17
HETATM   17  C3  UNK     1      17.078   6.965  32.310  1.00  0.00     0.109 C 
HETATM   18  C6  UNK     1      17.417   7.304  30.866  1.00  0.00     0.035 C 
BRANCH  17  19
HETATM   19  C1  UNK     1      15.660   7.379  32.655  1.00  0.00     0.143 C 
HETATM   20  O1  UNK     1      15.483   7.370  34.082  1.00  0.00    -0.384 OA
HETATM   21  C5  UNK     1      14.717   8.526  34.451  1.00  0.00     0.168 C 
HETATM   22  C4  UNK     1      14.217   9.153  33.168  1.00  0.00     0.029 C 
HETATM   23  C2  UNK     1      15.308   8.782  32.195  1.00  0.00     0.036 C 
ENDBRANCH  17  19
ENDBRANCH  15  17
ENDBRANCH   4  13
TORSDOF 3
ENDMDL
MODEL 8
REMARK VINA RESULT:      -7.4     25.510     27.331
REMARK  3 active torsions:
REMARK  status: ('A' for Active; 'I' for Inactive)
REMARK    1  A    between atoms: C3_9  and  N1_6 
REMARK       I    between atoms: C7_13  and  N1_6 
REMARK    2  A    between atoms: C1_7  and  C3_9 
REMARK    3  A    between atoms: C7_13  and  C8_14 
ROOT
HETATM    1 Br1  UNK     1       6.818   4.688   9.879  1.00  0.00    -0.051 Br
HETATM    2  O3  UNK     1      11.690   6.694   6.873  1.00  0.00    -0.274 OA
HETATM    3  O4  UNK     1      13.955   6.953   6.711  1.00  0.00    -0.259 OA
HETATM    4  C8  UNK     1      13.148   5.838   8.639  1.00  0.00     0.108 A 
HETATM    5  C9  UNK     1      12.093   5.385   9.327  1.00  0.00     0.037 A 
HETATM    6  C10 UNK     1      10.746   5.567   8.808  1.00  0.00     0.000 A 
HETATM    7  C11 UNK     1      12.991   6.535   7.343  1.00  0.00     0.304 A 
HETATM    8  C12 UNK     1      10.576   6.219   7.591  1.00  0.00     0.089 A 
HETATM    9  C13 UNK     1       9.617   5.109   9.491  1.00  0.00     0.033 A 
HETATM   10  C14 UNK     1       9.313   6.424   7.039  1.00  0.00     0.039 A 
HETATM   11  C15 UNK     1       8.343   5.309   8.951  1.00  0.00     0.011 A 
HETATM   12  C16 UNK     1       8.193   5.965   7.727  1.00  0.00     0.022 A 
ENDROOT
BRANCH   4  13
HETATM   13  C7  UNK     1      14.465   5.607   9.244  1.00  0.00     0.258 C 
HETATM   14  O2  UNK     1      14.873   4.466   9.451  1.00  0.00    -0.267 OA
HETATM   15  N1  UNK     1      15.138   6.780   9.532  1.00  0.00    -0.350 N 
HETATM   16  H12 UNK     1      14.722   7.676   9.297  1.00  0.00     0.163 HD
BRANCH  15  17
HETATM   17  C3  UNK     1      16.453   6.807  10.133  1.00  0.00     0.109 C 
HETATM   18  C6  UNK     1      17.496   6.325   9.135  1.00  0.00     0.035 C 
BRANCH  17  19
HETATM   19  C1  UNK     1      16.778   8.198  10.642  1.00  0.00     0.143 C 
HETATM   20  O1  UNK     1      17.575   8.898   9.672  1.00  0.00    -0.384 OA
HETATM   21  C5  UNK     1      17.107  10.252   9.593  1.00  0.00     0.168 C 
HETATM   22  C4  UNK     1      16.122  10.447  10.726  1.00  0.00     0.029 C 
HETATM   23  C2  UNK     1      15.551   9.060  10.882  1.00  0.00     0.036 C 
ENDBRANCH  17  19
ENDBRANCH  15  17
ENDBRANCH   4  13
TORSDOF 3
ENDMDL
MODEL 9
REMARK VINA RESULT:      -7.4      7.191      9.897
REMARK  3 active torsions:
REMARK  status: ('A' for Active; 'I' for Inactive)
REMARK    1  A    between atoms: C3_9  and  N1_6 
REMARK       I    between atoms: C7_13  and  N1_6 
REMARK    2  A    between atoms: C1_7  and  C3_9 
REMARK    3  A    between atoms: C7_13  and  C8_14 
ROOT
HETATM    1 Br1  UNK     1      30.400  -9.510  38.179  1.00  0.00    -0.051 Br
HETATM    2  O3  UNK     1      25.831  -5.554  38.718  1.00  0.00    -0.274 OA
HETATM    3  O4  UNK     1      23.609  -5.119  39.022  1.00  0.00    -0.259 OA
HETATM    4  C8  UNK     1      24.251  -7.400  38.995  1.00  0.00     0.108 A 
HETATM    5  C9  UNK     1      25.237  -8.297  38.879  1.00  0.00     0.037 A 
HETATM    6  C10 UNK     1      26.609  -7.857  38.672  1.00  0.00     0.000 A 
HETATM    7  C11 UNK     1      24.510  -5.945  38.917  1.00  0.00     0.304 A 
HETATM    8  C12 UNK     1      26.873  -6.494  38.596  1.00  0.00     0.089 A 
HETATM    9  C13 UNK     1      27.668  -8.758  38.547  1.00  0.00     0.033 A 
HETATM   10  C14 UNK     1      28.165  -6.008  38.400  1.00  0.00     0.039 A 
HETATM   11  C15 UNK     1      28.969  -8.286  38.349  1.00  0.00     0.011 A 
HETATM   12  C16 UNK     1      29.216  -6.913  38.276  1.00  0.00     0.022 A 
ENDROOT
BRANCH   4  13
HETATM   13  C7  UNK     1      22.902  -7.940  39.201  1.00  0.00     0.258 C 
HETATM   14  O2  UNK     1      22.651  -8.658  40.167  1.00  0.00    -0.267 OA
HETATM   15  N1  UNK     1      22.011  -7.554  38.216  1.00  0.00    -0.350 N 
HETATM   16  H12 UNK     1      22.315  -6.936  37.471  1.00  0.00     0.163 HD
BRANCH  15  17
HETATM   17  C3  UNK     1      20.625  -7.963  38.203  1.00  0.00     0.109 C 
HETATM   18  C6  UNK     1      19.801  -7.053  39.103  1.00  0.00     0.035 C 
BRANCH  17  19
HETATM   19  C1  UNK     1      20.085  -7.974  36.787  1.00  0.00     0.143 C 
HETATM   20  O1  UNK     1      19.436  -6.723  36.503  1.00  0.00    -0.384 OA
HETATM   21  C5  UNK     1      19.789  -6.320  35.172  1.00  0.00     0.168 C 
HETATM   22  C4  UNK     1      20.511  -7.487  34.534  1.00  0.00     0.029 C 
HETATM   23  C2  UNK     1      21.161  -8.141  35.727  1.00  0.00     0.036 C 
ENDBRANCH  17  19
ENDBRANCH  15  17
ENDBRANCH   4  13
TORSDOF 3
ENDMDL
MODEL 10
REMARK VINA RESULT:      -7.4      8.731     10.816
REMARK  3 active torsions:
REMARK  status: ('A' for Active; 'I' for Inactive)
REMARK    1  A    between atoms: C3_9  and  N1_6 
REMARK       I    between atoms: C7_13  and  N1_6 
REMARK    2  A    between atoms: C1_7  and  C3_9 
REMARK    3  A    between atoms: C7_13  and  C8_14 
ROOT
HETATM    1 Br1  UNK     1      33.353  -7.307  37.889  1.00  0.00    -0.051 Br
HETATM    2  O3  UNK     1      27.850  -4.920  38.801  1.00  0.00    -0.274 OA
HETATM    3  O4  UNK     1      25.584  -5.163  38.969  1.00  0.00    -0.259 OA
HETATM    4  C8  UNK     1      26.834  -7.127  38.523  1.00  0.00     0.108 A 
HETATM    5  C9  UNK     1      28.033  -7.683  38.317  1.00  0.00     0.037 A 
HETATM    6  C10 UNK     1      29.236  -6.864  38.344  1.00  0.00     0.000 A 
HETATM    7  C11 UNK     1      26.682  -5.677  38.781  1.00  0.00     0.304 A 
HETATM    8  C12 UNK     1      29.116  -5.499  38.586  1.00  0.00     0.089 A 
HETATM    9  C13 UNK     1      30.508  -7.402  38.136  1.00  0.00     0.033 A 
HETATM   10  C14 UNK     1      30.228  -4.661  38.626  1.00  0.00     0.039 A 
HETATM   11  C15 UNK     1      31.633  -6.573  38.172  1.00  0.00     0.011 A 
HETATM   12  C16 UNK     1      31.492  -5.205  38.417  1.00  0.00     0.022 A 
ENDROOT
BRANCH   4  13
HETATM   13  C7  UNK     1      25.681  -8.034  38.476  1.00  0.00     0.258 C 
HETATM   14  O2  UNK     1      25.823  -9.220  38.186  1.00  0.00    -0.267 OA
HETATM   15  N1  UNK     1      24.488  -7.404  38.782  1.00  0.00    -0.350 N 
HETATM   16  H12 UNK     1      24.482  -6.421  39.034  1.00  0.00     0.163 HD
BRANCH  15  17
HETATM   17  C3  UNK     1      23.217  -8.091  38.799  1.00  0.00     0.109 C 
HETATM   18  C6  UNK     1      22.508  -7.852  40.124  1.00  0.00     0.035 C 
BRANCH  17  19
HETATM   19  C1  UNK     1      22.358  -7.653  37.628  1.00  0.00     0.143 C 
HETATM   20  O1  UNK     1      22.731  -8.386  36.449  1.00  0.00    -0.384 OA
HETATM   21  C5  UNK     1      21.536  -8.751  35.744  1.00  0.00     0.168 C 
HETATM   22  C4  UNK     1      20.390  -8.019  36.409  1.00  0.00     0.029 C 
HETATM   23  C2  UNK     1      20.875  -7.909  37.832  1.00  0.00     0.036 C 
ENDBRANCH  17  19
ENDBRANCH  15  17
ENDBRANCH   4  13
TORSDOF 3
ENDMDL
