MODEL 1
REMARK VINA RESULT:      -9.7      0.000      0.000
REMARK  7 active torsions:
REMARK  status: ('A' for Active; 'I' for Inactive)
REMARK    1  A    between atoms: C15_23  and  O3_4 
REMARK    2  A    between atoms: C23_31  and  O3_4 
REMARK    3  A    between atoms: C5_13  and  N1_6 
REMARK    4  A    between atoms: C6_14  and  N2_7 
REMARK    5  A    between atoms: C16_24  and  N3_8 
REMARK       I    between atoms: C9_17  and  N3_8 
REMARK    6  A    between atoms: C5_13  and  C7_15 
REMARK    7  A    between atoms: C6_14  and  C9_17 
ROOT
HETATM    1  N1  UNK     1      19.287  -3.056  36.230  1.00  0.00     0.096 N 
HETATM    2  N2  UNK     1      18.360  -0.448  35.395  1.00  0.00     0.100 N 
HETATM    3  C1  UNK     1      19.969  -2.308  35.165  1.00  0.00     0.303 C 
HETATM    4  C2  UNK     1      18.653  -2.132  37.180  1.00  0.00     0.303 C 
HETATM    5  C3  UNK     1      18.993  -1.372  34.446  1.00  0.00     0.303 C 
HETATM    6  C4  UNK     1      17.679  -1.194  36.460  1.00  0.00     0.303 C 
ENDROOT
BRANCH   1   7
HETATM    7  C5  UNK     1      20.221  -3.947  36.918  1.00  0.00     0.312 C 
BRANCH   7   8
HETATM    8  C7  UNK     1      19.841  -5.379  36.771  1.00  0.00    -0.011 A 
HETATM    9  C10 UNK     1      18.694  -5.734  36.176  1.00  0.00     0.092 A 
HETATM   10  C13 UNK     1      18.276  -7.136  36.007  1.00  0.00     0.288 A 
HETATM   11  O1  UNK     1      19.135  -8.106  36.500  1.00  0.00    -0.275 OA
HETATM   12  O4  UNK     1      17.219  -7.423  35.457  1.00  0.00    -0.260 OA
HETATM   13  C11 UNK     1      20.348  -7.763  37.130  1.00  0.00     0.090 A 
HETATM   14  C8  UNK     1      20.731  -6.430  37.283  1.00  0.00     0.009 A 
HETATM   15  C14 UNK     1      21.135  -8.822  37.588  1.00  0.00     0.041 A 
HETATM   16  C12 UNK     1      21.952  -6.173  37.923  1.00  0.00     0.051 A 
HETATM   17  C15 UNK     1      22.751  -7.224  38.388  1.00  0.00     0.069 A 
HETATM   18  C17 UNK     1      22.342  -8.545  38.221  1.00  0.00     0.039 A 
BRANCH  17  19
HETATM   19  O3  UNK     1      23.932  -6.953  39.007  1.00  0.00    -0.351 OA
BRANCH  19  20
HETATM   20  C23 UNK     1      24.933  -7.969  38.971  1.00  0.00     0.171 C 
HETATM   21  C25 UNK     1      26.252  -7.348  38.566  1.00  0.00     0.034 C 
ENDBRANCH  19  20
ENDBRANCH  17  19
ENDBRANCH   7   8
ENDBRANCH   1   7
BRANCH   2  22
HETATM   22  C6  UNK     1      17.428   0.444  34.709  1.00  0.00     0.375 C 
BRANCH  22  23
HETATM   23  C9  UNK     1      18.166   1.694  34.256  1.00  0.00     0.250 C 
HETATM   24  O2  UNK     1      19.014   2.247  34.949  1.00  0.00    -0.271 OA
HETATM   25  N3  UNK     1      17.737   2.073  32.987  1.00  0.00    -0.325 N 
HETATM   26  H15 UNK     1      17.026   1.496  32.547  1.00  0.00     0.169 HD
BRANCH  25  27
HETATM   27  C16 UNK     1      18.178   3.179  32.221  1.00  0.00     0.041 A 
HETATM   28  C18 UNK     1      18.645   3.005  30.917  1.00  0.00    -0.032 A 
HETATM   29  C20 UNK     1      19.077   4.106  30.179  1.00  0.00     0.051 A 
HETATM   30  C21 UNK     1      18.696   1.650  30.289  1.00  0.00     0.050 C 
HETATM   31  C24 UNK     1      19.042   5.382  30.742  1.00  0.00     0.117 A 
HETATM   32  C22 UNK     1      18.575   5.555  32.045  1.00  0.00     0.044 A 
HETATM   33  F1  UNK     1      19.456   6.439  30.033  1.00  0.00    -0.206 F 
HETATM   34  C19 UNK     1      18.143   4.453  32.785  1.00  0.00     0.033 A 
ENDBRANCH  25  27
ENDBRANCH  22  23
ENDBRANCH   2  22
TORSDOF 7
ENDMDL
MODEL 2
REMARK VINA RESULT:      -9.4      5.948      8.645
REMARK  7 active torsions:
REMARK  status: ('A' for Active; 'I' for Inactive)
REMARK    1  A    between atoms: C15_23  and  O3_4 
REMARK    2  A    between atoms: C23_31  and  O3_4 
REMARK    3  A    between atoms: C5_13  and  N1_6 
REMARK    4  A    between atoms: C6_14  and  N2_7 
REMARK    5  A    between atoms: C16_24  and  N3_8 
REMARK       I    between atoms: C9_17  and  N3_8 
REMARK    6  A    between atoms: C5_13  and  C7_15 
REMARK    7  A    between atoms: C6_14  and  C9_17 
ROOT
HETATM    1  N1  UNK     1      18.869   3.645  31.312  1.00  0.00     0.096 N 
HETATM    2  N2  UNK     1      19.229   6.327  32.330  1.00  0.00     0.100 N 
HETATM    3  C1  UNK     1      17.985   4.193  32.349  1.00  0.00     0.303 C 
HETATM    4  C2  UNK     1      19.385   4.722  30.457  1.00  0.00     0.303 C 
HETATM    5  C3  UNK     1      18.715   5.250  33.184  1.00  0.00     0.303 C 
HETATM    6  C4  UNK     1      20.112   5.781  31.292  1.00  0.00     0.303 C 
ENDROOT
BRANCH   1   7
HETATM    7  C5  UNK     1      18.171   2.638  30.514  1.00  0.00     0.312 C 
BRANCH   7   8
HETATM    8  C7  UNK     1      18.899   1.340  30.486  1.00  0.00    -0.011 A 
HETATM    9  C10 UNK     1      19.552   0.935  29.388  1.00  0.00     0.092 A 
HETATM   10  C13 UNK     1      20.286  -0.339  29.313  1.00  0.00     0.288 A 
HETATM   11  O1  UNK     1      20.279  -1.130  30.451  1.00  0.00    -0.275 OA
HETATM   12  O4  UNK     1      20.872  -0.677  28.290  1.00  0.00    -0.260 OA
HETATM   13  C11 UNK     1      19.602  -0.731  31.621  1.00  0.00     0.090 A 
HETATM   14  C8  UNK     1      18.910   0.480  31.677  1.00  0.00     0.009 A 
HETATM   15  C14 UNK     1      19.662  -1.607  32.707  1.00  0.00     0.041 A 
HETATM   16  C12 UNK     1      18.261   0.803  32.877  1.00  0.00     0.051 A 
HETATM   17  C15 UNK     1      18.312  -0.065  33.974  1.00  0.00     0.069 A 
HETATM   18  C17 UNK     1      19.011  -1.267  33.888  1.00  0.00     0.039 A 
BRANCH  17  19
HETATM   19  O3  UNK     1      17.674   0.267  35.130  1.00  0.00    -0.351 OA
BRANCH  19  20
HETATM   20  C23 UNK     1      18.483   0.746  36.203  1.00  0.00     0.171 C 
HETATM   21  C25 UNK     1      17.683   0.692  37.486  1.00  0.00     0.034 C 
ENDBRANCH  19  20
ENDBRANCH  17  19
ENDBRANCH   7   8
ENDBRANCH   1   7
BRANCH   2  22
HETATM   22  C6  UNK     1      19.925   7.335  33.126  1.00  0.00     0.375 C 
BRANCH  22  23
HETATM   23  C9  UNK     1      18.942   7.991  34.082  1.00  0.00     0.250 C 
HETATM   24  O2  UNK     1      19.062   7.925  35.301  1.00  0.00    -0.271 OA
HETATM   25  N3  UNK     1      17.942   8.647  33.369  1.00  0.00    -0.325 N 
HETATM   26  H15 UNK     1      17.995   8.609  32.355  1.00  0.00     0.169 HD
BRANCH  25  27
HETATM   27  C16 UNK     1      16.845   9.375  33.889  1.00  0.00     0.041 A 
HETATM   28  C18 UNK     1      15.607   8.761  34.084  1.00  0.00    -0.032 A 
HETATM   29  C20 UNK     1      14.538   9.495  34.596  1.00  0.00     0.051 A 
HETATM   30  C21 UNK     1      15.398   7.320  33.750  1.00  0.00     0.050 C 
HETATM   31  C24 UNK     1      14.706  10.844  34.915  1.00  0.00     0.117 A 
HETATM   32  C22 UNK     1      15.944  11.457  34.720  1.00  0.00     0.044 A 
HETATM   33  F1  UNK     1      13.680  11.548  35.407  1.00  0.00    -0.206 F 
HETATM   34  C19 UNK     1      17.014  10.722  34.207  1.00  0.00     0.033 A 
ENDBRANCH  25  27
ENDBRANCH  22  23
ENDBRANCH   2  22
TORSDOF 7
ENDMDL
MODEL 3
REMARK VINA RESULT:      -9.3      4.187     11.141
REMARK  7 active torsions:
REMARK  status: ('A' for Active; 'I' for Inactive)
REMARK    1  A    between atoms: C15_23  and  O3_4 
REMARK    2  A    between atoms: C23_31  and  O3_4 
REMARK    3  A    between atoms: C5_13  and  N1_6 
REMARK    4  A    between atoms: C6_14  and  N2_7 
REMARK    5  A    between atoms: C16_24  and  N3_8 
REMARK       I    between atoms: C9_17  and  N3_8 
REMARK    6  A    between atoms: C5_13  and  C7_15 
REMARK    7  A    between atoms: C6_14  and  C9_17 
ROOT
HETATM    1  N1  UNK     1      19.244  -1.256  34.498  1.00  0.00     0.096 N 
HETATM    2  N2  UNK     1      19.802  -3.178  36.585  1.00  0.00     0.100 N 
HETATM    3  C1  UNK     1      20.196  -2.355  34.289  1.00  0.00     0.303 C 
HETATM    4  C2  UNK     1      18.214  -1.648  35.468  1.00  0.00     0.303 C 
HETATM    5  C3  UNK     1      20.831  -2.785  35.615  1.00  0.00     0.303 C 
HETATM    6  C4  UNK     1      18.849  -2.080  36.794  1.00  0.00     0.303 C 
ENDROOT
BRANCH   1   7
HETATM    7  C5  UNK     1      18.637  -0.848  33.232  1.00  0.00     0.312 C 
BRANCH   7   8
HETATM    8  C7  UNK     1      18.486   0.630  33.132  1.00  0.00    -0.011 A 
HETATM    9  C10 UNK     1      18.289   1.382  34.224  1.00  0.00     0.092 A 
HETATM   10  C13 UNK     1      18.136   2.845  34.174  1.00  0.00     0.288 A 
HETATM   11  O1  UNK     1      18.203   3.437  32.923  1.00  0.00    -0.275 OA
HETATM   12  O4  UNK     1      17.956   3.501  35.195  1.00  0.00    -0.260 OA
HETATM   13  C11 UNK     1      18.409   2.673  31.757  1.00  0.00     0.090 A 
HETATM   14  C8  UNK     1      18.554   1.286  31.819  1.00  0.00     0.009 A 
HETATM   15  C14 UNK     1      18.460   3.375  30.551  1.00  0.00     0.041 A 
HETATM   16  C12 UNK     1      18.754   0.598  30.614  1.00  0.00     0.051 A 
HETATM   17  C15 UNK     1      18.807   1.288  29.397  1.00  0.00     0.069 A 
HETATM   18  C17 UNK     1      18.660   2.673  29.366  1.00  0.00     0.039 A 
BRANCH  17  19
HETATM   19  O3  UNK     1      19.002   0.602  28.238  1.00  0.00    -0.351 OA
BRANCH  19  20
HETATM   20  C23 UNK     1      19.514  -0.725  28.348  1.00  0.00     0.171 C 
HETATM   21  C25 UNK     1      20.930  -0.666  28.879  1.00  0.00     0.034 C 
ENDBRANCH  19  20
ENDBRANCH  17  19
ENDBRANCH   7   8
ENDBRANCH   1   7
BRANCH   2  22
HETATM   22  C6  UNK     1      20.408  -3.587  37.850  1.00  0.00     0.375 C 
BRANCH  22  23
HETATM   23  C9  UNK     1      20.750  -5.067  37.790  1.00  0.00     0.250 C 
HETATM   24  O2  UNK     1      21.872  -5.474  37.506  1.00  0.00    -0.271 OA
HETATM   25  N3  UNK     1      19.630  -5.833  38.103  1.00  0.00    -0.325 N 
HETATM   26  H15 UNK     1      18.773  -5.333  38.323  1.00  0.00     0.169 HD
BRANCH  25  27
HETATM   27  C16 UNK     1      19.537  -7.245  38.157  1.00  0.00     0.041 A 
HETATM   28  C18 UNK     1      18.958  -7.964  37.111  1.00  0.00    -0.032 A 
HETATM   29  C20 UNK     1      18.874  -9.354  37.183  1.00  0.00     0.051 A 
HETATM   30  C21 UNK     1      18.418  -7.271  35.903  1.00  0.00     0.050 C 
HETATM   31  C24 UNK     1      19.369 -10.026  38.302  1.00  0.00     0.117 A 
HETATM   32  C22 UNK     1      19.948  -9.307  39.347  1.00  0.00     0.044 A 
HETATM   33  F1  UNK     1      19.288 -11.360  38.371  1.00  0.00    -0.206 F 
HETATM   34  C19 UNK     1      20.032  -7.915  39.275  1.00  0.00     0.033 A 
ENDBRANCH  25  27
ENDBRANCH  22  23
ENDBRANCH   2  22
TORSDOF 7
ENDMDL
MODEL 4
REMARK VINA RESULT:      -9.2      4.166     11.048
REMARK  7 active torsions:
REMARK  status: ('A' for Active; 'I' for Inactive)
REMARK    1  A    between atoms: C15_23  and  O3_4 
REMARK    2  A    between atoms: C23_31  and  O3_4 
REMARK    3  A    between atoms: C5_13  and  N1_6 
REMARK    4  A    between atoms: C6_14  and  N2_7 
REMARK    5  A    between atoms: C16_24  and  N3_8 
REMARK       I    between atoms: C9_17  and  N3_8 
REMARK    6  A    between atoms: C5_13  and  C7_15 
REMARK    7  A    between atoms: C6_14  and  C9_17 
ROOT
HETATM    1  N1  UNK     1      18.767  -1.034  35.133  1.00  0.00     0.096 N 
HETATM    2  N2  UNK     1      19.728  -3.110  36.901  1.00  0.00     0.100 N 
HETATM    3  C1  UNK     1      19.668  -2.089  34.652  1.00  0.00     0.303 C 
HETATM    4  C2  UNK     1      17.945  -1.529  36.245  1.00  0.00     0.303 C 
HETATM    5  C3  UNK     1      20.550  -2.613  35.791  1.00  0.00     0.303 C 
HETATM    6  C4  UNK     1      18.826  -2.056  37.382  1.00  0.00     0.303 C 
ENDROOT
BRANCH   1   7
HETATM    7  C5  UNK     1      17.925  -0.536  34.047  1.00  0.00     0.312 C 
BRANCH   7   8
HETATM    8  C7  UNK     1      18.652  -0.490  32.748  1.00  0.00    -0.011 A 
HETATM    9  C10 UNK     1      19.272  -1.574  32.262  1.00  0.00     0.092 A 
HETATM   10  C13 UNK     1      20.002  -1.577  30.984  1.00  0.00     0.288 A 
HETATM   11  O1  UNK     1      20.030  -0.384  30.279  1.00  0.00    -0.275 OA
HETATM   12  O4  UNK     1      20.558  -2.590  30.571  1.00  0.00    -0.260 OA
HETATM   13  C11 UNK     1      19.388   0.773  30.764  1.00  0.00     0.090 A 
HETATM   14  C8  UNK     1      18.699   0.760  31.978  1.00  0.00     0.009 A 
HETATM   15  C14 UNK     1      19.481   1.918  29.971  1.00  0.00     0.041 A 
HETATM   16  C12 UNK     1      18.089   1.953  32.392  1.00  0.00     0.051 A 
HETATM   17  C15 UNK     1      18.174   3.109  31.607  1.00  0.00     0.069 A 
HETATM   18  C17 UNK     1      18.869   3.091  30.400  1.00  0.00     0.039 A 
BRANCH  17  19
HETATM   19  O3  UNK     1      17.575   4.257  32.027  1.00  0.00    -0.351 OA
BRANCH  19  20
HETATM   20  C23 UNK     1      18.286   5.052  32.973  1.00  0.00     0.171 C 
HETATM   21  C25 UNK     1      18.975   6.187  32.246  1.00  0.00     0.034 C 
ENDBRANCH  19  20
ENDBRANCH  17  19
ENDBRANCH   7   8
ENDBRANCH   1   7
BRANCH   2  22
HETATM   22  C6  UNK     1      20.569  -3.609  37.987  1.00  0.00     0.375 C 
BRANCH  22  23
HETATM   23  C9  UNK     1      20.830  -5.092  37.782  1.00  0.00     0.250 C 
HETATM   24  O2  UNK     1      21.857  -5.516  37.263  1.00  0.00    -0.271 OA
HETATM   25  N3  UNK     1      19.761  -5.841  38.266  1.00  0.00    -0.325 N 
HETATM   26  H15 UNK     1      18.984  -5.329  38.675  1.00  0.00     0.169 HD
BRANCH  25  27
HETATM   27  C16 UNK     1      19.620  -7.250  38.261  1.00  0.00     0.041 A 
HETATM   28  C18 UNK     1      19.006  -7.904  37.192  1.00  0.00    -0.032 A 
HETATM   29  C20 UNK     1      18.876  -9.292  37.206  1.00  0.00     0.051 A 
HETATM   30  C21 UNK     1      18.478  -7.142  36.020  1.00  0.00     0.050 C 
HETATM   31  C24 UNK     1      19.359 -10.028  38.289  1.00  0.00     0.117 A 
HETATM   32  C22 UNK     1      19.972  -9.374  39.357  1.00  0.00     0.044 A 
HETATM   33  F1  UNK     1      19.233 -11.360  38.302  1.00  0.00    -0.206 F 
HETATM   34  C19 UNK     1      20.103  -7.984  39.344  1.00  0.00     0.033 A 
ENDBRANCH  25  27
ENDBRANCH  22  23
ENDBRANCH   2  22
TORSDOF 7
ENDMDL
MODEL 5
REMARK VINA RESULT:      -9.0      7.130     13.758
REMARK  7 active torsions:
REMARK  status: ('A' for Active; 'I' for Inactive)
REMARK    1  A    between atoms: C15_23  and  O3_4 
REMARK    2  A    between atoms: C23_31  and  O3_4 
REMARK    3  A    between atoms: C5_13  and  N1_6 
REMARK    4  A    between atoms: C6_14  and  N2_7 
REMARK    5  A    between atoms: C16_24  and  N3_8 
REMARK       I    between atoms: C9_17  and  N3_8 
REMARK    6  A    between atoms: C5_13  and  C7_15 
REMARK    7  A    between atoms: C6_14  and  C9_17 
ROOT
HETATM    1  N1  UNK     1      18.183   6.196  32.790  1.00  0.00     0.096 N 
HETATM    2  N2  UNK     1      18.103   4.486  30.460  1.00  0.00     0.100 N 
HETATM    3  C1  UNK     1      17.678   6.686  31.502  1.00  0.00     0.303 C 
HETATM    4  C2  UNK     1      17.958   4.750  32.913  1.00  0.00     0.303 C 
HETATM    5  C3  UNK     1      18.330   5.931  30.338  1.00  0.00     0.303 C 
HETATM    6  C4  UNK     1      18.608   3.996  31.749  1.00  0.00     0.303 C 
ENDROOT
BRANCH   1   7
HETATM    7  C5  UNK     1      17.558   6.914  33.900  1.00  0.00     0.312 C 
BRANCH   7   8
HETATM    8  C7  UNK     1      18.122   8.282  34.071  1.00  0.00    -0.011 A 
HETATM    9  C10 UNK     1      19.435   8.472  34.260  1.00  0.00     0.092 A 
HETATM   10  C13 UNK     1      20.037   9.804  34.434  1.00  0.00     0.288 A 
HETATM   11  O1  UNK     1      19.174  10.888  34.394  1.00  0.00    -0.275 OA
HETATM   12  O4  UNK     1      21.244   9.940  34.605  1.00  0.00    -0.260 OA
HETATM   13  C11 UNK     1      17.789  10.720  34.197  1.00  0.00     0.090 A 
HETATM   14  C8  UNK     1      17.232   9.451  34.034  1.00  0.00     0.009 A 
HETATM   15  C14 UNK     1      17.015  11.883  34.174  1.00  0.00     0.041 A 
HETATM   16  C12 UNK     1      15.846   9.369  33.844  1.00  0.00     0.051 A 
HETATM   17  C15 UNK     1      15.057  10.525  33.820  1.00  0.00     0.069 A 
HETATM   18  C17 UNK     1      15.642  11.779  33.985  1.00  0.00     0.039 A 
BRANCH  17  19
HETATM   19  O3  UNK     1      13.712  10.423  33.634  1.00  0.00    -0.351 OA
BRANCH  19  20
HETATM   20  C23 UNK     1      12.975  11.641  33.549  1.00  0.00     0.171 C 
HETATM   21  C25 UNK     1      11.814  11.450  32.597  1.00  0.00     0.034 C 
ENDBRANCH  19  20
ENDBRANCH  17  19
ENDBRANCH   7   8
ENDBRANCH   1   7
BRANCH   2  22
HETATM   22  C6  UNK     1      18.726   3.767  29.351  1.00  0.00     0.375 C 
BRANCH  22  23
HETATM   23  C9  UNK     1      18.538   2.272  29.550  1.00  0.00     0.250 C 
HETATM   24  O2  UNK     1      17.463   1.711  29.365  1.00  0.00    -0.271 OA
HETATM   25  N3  UNK     1      19.736   1.686  29.951  1.00  0.00    -0.325 N 
HETATM   26  H15 UNK     1      20.541   2.298  30.052  1.00  0.00     0.169 HD
BRANCH  25  27
HETATM   27  C16 UNK     1      19.976   0.320  30.238  1.00  0.00     0.041 A 
HETATM   28  C18 UNK     1      19.558  -0.241  31.445  1.00  0.00    -0.032 A 
HETATM   29  C20 UNK     1      19.805  -1.588  31.710  1.00  0.00     0.051 A 
HETATM   30  C21 UNK     1      18.845   0.577  32.472  1.00  0.00     0.050 C 
HETATM   31  C24 UNK     1      20.470  -2.374  30.768  1.00  0.00     0.117 A 
HETATM   32  C22 UNK     1      20.888  -1.812  29.562  1.00  0.00     0.044 A 
HETATM   33  F1  UNK     1      20.707  -3.667  31.023  1.00  0.00    -0.206 F 
HETATM   34  C19 UNK     1      20.641  -0.464  29.296  1.00  0.00     0.033 A 
ENDBRANCH  25  27
ENDBRANCH  22  23
ENDBRANCH   2  22
TORSDOF 7
ENDMDL
MODEL 6
REMARK VINA RESULT:      -8.9      8.697     12.617
REMARK  7 active torsions:
REMARK  status: ('A' for Active; 'I' for Inactive)
REMARK    1  A    between atoms: C15_23  and  O3_4 
REMARK    2  A    between atoms: C23_31  and  O3_4 
REMARK    3  A    between atoms: C5_13  and  N1_6 
REMARK    4  A    between atoms: C6_14  and  N2_7 
REMARK    5  A    between atoms: C16_24  and  N3_8 
REMARK       I    between atoms: C9_17  and  N3_8 
REMARK    6  A    between atoms: C5_13  and  C7_15 
REMARK    7  A    between atoms: C6_14  and  C9_17 
ROOT
HETATM    1  N1  UNK     1      26.997  -9.480  37.452  1.00  0.00     0.096 N 
HETATM    2  N2  UNK     1      29.850  -9.100  37.732  1.00  0.00     0.100 N 
HETATM    3  C1  UNK     1      27.613  -9.265  38.768  1.00  0.00     0.303 C 
HETATM    4  C2  UNK     1      27.784  -8.820  36.403  1.00  0.00     0.303 C 
HETATM    5  C3  UNK     1      29.063  -9.762  38.779  1.00  0.00     0.303 C 
HETATM    6  C4  UNK     1      29.234  -9.315  36.416  1.00  0.00     0.303 C 
ENDROOT
BRANCH   1   7
HETATM    7  C5  UNK     1      25.615  -9.004  37.442  1.00  0.00     0.312 C 
BRANCH   7   8
HETATM    8  C7  UNK     1      24.699  -9.954  36.753  1.00  0.00    -0.011 A 
HETATM    9  C10 UNK     1      25.136 -11.141  36.311  1.00  0.00     0.092 A 
HETATM   10  C13 UNK     1      24.268 -12.112  35.626  1.00  0.00     0.288 A 
HETATM   11  O1  UNK     1      22.943 -11.746  35.446  1.00  0.00    -0.275 OA
HETATM   12  O4  UNK     1      24.703 -13.190  35.234  1.00  0.00    -0.260 OA
HETATM   13  C11 UNK     1      22.454 -10.505  35.899  1.00  0.00     0.090 A 
HETATM   14  C8  UNK     1      23.289  -9.594  36.548  1.00  0.00     0.009 A 
HETATM   15  C14 UNK     1      21.103 -10.242  35.664  1.00  0.00     0.041 A 
HETATM   16  C12 UNK     1      22.726  -8.380  36.967  1.00  0.00     0.051 A 
HETATM   17  C15 UNK     1      21.373  -8.102  36.738  1.00  0.00     0.069 A 
HETATM   18  C17 UNK     1      20.564  -9.032  36.088  1.00  0.00     0.039 A 
BRANCH  17  19
HETATM   19  O3  UNK     1      20.846  -6.917  37.152  1.00  0.00    -0.351 OA
BRANCH  19  20
HETATM   20  C23 UNK     1      19.689  -6.977  37.983  1.00  0.00     0.171 C 
HETATM   21  C25 UNK     1      20.115  -7.290  39.402  1.00  0.00     0.034 C 
ENDBRANCH  19  20
ENDBRANCH  17  19
ENDBRANCH   7   8
ENDBRANCH   1   7
BRANCH   2  22
HETATM   22  C6  UNK     1      31.232  -9.575  37.742  1.00  0.00     0.375 C 
BRANCH  22  23
HETATM   23  C9  UNK     1      32.033  -8.817  36.697  1.00  0.00     0.250 C 
HETATM   24  O2  UNK     1      32.511  -9.362  35.707  1.00  0.00    -0.271 OA
HETATM   25  N3  UNK     1      32.120  -7.470  37.039  1.00  0.00    -0.325 N 
HETATM   26  H15 UNK     1      31.658  -7.179  37.897  1.00  0.00     0.169 HD
BRANCH  25  27
HETATM   27  C16 UNK     1      32.779  -6.438  36.328  1.00  0.00     0.041 A 
HETATM   28  C18 UNK     1      32.091  -5.660  35.396  1.00  0.00    -0.032 A 
HETATM   29  C20 UNK     1      32.758  -4.649  34.704  1.00  0.00     0.051 A 
HETATM   30  C21 UNK     1      30.642  -5.889  35.117  1.00  0.00     0.050 C 
HETATM   31  C24 UNK     1      34.113  -4.415  34.945  1.00  0.00     0.117 A 
HETATM   32  C22 UNK     1      34.799  -5.193  35.877  1.00  0.00     0.044 A 
HETATM   33  F1  UNK     1      34.753  -3.445  34.281  1.00  0.00    -0.206 F 
HETATM   34  C19 UNK     1      34.132  -6.205  36.569  1.00  0.00     0.033 A 
ENDBRANCH  25  27
ENDBRANCH  22  23
ENDBRANCH   2  22
TORSDOF 7
ENDMDL
MODEL 7
REMARK VINA RESULT:      -8.9      3.850     11.488
REMARK  7 active torsions:
REMARK  status: ('A' for Active; 'I' for Inactive)
REMARK    1  A    between atoms: C15_23  and  O3_4 
REMARK    2  A    between atoms: C23_31  and  O3_4 
REMARK    3  A    between atoms: C5_13  and  N1_6 
REMARK    4  A    between atoms: C6_14  and  N2_7 
REMARK    5  A    between atoms: C16_24  and  N3_8 
REMARK       I    between atoms: C9_17  and  N3_8 
REMARK    6  A    between atoms: C5_13  and  C7_15 
REMARK    7  A    between atoms: C6_14  and  C9_17 
ROOT
HETATM    1  N1  UNK     1      17.955   1.374  35.327  1.00  0.00     0.096 N 
HETATM    2  N2  UNK     1      18.473  -1.166  36.606  1.00  0.00     0.100 N 
HETATM    3  C1  UNK     1      17.842   1.215  36.783  1.00  0.00     0.303 C 
HETATM    4  C2  UNK     1      18.946   0.436  34.784  1.00  0.00     0.303 C 
HETATM    5  C3  UNK     1      17.482  -0.229  37.146  1.00  0.00     0.303 C 
HETATM    6  C4  UNK     1      18.588  -1.008  35.151  1.00  0.00     0.303 C 
ENDROOT
BRANCH   1   7
HETATM    7  C5  UNK     1      18.301   2.752  34.981  1.00  0.00     0.312 C 
BRANCH   7   8
HETATM    8  C7  UNK     1      18.326   2.972  33.508  1.00  0.00    -0.011 A 
HETATM    9  C10 UNK     1      18.340   1.939  32.654  1.00  0.00     0.092 A 
HETATM   10  C13 UNK     1      18.364   2.107  31.192  1.00  0.00     0.288 A 
HETATM   11  O1  UNK     1      18.374   3.408  30.713  1.00  0.00    -0.275 OA
HETATM   12  O4  UNK     1      18.376   1.138  30.440  1.00  0.00    -0.260 OA
HETATM   13  C11 UNK     1      18.360   4.513  31.587  1.00  0.00     0.090 A 
HETATM   14  C8  UNK     1      18.337   4.339  32.971  1.00  0.00     0.009 A 
HETATM   15  C14 UNK     1      18.372   5.778  30.994  1.00  0.00     0.041 A 
HETATM   16  C12 UNK     1      18.326   5.490  33.772  1.00  0.00     0.051 A 
HETATM   17  C15 UNK     1      18.338   6.765  33.192  1.00  0.00     0.069 A 
HETATM   18  C17 UNK     1      18.361   6.907  31.806  1.00  0.00     0.039 A 
BRANCH  17  19
HETATM   19  O3  UNK     1      18.328   7.869  33.987  1.00  0.00    -0.351 OA
BRANCH  19  20
HETATM   20  C23 UNK     1      19.405   8.015  34.910  1.00  0.00     0.171 C 
HETATM   21  C25 UNK     1      20.227   9.225  34.522  1.00  0.00     0.034 C 
ENDBRANCH  19  20
ENDBRANCH  17  19
ENDBRANCH   7   8
ENDBRANCH   1   7
BRANCH   2  22
HETATM   22  C6  UNK     1      18.129  -2.544  36.952  1.00  0.00     0.375 C 
BRANCH  22  23
HETATM   23  C9  UNK     1      19.321  -3.446  36.679  1.00  0.00     0.250 C 
HETATM   24  O2  UNK     1      20.468  -3.018  36.594  1.00  0.00    -0.271 OA
HETATM   25  N3  UNK     1      18.906  -4.769  36.555  1.00  0.00    -0.325 N 
HETATM   26  H15 UNK     1      17.912  -4.954  36.661  1.00  0.00     0.169 HD
BRANCH  25  27
HETATM   27  C16 UNK     1      19.708  -5.907  36.300  1.00  0.00     0.041 A 
HETATM   28  C18 UNK     1      20.392  -6.547  37.335  1.00  0.00    -0.032 A 
HETATM   29  C20 UNK     1      21.179  -7.665  37.063  1.00  0.00     0.051 A 
HETATM   30  C21 UNK     1      20.299  -6.055  38.742  1.00  0.00     0.050 C 
HETATM   31  C24 UNK     1      21.283  -8.145  35.756  1.00  0.00     0.117 A 
HETATM   32  C22 UNK     1      20.600  -7.504  34.722  1.00  0.00     0.044 A 
HETATM   33  F1  UNK     1      22.039  -9.218  35.495  1.00  0.00    -0.206 F 
HETATM   34  C19 UNK     1      19.813  -6.384  34.994  1.00  0.00     0.033 A 
ENDBRANCH  25  27
ENDBRANCH  22  23
ENDBRANCH   2  22
TORSDOF 7
ENDMDL
MODEL 8
REMARK VINA RESULT:      -8.8      4.176     11.679
REMARK  7 active torsions:
REMARK  status: ('A' for Active; 'I' for Inactive)
REMARK    1  A    between atoms: C15_23  and  O3_4 
REMARK    2  A    between atoms: C23_31  and  O3_4 
REMARK    3  A    between atoms: C5_13  and  N1_6 
REMARK    4  A    between atoms: C6_14  and  N2_7 
REMARK    5  A    between atoms: C16_24  and  N3_8 
REMARK       I    between atoms: C9_17  and  N3_8 
REMARK    6  A    between atoms: C5_13  and  C7_15 
REMARK    7  A    between atoms: C6_14  and  C9_17 
ROOT
HETATM    1  N1  UNK     1      18.744   0.769  34.090  1.00  0.00     0.096 N 
HETATM    2  N2  UNK     1      19.355  -1.672  35.514  1.00  0.00     0.100 N 
HETATM    3  C1  UNK     1      18.442  -0.547  33.513  1.00  0.00     0.303 C 
HETATM    4  C2  UNK     1      18.694   0.710  35.556  1.00  0.00     0.303 C 
HETATM    5  C3  UNK     1      19.406  -1.611  34.049  1.00  0.00     0.303 C 
HETATM    6  C4  UNK     1      19.656  -0.356  36.092  1.00  0.00     0.303 C 
ENDROOT
BRANCH   1   7
HETATM    7  C5  UNK     1      17.822   1.783  33.580  1.00  0.00     0.312 C 
BRANCH   7   8
HETATM    8  C7  UNK     1      18.239   2.302  32.248  1.00  0.00    -0.011 A 
HETATM    9  C10 UNK     1      18.487   1.470  31.227  1.00  0.00     0.092 A 
HETATM   10  C13 UNK     1      18.901   1.937  29.893  1.00  0.00     0.288 A 
HETATM   11  O1  UNK     1      19.030   3.306  29.724  1.00  0.00    -0.275 OA
HETATM   12  O4  UNK     1      19.119   1.146  28.982  1.00  0.00    -0.260 OA
HETATM   13  C11 UNK     1      18.777   4.206  30.779  1.00  0.00     0.090 A 
HETATM   14  C8  UNK     1      18.384   3.749  32.039  1.00  0.00     0.009 A 
HETATM   15  C14 UNK     1      18.939   5.564  30.495  1.00  0.00     0.041 A 
HETATM   16  C12 UNK     1      18.153   4.707  33.035  1.00  0.00     0.051 A 
HETATM   17  C15 UNK     1      18.312   6.072  32.765  1.00  0.00     0.069 A 
HETATM   18  C17 UNK     1      18.705   6.498  31.498  1.00  0.00     0.039 A 
BRANCH  17  19
HETATM   19  O3  UNK     1      18.083   6.987  33.747  1.00  0.00    -0.351 OA
BRANCH  19  20
HETATM   20  C23 UNK     1      19.183   7.323  34.591  1.00  0.00     0.171 C 
HETATM   21  C25 UNK     1      19.503   8.793  34.421  1.00  0.00     0.034 C 
ENDBRANCH  19  20
ENDBRANCH  17  19
ENDBRANCH   7   8
ENDBRANCH   1   7
BRANCH   2  22
HETATM   22  C6  UNK     1      20.275  -2.685  36.025  1.00  0.00     0.375 C 
BRANCH  22  23
HETATM   23  C9  UNK     1      19.479  -3.848  36.594  1.00  0.00     0.250 C 
HETATM   24  O2  UNK     1      18.274  -3.780  36.814  1.00  0.00    -0.271 OA
HETATM   25  N3  UNK     1      20.312  -4.944  36.804  1.00  0.00    -0.325 N 
HETATM   26  H15 UNK     1      21.292  -4.835  36.561  1.00  0.00     0.169 HD
BRANCH  25  27
HETATM   27  C16 UNK     1      19.956  -6.214  37.321  1.00  0.00     0.041 A 
HETATM   28  C18 UNK     1      19.462  -7.214  36.482  1.00  0.00    -0.032 A 
HETATM   29  C20 UNK     1      19.115  -8.457  37.009  1.00  0.00     0.051 A 
HETATM   30  C21 UNK     1      19.292  -6.980  35.016  1.00  0.00     0.050 C 
HETATM   31  C24 UNK     1      19.262  -8.702  38.375  1.00  0.00     0.117 A 
HETATM   32  C22 UNK     1      19.755  -7.702  39.213  1.00  0.00     0.044 A 
HETATM   33  F1  UNK     1      18.928  -9.895  38.881  1.00  0.00    -0.206 F 
HETATM   34  C19 UNK     1      20.103  -6.457  38.686  1.00  0.00     0.033 A 
ENDBRANCH  25  27
ENDBRANCH  22  23
ENDBRANCH   2  22
TORSDOF 7
ENDMDL
MODEL 9
REMARK VINA RESULT:      -8.7      7.832     10.423
REMARK  7 active torsions:
REMARK  status: ('A' for Active; 'I' for Inactive)
REMARK    1  A    between atoms: C15_23  and  O3_4 
REMARK    2  A    between atoms: C23_31  and  O3_4 
REMARK    3  A    between atoms: C5_13  and  N1_6 
REMARK    4  A    between atoms: C6_14  and  N2_7 
REMARK    5  A    between atoms: C16_24  and  N3_8 
REMARK       I    between atoms: C9_17  and  N3_8 
REMARK    6  A    between atoms: C5_13  and  C7_15 
REMARK    7  A    between atoms: C6_14  and  C9_17 
ROOT
HETATM    1  N1  UNK     1      25.405  -7.942  38.612  1.00  0.00     0.096 N 
HETATM    2  N2  UNK     1      28.240  -7.430  38.855  1.00  0.00     0.100 N 
HETATM    3  C1  UNK     1      26.334  -8.991  39.050  1.00  0.00     0.303 C 
HETATM    4  C2  UNK     1      25.910  -6.617  38.993  1.00  0.00     0.303 C 
HETATM    5  C3  UNK     1      27.734  -8.754  38.472  1.00  0.00     0.303 C 
HETATM    6  C4  UNK     1      27.310  -6.381  38.418  1.00  0.00     0.303 C 
ENDROOT
BRANCH   1   7
HETATM    7  C5  UNK     1      24.070  -8.167  39.165  1.00  0.00     0.312 C 
BRANCH   7   8
HETATM    8  C7  UNK     1      22.996  -7.671  38.261  1.00  0.00    -0.011 A 
HETATM    9  C10 UNK     1      22.396  -6.493  38.480  1.00  0.00     0.092 A 
HETATM   10  C13 UNK     1      21.331  -5.960  37.615  1.00  0.00     0.288 A 
HETATM   11  O1  UNK     1      20.957  -6.743  36.533  1.00  0.00    -0.275 OA
HETATM   12  O4  UNK     1      20.804  -4.877  37.846  1.00  0.00    -0.260 OA
HETATM   13  C11 UNK     1      21.569  -7.986  36.278  1.00  0.00     0.090 A 
HETATM   14  C8  UNK     1      22.579  -8.478  37.107  1.00  0.00     0.009 A 
HETATM   15  C14 UNK     1      21.113  -8.689  35.160  1.00  0.00     0.041 A 
HETATM   16  C12 UNK     1      23.135  -9.723  36.785  1.00  0.00     0.051 A 
HETATM   17  C15 UNK     1      22.688 -10.440  35.668  1.00  0.00     0.069 A 
HETATM   18  C17 UNK     1      21.679  -9.923  34.859  1.00  0.00     0.039 A 
BRANCH  17  19
HETATM   19  O3  UNK     1      23.242 -11.648  35.373  1.00  0.00    -0.351 OA
BRANCH  19  20
HETATM   20  C23 UNK     1      24.473 -11.972  36.016  1.00  0.00     0.171 C 
HETATM   21  C25 UNK     1      24.666 -13.473  35.987  1.00  0.00     0.034 C 
ENDBRANCH  19  20
ENDBRANCH  17  19
ENDBRANCH   7   8
ENDBRANCH   1   7
BRANCH   2  22
HETATM   22  C6  UNK     1      29.574  -7.204  38.304  1.00  0.00     0.375 C 
BRANCH  22  23
HETATM   23  C9  UNK     1      29.476  -6.262  37.116  1.00  0.00     0.250 C 
HETATM   24  O2  UNK     1      29.455  -5.042  37.240  1.00  0.00    -0.271 OA
HETATM   25  N3  UNK     1      29.423  -6.987  35.928  1.00  0.00    -0.325 N 
HETATM   26  H15 UNK     1      29.457  -8.000  36.003  1.00  0.00     0.169 HD
BRANCH  25  27
HETATM   27  C16 UNK     1      29.328  -6.481  34.610  1.00  0.00     0.041 A 
HETATM   28  C18 UNK     1      30.454  -5.985  33.952  1.00  0.00    -0.032 A 
HETATM   29  C20 UNK     1      30.341  -5.489  32.654  1.00  0.00     0.051 A 
HETATM   30  C21 UNK     1      31.793  -5.970  34.615  1.00  0.00     0.050 C 
HETATM   31  C24 UNK     1      29.102  -5.489  32.012  1.00  0.00     0.117 A 
HETATM   32  C22 UNK     1      27.976  -5.985  32.670  1.00  0.00     0.044 A 
HETATM   33  F1  UNK     1      28.993  -5.013  30.766  1.00  0.00    -0.206 F 
HETATM   34  C19 UNK     1      28.090  -6.482  33.970  1.00  0.00     0.033 A 
ENDBRANCH  25  27
ENDBRANCH  22  23
ENDBRANCH   2  22
TORSDOF 7
ENDMDL
MODEL 10
REMARK VINA RESULT:      -8.6      4.071     11.465
REMARK  7 active torsions:
REMARK  status: ('A' for Active; 'I' for Inactive)
REMARK    1  A    between atoms: C15_23  and  O3_4 
REMARK    2  A    between atoms: C23_31  and  O3_4 
REMARK    3  A    between atoms: C5_13  and  N1_6 
REMARK    4  A    between atoms: C6_14  and  N2_7 
REMARK    5  A    between atoms: C16_24  and  N3_8 
REMARK       I    between atoms: C9_17  and  N3_8 
REMARK    6  A    between atoms: C5_13  and  C7_15 
REMARK    7  A    between atoms: C6_14  and  C9_17 
ROOT
HETATM    1  N1  UNK     1      18.569   2.046  34.491  1.00  0.00     0.096 N 
HETATM    2  N2  UNK     1      18.965  -0.747  35.120  1.00  0.00     0.100 N 
HETATM    3  C1  UNK     1      17.779   0.997  33.834  1.00  0.00     0.303 C 
HETATM    4  C2  UNK     1      18.973   1.618  35.836  1.00  0.00     0.303 C 
HETATM    5  C3  UNK     1      18.563  -0.318  33.775  1.00  0.00     0.303 C 
HETATM    6  C4  UNK     1      19.754   0.302  35.778  1.00  0.00     0.303 C 
ENDROOT
BRANCH   1   7
HETATM    7  C5  UNK     1      17.819   3.300  34.549  1.00  0.00     0.312 C 
BRANCH   7   8
HETATM    8  C7  UNK     1      18.419   4.354  33.684  1.00  0.00    -0.011 A 
HETATM    9  C10 UNK     1      18.907   5.486  34.208  1.00  0.00     0.092 A 
HETATM   10  C13 UNK     1      19.509   6.555  33.395  1.00  0.00     0.288 A 
HETATM   11  O1  UNK     1      19.556   6.344  32.025  1.00  0.00    -0.275 OA
HETATM   12  O4  UNK     1      19.945   7.579  33.910  1.00  0.00    -0.260 OA
HETATM   13  C11 UNK     1      19.051   5.164  31.444  1.00  0.00     0.090 A 
HETATM   14  C8  UNK     1      18.483   4.159  32.229  1.00  0.00     0.009 A 
HETATM   15  C14 UNK     1      19.150   5.059  30.055  1.00  0.00     0.041 A 
HETATM   16  C12 UNK     1      18.002   3.016  31.574  1.00  0.00     0.051 A 
HETATM   17  C15 UNK     1      18.094   2.897  30.182  1.00  0.00     0.069 A 
HETATM   18  C17 UNK     1      18.667   3.917  29.425  1.00  0.00     0.039 A 
BRANCH  17  19
HETATM   19  O3  UNK     1      17.621   1.779  29.566  1.00  0.00    -0.351 OA
BRANCH  19  20
HETATM   20  C23 UNK     1      18.456   1.181  28.577  1.00  0.00     0.171 C 
HETATM   21  C25 UNK     1      19.576   0.430  29.265  1.00  0.00     0.034 C 
ENDBRANCH  19  20
ENDBRANCH  17  19
ENDBRANCH   7   8
ENDBRANCH   1   7
BRANCH   2  22
HETATM   22  C6  UNK     1      19.713  -2.001  35.064  1.00  0.00     0.375 C 
BRANCH  22  23
HETATM   23  C9  UNK     1      19.201  -2.944  36.140  1.00  0.00     0.250 C 
HETATM   24  O2  UNK     1      18.404  -2.590  37.003  1.00  0.00    -0.271 OA
HETATM   25  N3  UNK     1      19.761  -4.208  35.979  1.00  0.00    -0.325 N 
HETATM   26  H15 UNK     1      20.404  -4.335  35.203  1.00  0.00     0.169 HD
BRANCH  25  27
HETATM   27  C16 UNK     1      19.539  -5.359  36.774  1.00  0.00     0.041 A 
HETATM   28  C18 UNK     1      20.462  -5.744  37.747  1.00  0.00    -0.032 A 
HETATM   29  C20 UNK     1      20.227  -6.881  38.519  1.00  0.00     0.051 A 
HETATM   30  C21 UNK     1      21.711  -4.959  37.982  1.00  0.00     0.050 C 
HETATM   31  C24 UNK     1      19.069  -7.634  38.319  1.00  0.00     0.117 A 
HETATM   32  C22 UNK     1      18.147  -7.249  37.346  1.00  0.00     0.044 A 
HETATM   33  F1  UNK     1      18.844  -8.726  39.060  1.00  0.00    -0.206 F 
HETATM   34  C19 UNK     1      18.382  -6.111  36.573  1.00  0.00     0.033 A 
ENDBRANCH  25  27
ENDBRANCH  22  23
ENDBRANCH   2  22
TORSDOF 7
ENDMDL
