MODEL 1
REMARK VINA RESULT:      -8.9      0.000      0.000
REMARK  7 active torsions:
REMARK  status: ('A' for Active; 'I' for Inactive)
REMARK    1  A    between atoms: C10_19  and  O2_5 
REMARK    2  A    between atoms: C21_30  and  O4_7 
REMARK    3  A    between atoms: C23_32  and  O5_8 
REMARK    4  A    between atoms: C6_15  and  N1_9 
REMARK    5  A    between atoms: C6_15  and  C8_17 
REMARK    6  A    between atoms: C15_24  and  C17_26 
REMARK    7  A    between atoms: C16_25  and  C18_27 
ROOT
HETATM    1  O1  UNK     1      18.681  -0.107  33.008  1.00  0.00    -0.303 OA
HETATM    2  O3  UNK     1      21.296  -3.195  32.589  1.00  0.00    -0.286 OA
HETATM    3  C8  UNK     1      19.015   0.554  30.770  1.00  0.00     0.038 A 
HETATM    4  C9  UNK     1      19.308  -0.319  31.812  1.00  0.00     0.101 A 
HETATM    5  C10 UNK     1      19.617   0.399  29.525  1.00  0.00     0.076 A 
HETATM    6  C11 UNK     1      20.211  -1.355  31.607  1.00  0.00     0.050 A 
HETATM    7  C12 UNK     1      20.523  -0.642  29.322  1.00  0.00     0.038 A 
HETATM    8  C13 UNK     1      20.824  -1.523  30.362  1.00  0.00     0.021 A 
HETATM    9  C14 UNK     1      20.507  -2.267  32.720  1.00  0.00     0.198 A 
HETATM   10  C15 UNK     1      19.800  -2.005  34.006  1.00  0.00     0.064 A 
HETATM   11  C16 UNK     1      18.946  -0.960  34.072  1.00  0.00     0.174 A 
ENDROOT
BRANCH  10  12
HETATM   12  C17 UNK     1      20.049  -2.876  35.147  1.00  0.00    -0.016 A 
HETATM   13  C19 UNK     1      19.568  -4.184  35.141  1.00  0.00     0.052 A 
HETATM   14  C21 UNK     1      19.807  -5.018  36.233  1.00  0.00     0.102 A 
HETATM   15  C23 UNK     1      20.527  -4.543  37.329  1.00  0.00     0.101 A 
HETATM   16  C22 UNK     1      21.008  -3.233  37.333  1.00  0.00     0.040 A 
HETATM   17  C20 UNK     1      20.769  -2.399  36.240  1.00  0.00     0.015 A 
BRANCH  14  18
HETATM   18  O4  UNK     1      19.331  -6.294  36.219  1.00  0.00    -0.353 OA
HETATM   19  C24 UNK     1      19.540  -7.051  35.028  1.00  0.00     0.210 C 
ENDBRANCH  14  18
BRANCH  15  20
HETATM   20  O5  UNK     1      20.767  -5.348  38.401  1.00  0.00    -0.353 OA
HETATM   21  C25 UNK     1      22.039  -5.992  38.457  1.00  0.00     0.210 C 
ENDBRANCH  15  20
ENDBRANCH  10  12
BRANCH  11  22
HETATM   22  C18 UNK     1      18.164  -0.571  35.295  1.00  0.00     0.440 C 
HETATM   23  F1  UNK     1      18.971  -0.022  36.222  1.00  0.00    -0.164 F 
HETATM   24  F2  UNK     1      17.209   0.327  34.986  1.00  0.00    -0.164 F 
HETATM   25  F3  UNK     1      17.566  -1.645  35.844  1.00  0.00    -0.164 F 
ENDBRANCH  11  22
BRANCH   3  26
HETATM   26  C6  UNK     1      18.040   1.681  30.981  1.00  0.00     0.316 C 
BRANCH  26  27
HETATM   27  N1  UNK     1      18.696   2.878  31.509  1.00  0.00     0.092 N 
HETATM   28  C4  UNK     1      17.978   3.382  32.686  1.00  0.00     0.273 C 
HETATM   29  C2  UNK     1      18.682   4.603  33.281  1.00  0.00     0.034 C 
HETATM   30  C1  UNK     1      18.851   5.713  32.238  1.00  0.00    -0.015 C 
HETATM   31  C3  UNK     1      19.532   5.148  30.987  1.00  0.00     0.034 C 
HETATM   32  C7  UNK     1      19.643   6.886  32.810  1.00  0.00     0.010 C 
HETATM   33  C5  UNK     1      18.798   3.909  30.467  1.00  0.00     0.273 C 
ENDBRANCH  26  27
ENDBRANCH   3  26
BRANCH   5  34
HETATM   34  O2  UNK     1      19.339   1.248  28.496  1.00  0.00    -0.360 OA
HETATM   35  H17 UNK     1      18.758   0.797  27.861  1.00  0.00     0.217 HD
ENDBRANCH   5  34
TORSDOF 7
ENDMDL
MODEL 2
REMARK VINA RESULT:      -8.7      5.983     10.295
REMARK  7 active torsions:
REMARK  status: ('A' for Active; 'I' for Inactive)
REMARK    1  A    between atoms: C10_19  and  O2_5 
REMARK    2  A    between atoms: C21_30  and  O4_7 
REMARK    3  A    between atoms: C23_32  and  O5_8 
REMARK    4  A    between atoms: C6_15  and  N1_9 
REMARK    5  A    between atoms: C6_15  and  C8_17 
REMARK    6  A    between atoms: C15_24  and  C17_26 
REMARK    7  A    between atoms: C16_25  and  C18_27 
ROOT
HETATM    1  O1  UNK     1      17.709   8.917  33.726  1.00  0.00    -0.303 OA
HETATM    2  O3  UNK     1      15.152   6.549  31.627  1.00  0.00    -0.286 OA
HETATM    3  C8  UNK     1      16.024  10.531  34.067  1.00  0.00     0.038 A 
HETATM    4  C9  UNK     1      16.414   9.309  33.528  1.00  0.00     0.101 A 
HETATM    5  C10 UNK     1      14.722  10.993  33.904  1.00  0.00     0.076 A 
HETATM    6  C11 UNK     1      15.494   8.545  32.820  1.00  0.00     0.050 A 
HETATM    7  C12 UNK     1      13.800  10.224  33.193  1.00  0.00     0.038 A 
HETATM    8  C13 UNK     1      14.183   8.998  32.648  1.00  0.00     0.021 A 
HETATM    9  C14 UNK     1      15.925   7.258  32.259  1.00  0.00     0.198 A 
HETATM   10  C15 UNK     1      17.343   6.864  32.500  1.00  0.00     0.064 A 
HETATM   11  C16 UNK     1      18.134   7.702  33.205  1.00  0.00     0.174 A 
ENDROOT
BRANCH  10  12
HETATM   12  C17 UNK     1      17.831   5.597  31.971  1.00  0.00    -0.016 A 
HETATM   13  C19 UNK     1      17.627   4.420  32.688  1.00  0.00     0.052 A 
HETATM   14  C21 UNK     1      18.093   3.207  32.182  1.00  0.00     0.102 A 
HETATM   15  C23 UNK     1      18.763   3.173  30.959  1.00  0.00     0.101 A 
HETATM   16  C22 UNK     1      18.966   4.353  30.242  1.00  0.00     0.040 A 
HETATM   17  C20 UNK     1      18.499   5.566  30.749  1.00  0.00     0.015 A 
BRANCH  14  18
HETATM   18  O4  UNK     1      17.891   2.062  32.891  1.00  0.00    -0.353 OA
HETATM   19  C24 UNK     1      18.214   2.094  34.279  1.00  0.00     0.210 C 
ENDBRANCH  14  18
BRANCH  15  20
HETATM   20  O5  UNK     1      19.223   1.995  30.454  1.00  0.00    -0.353 OA
HETATM   21  C25 UNK     1      18.650   1.547  29.227  1.00  0.00     0.210 C 
ENDBRANCH  15  20
ENDBRANCH  10  12
BRANCH  11  22
HETATM   22  C18 UNK     1      19.580   7.444  33.527  1.00  0.00     0.440 C 
HETATM   23  F1  UNK     1      19.700   6.426  34.399  1.00  0.00    -0.164 F 
HETATM   24  F2  UNK     1      20.268   7.125  32.414  1.00  0.00    -0.164 F 
HETATM   25  F3  UNK     1      20.152   8.533  34.074  1.00  0.00    -0.164 F 
ENDBRANCH  11  22
BRANCH   3  26
HETATM   26  C6  UNK     1      17.012  11.367  34.834  1.00  0.00     0.316 C 
BRANCH  26  27
HETATM   27  N1  UNK     1      17.349  12.601  34.123  1.00  0.00     0.092 N 
HETATM   28  C4  UNK     1      18.655  12.474  33.464  1.00  0.00     0.273 C 
HETATM   29  C2  UNK     1      18.998  13.738  32.672  1.00  0.00     0.034 C 
HETATM   30  C1  UNK     1      18.965  14.982  33.565  1.00  0.00    -0.015 C 
HETATM   31  C3  UNK     1      17.625  15.053  34.305  1.00  0.00     0.034 C 
HETATM   32  C7  UNK     1      19.209  16.249  32.750  1.00  0.00     0.010 C 
HETATM   33  C5  UNK     1      17.328  13.746  35.044  1.00  0.00     0.273 C 
ENDBRANCH  26  27
ENDBRANCH   3  26
BRANCH   5  34
HETATM   34  O2  UNK     1      14.327  12.188  34.426  1.00  0.00    -0.360 OA
HETATM   35  H17 UNK     1      13.397  12.345  34.192  1.00  0.00     0.217 HD
ENDBRANCH   5  34
TORSDOF 7
ENDMDL
MODEL 3
REMARK VINA RESULT:      -8.5      5.985     10.336
REMARK  7 active torsions:
REMARK  status: ('A' for Active; 'I' for Inactive)
REMARK    1  A    between atoms: C10_19  and  O2_5 
REMARK    2  A    between atoms: C21_30  and  O4_7 
REMARK    3  A    between atoms: C23_32  and  O5_8 
REMARK    4  A    between atoms: C6_15  and  N1_9 
REMARK    5  A    between atoms: C6_15  and  C8_17 
REMARK    6  A    between atoms: C15_24  and  C17_26 
REMARK    7  A    between atoms: C16_25  and  C18_27 
ROOT
HETATM    1  O1  UNK     1      17.209   9.221  33.048  1.00  0.00    -0.303 OA
HETATM    2  O3  UNK     1      20.574   6.972  33.462  1.00  0.00    -0.286 OA
HETATM    3  C8  UNK     1      18.192  11.011  34.228  1.00  0.00     0.038 A 
HETATM    4  C9  UNK     1      18.294   9.723  33.712  1.00  0.00     0.101 A 
HETATM    5  C10 UNK     1      19.256  11.584  34.915  1.00  0.00     0.076 A 
HETATM    6  C11 UNK     1      19.471   9.004  33.886  1.00  0.00     0.050 A 
HETATM    7  C12 UNK     1      20.436  10.861  35.089  1.00  0.00     0.038 A 
HETATM    8  C13 UNK     1      20.548   9.568  34.576  1.00  0.00     0.021 A 
HETATM    9  C14 UNK     1      19.559   7.646  33.333  1.00  0.00     0.198 A 
HETATM   10  C15 UNK     1      18.357   7.138  32.613  1.00  0.00     0.064 A 
HETATM   11  C16 UNK     1      17.275   7.940  32.516  1.00  0.00     0.174 A 
ENDROOT
BRANCH  10  12
HETATM   12  C17 UNK     1      18.383   5.797  32.040  1.00  0.00    -0.016 A 
HETATM   13  C19 UNK     1      17.961   4.709  32.799  1.00  0.00     0.052 A 
HETATM   14  C21 UNK     1      17.985   3.426  32.251  1.00  0.00     0.102 A 
HETATM   15  C23 UNK     1      18.432   3.236  30.944  1.00  0.00     0.101 A 
HETATM   16  C22 UNK     1      18.854   4.327  30.185  1.00  0.00     0.040 A 
HETATM   17  C20 UNK     1      18.830   5.610  30.734  1.00  0.00     0.015 A 
BRANCH  14  18
HETATM   18  O4  UNK     1      17.572   2.368  33.002  1.00  0.00    -0.353 OA
HETATM   19  C24 UNK     1      18.260   2.136  34.229  1.00  0.00     0.210 C 
ENDBRANCH  14  18
BRANCH  15  20
HETATM   20  O5  UNK     1      18.461   1.989  30.397  1.00  0.00    -0.353 OA
HETATM   21  C25 UNK     1      18.227   1.890  28.993  1.00  0.00     0.210 C 
ENDBRANCH  15  20
ENDBRANCH  10  12
BRANCH  11  22
HETATM   22  C18 UNK     1      15.993   7.568  31.824  1.00  0.00     0.440 C 
HETATM   23  F1  UNK     1      15.527   6.392  32.284  1.00  0.00    -0.164 F 
HETATM   24  F2  UNK     1      15.048   8.504  32.032  1.00  0.00    -0.164 F 
HETATM   25  F3  UNK     1      16.181   7.452  30.495  1.00  0.00    -0.164 F 
ENDBRANCH  11  22
BRANCH   3  26
HETATM   26  C6  UNK     1      16.922  11.798  34.045  1.00  0.00     0.316 C 
BRANCH  26  27
HETATM   27  N1  UNK     1      16.082  11.762  35.244  1.00  0.00     0.092 N 
HETATM   28  C4  UNK     1      14.855  10.997  34.988  1.00  0.00     0.273 C 
HETATM   29  C2  UNK     1      13.990  10.905  36.247  1.00  0.00     0.034 C 
HETATM   30  C1  UNK     1      13.654  12.296  36.796  1.00  0.00    -0.015 C 
HETATM   31  C3  UNK     1      14.942  13.105  36.981  1.00  0.00     0.034 C 
HETATM   32  C7  UNK     1      12.877  12.195  38.107  1.00  0.00     0.010 C 
HETATM   33  C5  UNK     1      15.775  13.125  35.697  1.00  0.00     0.273 C 
ENDBRANCH  26  27
ENDBRANCH   3  26
BRANCH   5  34
HETATM   34  O2  UNK     1      19.169  12.845  35.426  1.00  0.00    -0.360 OA
HETATM   35  H17 UNK     1      19.764  12.919  36.191  1.00  0.00     0.217 HD
ENDBRANCH   5  34
TORSDOF 7
ENDMDL
MODEL 4
REMARK VINA RESULT:      -8.2     12.688     16.170
REMARK  7 active torsions:
REMARK  status: ('A' for Active; 'I' for Inactive)
REMARK    1  A    between atoms: C10_19  and  O2_5 
REMARK    2  A    between atoms: C21_30  and  O4_7 
REMARK    3  A    between atoms: C23_32  and  O5_8 
REMARK    4  A    between atoms: C6_15  and  N1_9 
REMARK    5  A    between atoms: C6_15  and  C8_17 
REMARK    6  A    between atoms: C15_24  and  C17_26 
REMARK    7  A    between atoms: C16_25  and  C18_27 
ROOT
HETATM    1  O1  UNK     1      31.266  -7.419  34.690  1.00  0.00    -0.303 OA
HETATM    2  O3  UNK     1      34.930  -5.684  34.344  1.00  0.00    -0.286 OA
HETATM    3  C8  UNK     1      30.514  -5.682  36.095  1.00  0.00     0.038 A 
HETATM    4  C9  UNK     1      31.533  -6.242  35.333  1.00  0.00     0.101 A 
HETATM    5  C10 UNK     1      30.715  -4.486  36.777  1.00  0.00     0.076 A 
HETATM    6  C11 UNK     1      32.764  -5.602  35.254  1.00  0.00     0.050 A 
HETATM    7  C12 UNK     1      31.951  -3.845  36.696  1.00  0.00     0.038 A 
HETATM    8  C13 UNK     1      32.980  -4.400  35.935  1.00  0.00     0.021 A 
HETATM    9  C14 UNK     1      33.828  -6.209  34.444  1.00  0.00     0.198 A 
HETATM   10  C15 UNK     1      33.496  -7.490  33.755  1.00  0.00     0.064 A 
HETATM   11  C16 UNK     1      32.259  -8.008  33.917  1.00  0.00     0.174 A 
ENDROOT
BRANCH  10  12
HETATM   12  C17 UNK     1      34.509  -8.141  32.935  1.00  0.00    -0.016 A 
HETATM   13  C19 UNK     1      34.592  -7.852  31.574  1.00  0.00     0.052 A 
HETATM   14  C21 UNK     1      35.562  -8.475  30.789  1.00  0.00     0.102 A 
HETATM   15  C23 UNK     1      36.447  -9.386  31.365  1.00  0.00     0.101 A 
HETATM   16  C22 UNK     1      36.362  -9.674  32.728  1.00  0.00     0.040 A 
HETATM   17  C20 UNK     1      35.392  -9.051  33.513  1.00  0.00     0.015 A 
BRANCH  14  18
HETATM   18  O4  UNK     1      35.635  -8.188  29.459  1.00  0.00    -0.353 OA
HETATM   19  C24 UNK     1      34.593  -7.381  28.913  1.00  0.00     0.210 C 
ENDBRANCH  14  18
BRANCH  15  20
HETATM   20  O5  UNK     1      37.398 -10.001  30.609  1.00  0.00    -0.353 OA
HETATM   21  C25 UNK     1      38.394 -10.751  31.303  1.00  0.00     0.210 C 
ENDBRANCH  15  20
ENDBRANCH  10  12
BRANCH  11  22
HETATM   22  C18 UNK     1      31.779  -9.287  33.290  1.00  0.00     0.440 C 
HETATM   23  F1  UNK     1      32.547 -10.324  33.675  1.00  0.00    -0.164 F 
HETATM   24  F2  UNK     1      30.509  -9.550  33.653  1.00  0.00    -0.164 F 
HETATM   25  F3  UNK     1      31.823  -9.209  31.947  1.00  0.00    -0.164 F 
ENDBRANCH  11  22
BRANCH   3  26
HETATM   26  C6  UNK     1      29.177  -6.368  36.189  1.00  0.00     0.316 C 
BRANCH  26  27
HETATM   27  N1  UNK     1      29.080  -7.210  37.382  1.00  0.00     0.092 N 
HETATM   28  C4  UNK     1      29.101  -8.631  37.011  1.00  0.00     0.273 C 
HETATM   29  C2  UNK     1      29.053  -9.525  38.252  1.00  0.00     0.034 C 
HETATM   30  C1  UNK     1      27.828  -9.213  39.118  1.00  0.00    -0.015 C 
HETATM   31  C3  UNK     1      27.782  -7.713  39.427  1.00  0.00     0.034 C 
HETATM   32  C7  UNK     1      27.841 -10.037  40.402  1.00  0.00     0.010 C 
HETATM   33  C5  UNK     1      27.870  -6.878  38.147  1.00  0.00     0.273 C 
ENDBRANCH  26  27
ENDBRANCH   3  26
BRANCH   5  34
HETATM   34  O2  UNK     1      29.725  -3.927  37.527  1.00  0.00    -0.360 OA
HETATM   35  H17 UNK     1      28.959  -4.526  37.541  1.00  0.00     0.217 HD
ENDBRANCH   5  34
TORSDOF 7
ENDMDL
MODEL 5
REMARK VINA RESULT:      -8.2      3.308      8.259
REMARK  7 active torsions:
REMARK  status: ('A' for Active; 'I' for Inactive)
REMARK    1  A    between atoms: C10_19  and  O2_5 
REMARK    2  A    between atoms: C21_30  and  O4_7 
REMARK    3  A    between atoms: C23_32  and  O5_8 
REMARK    4  A    between atoms: C6_15  and  N1_9 
REMARK    5  A    between atoms: C6_15  and  C8_17 
REMARK    6  A    between atoms: C15_24  and  C17_26 
REMARK    7  A    between atoms: C16_25  and  C18_27 
ROOT
HETATM    1  O1  UNK     1      18.758   1.309  32.760  1.00  0.00    -0.303 OA
HETATM    2  O3  UNK     1      18.840   3.876  29.606  1.00  0.00    -0.286 OA
HETATM    3  C8  UNK     1      19.275  -0.517  31.360  1.00  0.00     0.038 A 
HETATM    4  C9  UNK     1      19.033   0.845  31.503  1.00  0.00     0.101 A 
HETATM    5  C10 UNK     1      19.559  -1.058  30.111  1.00  0.00     0.076 A 
HETATM    6  C11 UNK     1      19.074   1.672  30.387  1.00  0.00     0.050 A 
HETATM    7  C12 UNK     1      19.601  -0.226  28.991  1.00  0.00     0.038 A 
HETATM    8  C13 UNK     1      19.358   1.141  29.125  1.00  0.00     0.021 A 
HETATM    9  C14 UNK     1      18.816   3.108  30.559  1.00  0.00     0.198 A 
HETATM   10  C15 UNK     1      18.526   3.574  31.945  1.00  0.00     0.064 A 
HETATM   11  C16 UNK     1      18.514   2.664  32.943  1.00  0.00     0.174 A 
ENDROOT
BRANCH  10  12
HETATM   12  C17 UNK     1      18.263   4.988  32.181  1.00  0.00    -0.016 A 
HETATM   13  C19 UNK     1      16.967   5.484  32.057  1.00  0.00     0.052 A 
HETATM   14  C21 UNK     1      16.715   6.837  32.284  1.00  0.00     0.102 A 
HETATM   15  C23 UNK     1      17.760   7.691  32.634  1.00  0.00     0.101 A 
HETATM   16  C22 UNK     1      19.057   7.193  32.758  1.00  0.00     0.040 A 
HETATM   17  C20 UNK     1      19.309   5.839  32.531  1.00  0.00     0.015 A 
BRANCH  14  18
HETATM   18  O4  UNK     1      15.445   7.313  32.158  1.00  0.00    -0.353 OA
HETATM   19  C24 UNK     1      14.634   7.313  33.331  1.00  0.00     0.210 C 
ENDBRANCH  14  18
BRANCH  15  20
HETATM   20  O5  UNK     1      17.527   9.015  32.857  1.00  0.00    -0.353 OA
HETATM   21  C25 UNK     1      18.272   9.637  33.902  1.00  0.00     0.210 C 
ENDBRANCH  15  20
ENDBRANCH  10  12
BRANCH  11  22
HETATM   22  C18 UNK     1      18.237   2.981  34.386  1.00  0.00     0.440 C 
HETATM   23  F1  UNK     1      17.205   2.250  34.845  1.00  0.00    -0.164 F 
HETATM   24  F2  UNK     1      19.313   2.711  35.150  1.00  0.00    -0.164 F 
HETATM   25  F3  UNK     1      17.930   4.283  34.541  1.00  0.00    -0.164 F 
ENDBRANCH  11  22
BRANCH   3  26
HETATM   26  C6  UNK     1      19.231  -1.421  32.563  1.00  0.00     0.316 C 
BRANCH  26  27
HETATM   27  N1  UNK     1      18.590  -0.773  33.708  1.00  0.00     0.092 N 
HETATM   28  C4  UNK     1      19.335  -1.057  34.942  1.00  0.00     0.273 C 
HETATM   29  C2  UNK     1      18.708  -0.343  36.141  1.00  0.00     0.034 C 
HETATM   30  C1  UNK     1      17.232  -0.719  36.305  1.00  0.00    -0.015 C 
HETATM   31  C3  UNK     1      16.490  -0.490  34.984  1.00  0.00     0.034 C 
HETATM   32  C7  UNK     1      16.587   0.073  37.440  1.00  0.00     0.010 C 
HETATM   33  C5  UNK     1      17.189  -1.201  33.823  1.00  0.00     0.273 C 
ENDBRANCH  26  27
ENDBRANCH   3  26
BRANCH   5  34
HETATM   34  O2  UNK     1      19.798  -2.391  29.957  1.00  0.00    -0.360 OA
HETATM   35  H17 UNK     1      20.228  -2.731  30.759  1.00  0.00     0.217 HD
ENDBRANCH   5  34
TORSDOF 7
ENDMDL
MODEL 6
REMARK VINA RESULT:      -8.0     10.702     13.315
REMARK  7 active torsions:
REMARK  status: ('A' for Active; 'I' for Inactive)
REMARK    1  A    between atoms: C10_19  and  O2_5 
REMARK    2  A    between atoms: C21_30  and  O4_7 
REMARK    3  A    between atoms: C23_32  and  O5_8 
REMARK    4  A    between atoms: C6_15  and  N1_9 
REMARK    5  A    between atoms: C6_15  and  C8_17 
REMARK    6  A    between atoms: C15_24  and  C17_26 
REMARK    7  A    between atoms: C16_25  and  C18_27 
ROOT
HETATM    1  O1  UNK     1      28.490  -8.069  38.595  1.00  0.00    -0.303 OA
HETATM    2  O3  UNK     1      25.609  -5.197  38.640  1.00  0.00    -0.286 OA
HETATM    3  C8  UNK     1      30.194  -6.439  38.614  1.00  0.00     0.038 A 
HETATM    4  C9  UNK     1      28.838  -6.746  38.613  1.00  0.00     0.101 A 
HETATM    5  C10 UNK     1      30.620  -5.115  38.632  1.00  0.00     0.076 A 
HETATM    6  C11 UNK     1      27.900  -5.720  38.629  1.00  0.00     0.050 A 
HETATM    7  C12 UNK     1      29.677  -4.086  38.647  1.00  0.00     0.038 A 
HETATM    8  C13 UNK     1      28.314  -4.385  38.646  1.00  0.00     0.021 A 
HETATM    9  C14 UNK     1      26.473  -6.065  38.629  1.00  0.00     0.198 A 
HETATM   10  C15 UNK     1      26.135  -7.518  38.613  1.00  0.00     0.064 A 
HETATM   11  C16 UNK     1      27.145  -8.415  38.597  1.00  0.00     0.174 A 
ENDROOT
BRANCH  10  12
HETATM   12  C17 UNK     1      24.736  -7.925  38.613  1.00  0.00    -0.016 A 
HETATM   13  C19 UNK     1      24.139  -8.363  37.433  1.00  0.00     0.052 A 
HETATM   14  C21 UNK     1      22.800  -8.753  37.433  1.00  0.00     0.102 A 
HETATM   15  C23 UNK     1      22.060  -8.705  38.614  1.00  0.00     0.101 A 
HETATM   16  C22 UNK     1      22.659  -8.265  39.795  1.00  0.00     0.040 A 
HETATM   17  C20 UNK     1      23.999  -7.875  39.794  1.00  0.00     0.015 A 
BRANCH  14  18
HETATM   18  O4  UNK     1      22.225  -9.178  36.274  1.00  0.00    -0.353 OA
HETATM   19  C24 UNK     1      22.606 -10.467  35.796  1.00  0.00     0.210 C 
ENDBRANCH  14  18
BRANCH  15  20
HETATM   20  O5  UNK     1      20.752  -9.082  38.627  1.00  0.00    -0.353 OA
HETATM   21  C25 UNK     1      19.804  -8.123  39.094  1.00  0.00     0.210 C 
ENDBRANCH  15  20
ENDBRANCH  10  12
BRANCH  11  22
HETATM   22  C18 UNK     1      26.963  -9.907  38.578  1.00  0.00     0.440 C 
HETATM   23  F1  UNK     1      28.152 -10.533  38.657  1.00  0.00    -0.164 F 
HETATM   24  F2  UNK     1      26.208 -10.309  39.619  1.00  0.00    -0.164 F 
HETATM   25  F3  UNK     1      26.356 -10.303  37.444  1.00  0.00    -0.164 F 
ENDBRANCH  11  22
BRANCH   3  26
HETATM   26  C6  UNK     1      31.218  -7.542  38.596  1.00  0.00     0.316 C 
BRANCH  26  27
HETATM   27  N1  UNK     1      31.325  -8.164  37.275  1.00  0.00     0.092 N 
HETATM   28  C4  UNK     1      31.420  -9.624  37.401  1.00  0.00     0.273 C 
HETATM   29  C2  UNK     1      31.479 -10.293  36.026  1.00  0.00     0.034 C 
HETATM   30  C1  UNK     1      32.641  -9.748  35.190  1.00  0.00    -0.015 C 
HETATM   31  C3  UNK     1      32.568  -8.218  35.137  1.00  0.00     0.034 C 
HETATM   32  C7  UNK     1      32.634 -10.346  33.786  1.00  0.00     0.010 C 
HETATM   33  C5  UNK     1      32.475  -7.618  36.542  1.00  0.00     0.273 C 
ENDBRANCH  26  27
ENDBRANCH   3  26
BRANCH   5  34
HETATM   34  O2  UNK     1      31.946  -4.800  38.632  1.00  0.00    -0.360 OA
HETATM   35  H17 UNK     1      32.044  -3.840  38.754  1.00  0.00     0.217 HD
ENDBRANCH   5  34
TORSDOF 7
ENDMDL
MODEL 7
REMARK VINA RESULT:      -8.0     12.273     15.492
REMARK  7 active torsions:
REMARK  status: ('A' for Active; 'I' for Inactive)
REMARK    1  A    between atoms: C10_19  and  O2_5 
REMARK    2  A    between atoms: C21_30  and  O4_7 
REMARK    3  A    between atoms: C23_32  and  O5_8 
REMARK    4  A    between atoms: C6_15  and  N1_9 
REMARK    5  A    between atoms: C6_15  and  C8_17 
REMARK    6  A    between atoms: C15_24  and  C17_26 
REMARK    7  A    between atoms: C16_25  and  C18_27 
ROOT
HETATM    1  O1  UNK     1      30.902  -7.719  36.406  1.00  0.00    -0.303 OA
HETATM    2  O3  UNK     1      32.647  -4.497  34.638  1.00  0.00    -0.286 OA
HETATM    3  C8  UNK     1      29.839  -6.341  37.998  1.00  0.00     0.038 A 
HETATM    4  C9  UNK     1      30.676  -6.461  36.893  1.00  0.00     0.101 A 
HETATM    5  C10 UNK     1      29.565  -5.092  38.545  1.00  0.00     0.076 A 
HETATM    6  C11 UNK     1      31.243  -5.322  36.333  1.00  0.00     0.050 A 
HETATM    7  C12 UNK     1      30.135  -3.951  37.982  1.00  0.00     0.038 A 
HETATM    8  C13 UNK     1      30.976  -4.061  36.874  1.00  0.00     0.021 A 
HETATM    9  C14 UNK     1      32.122  -5.470  35.166  1.00  0.00     0.198 A 
HETATM   10  C15 UNK     1      32.341  -6.857  34.664  1.00  0.00     0.064 A 
HETATM   11  C16 UNK     1      31.730  -7.878  35.302  1.00  0.00     0.174 A 
ENDROOT
BRANCH  10  12
HETATM   12  C17 UNK     1      33.202  -7.069  33.507  1.00  0.00    -0.016 A 
HETATM   13  C19 UNK     1      34.584  -7.135  33.673  1.00  0.00     0.052 A 
HETATM   14  C21 UNK     1      35.409  -7.339  32.567  1.00  0.00     0.102 A 
HETATM   15  C23 UNK     1      34.850  -7.477  31.297  1.00  0.00     0.101 A 
HETATM   16  C22 UNK     1      33.466  -7.410  31.132  1.00  0.00     0.040 A 
HETATM   17  C20 UNK     1      32.641  -7.206  32.239  1.00  0.00     0.015 A 
BRANCH  14  18
HETATM   18  O4  UNK     1      36.759  -7.400  32.739  1.00  0.00    -0.353 OA
HETATM   19  C24 UNK     1      37.238  -7.484  34.079  1.00  0.00     0.210 C 
ENDBRANCH  14  18
BRANCH  15  20
HETATM   20  O5  UNK     1      35.645  -7.675  30.209  1.00  0.00    -0.353 OA
HETATM   21  C25 UNK     1      35.062  -7.438  28.928  1.00  0.00     0.210 C 
ENDBRANCH  15  20
ENDBRANCH  10  12
BRANCH  11  22
HETATM   22  C18 UNK     1      31.854  -9.326  34.915  1.00  0.00     0.440 C 
HETATM   23  F1  UNK     1      31.248 -10.115  35.821  1.00  0.00    -0.164 F 
HETATM   24  F2  UNK     1      31.284  -9.550  33.716  1.00  0.00    -0.164 F 
HETATM   25  F3  UNK     1      33.147  -9.693  34.838  1.00  0.00    -0.164 F 
ENDBRANCH  11  22
BRANCH   3  26
HETATM   26  C6  UNK     1      29.221  -7.568  38.613  1.00  0.00     0.316 C 
BRANCH  26  27
HETATM   27  N1  UNK     1      28.011  -7.982  37.902  1.00  0.00     0.092 N 
HETATM   28  C4  UNK     1      26.879  -8.087  38.832  1.00  0.00     0.273 C 
HETATM   29  C2  UNK     1      25.593  -8.468  38.096  1.00  0.00     0.034 C 
HETATM   30  C1  UNK     1      25.766  -9.772  37.310  1.00  0.00    -0.015 C 
HETATM   31  C3  UNK     1      26.998  -9.670  36.403  1.00  0.00     0.034 C 
HETATM   32  C7  UNK     1      24.514 -10.092  36.498  1.00  0.00     0.010 C 
HETATM   33  C5  UNK     1      28.238  -9.251  37.196  1.00  0.00     0.273 C 
ENDBRANCH  26  27
ENDBRANCH   3  26
BRANCH   5  34
HETATM   34  O2  UNK     1      28.748  -4.961  39.628  1.00  0.00    -0.360 OA
HETATM   35  H17 UNK     1      28.688  -4.021  39.868  1.00  0.00     0.217 HD
ENDBRANCH   5  34
TORSDOF 7
ENDMDL
MODEL 8
REMARK VINA RESULT:      -7.9     11.502     14.460
REMARK  7 active torsions:
REMARK  status: ('A' for Active; 'I' for Inactive)
REMARK    1  A    between atoms: C10_19  and  O2_5 
REMARK    2  A    between atoms: C21_30  and  O4_7 
REMARK    3  A    between atoms: C23_32  and  O5_8 
REMARK    4  A    between atoms: C6_15  and  N1_9 
REMARK    5  A    between atoms: C6_15  and  C8_17 
REMARK    6  A    between atoms: C15_24  and  C17_26 
REMARK    7  A    between atoms: C16_25  and  C18_27 
ROOT
HETATM    1  O1  UNK     1      29.992  -6.059  34.944  1.00  0.00    -0.303 OA
HETATM    2  O3  UNK     1      33.446  -7.148  33.090  1.00  0.00    -0.286 OA
HETATM    3  C8  UNK     1      31.174  -5.365  36.862  1.00  0.00     0.038 A 
HETATM    4  C9  UNK     1      31.193  -5.902  35.579  1.00  0.00     0.101 A 
HETATM    5  C10 UNK     1      32.358  -5.177  37.568  1.00  0.00     0.076 A 
HETATM    6  C11 UNK     1      32.406  -6.255  34.999  1.00  0.00     0.050 A 
HETATM    7  C12 UNK     1      33.574  -5.532  36.984  1.00  0.00     0.038 A 
HETATM    8  C13 UNK     1      33.602  -6.072  35.698  1.00  0.00     0.021 A 
HETATM    9  C14 UNK     1      32.404  -6.820  33.643  1.00  0.00     0.198 A 
HETATM   10  C15 UNK     1      31.076  -6.971  32.983  1.00  0.00     0.064 A 
HETATM   11  C16 UNK     1      29.971  -6.590  33.660  1.00  0.00     0.174 A 
ENDROOT
BRANCH  10  12
HETATM   12  C17 UNK     1      31.008  -7.524  31.636  1.00  0.00    -0.016 A 
HETATM   13  C19 UNK     1      31.085  -8.903  31.447  1.00  0.00     0.052 A 
HETATM   14  C21 UNK     1      31.019  -9.433  30.158  1.00  0.00     0.102 A 
HETATM   15  C23 UNK     1      30.877  -8.583  29.061  1.00  0.00     0.101 A 
HETATM   16  C22 UNK     1      30.801  -7.203  29.253  1.00  0.00     0.040 A 
HETATM   17  C20 UNK     1      30.866  -6.673  30.542  1.00  0.00     0.015 A 
BRANCH  14  18
HETATM   18  O4  UNK     1      31.096 -10.781  29.982  1.00  0.00    -0.353 OA
HETATM   19  C24 UNK     1      32.395 -11.368  30.040  1.00  0.00     0.210 C 
ENDBRANCH  14  18
BRANCH  15  20
HETATM   20  O5  UNK     1      30.813  -9.088  27.798  1.00  0.00    -0.353 OA
HETATM   21  C25 UNK     1      29.671  -9.880  27.474  1.00  0.00     0.210 C 
ENDBRANCH  15  20
ENDBRANCH  10  12
BRANCH  11  22
HETATM   22  C18 UNK     1      28.568  -6.682  33.128  1.00  0.00     0.440 C 
HETATM   23  F1  UNK     1      28.281  -7.944  32.756  1.00  0.00    -0.164 F 
HETATM   24  F2  UNK     1      27.676  -6.310  34.066  1.00  0.00    -0.164 F 
HETATM   25  F3  UNK     1      28.407  -5.883  32.057  1.00  0.00    -0.164 F 
ENDBRANCH  11  22
BRANCH   3  26
HETATM   26  C6  UNK     1      29.866  -4.980  37.500  1.00  0.00     0.316 C 
BRANCH  26  27
HETATM   27  N1  UNK     1      29.015  -6.146  37.742  1.00  0.00     0.092 N 
HETATM   28  C4  UNK     1      27.814  -5.758  38.492  1.00  0.00     0.273 C 
HETATM   29  C2  UNK     1      26.887  -6.957  38.707  1.00  0.00     0.034 C 
HETATM   30  C1  UNK     1      27.616  -8.105  39.414  1.00  0.00    -0.015 C 
HETATM   31  C3  UNK     1      28.906  -8.441  38.659  1.00  0.00     0.034 C 
HETATM   32  C7  UNK     1      26.716  -9.332  39.535  1.00  0.00     0.010 C 
HETATM   33  C5  UNK     1      29.767  -7.193  38.447  1.00  0.00     0.273 C 
ENDBRANCH  26  27
ENDBRANCH   3  26
BRANCH   5  34
HETATM   34  O2  UNK     1      32.354  -4.653  38.826  1.00  0.00    -0.360 OA
HETATM   35  H17 UNK     1      31.557  -4.955  39.294  1.00  0.00     0.217 HD
ENDBRANCH   5  34
TORSDOF 7
ENDMDL
MODEL 9
REMARK VINA RESULT:      -7.9     26.052     27.889
REMARK  7 active torsions:
REMARK  status: ('A' for Active; 'I' for Inactive)
REMARK    1  A    between atoms: C10_19  and  O2_5 
REMARK    2  A    between atoms: C21_30  and  O4_7 
REMARK    3  A    between atoms: C23_32  and  O5_8 
REMARK    4  A    between atoms: C6_15  and  N1_9 
REMARK    5  A    between atoms: C6_15  and  C8_17 
REMARK    6  A    between atoms: C15_24  and  C17_26 
REMARK    7  A    between atoms: C16_25  and  C18_27 
ROOT
HETATM    1  O1  UNK     1      10.946   8.231   9.502  1.00  0.00    -0.303 OA
HETATM    2  O3  UNK     1      13.781   7.377   6.712  1.00  0.00    -0.286 OA
HETATM    3  C8  UNK     1       9.316   7.025   8.297  1.00  0.00     0.038 A 
HETATM    4  C9  UNK     1      10.628   7.475   8.407  1.00  0.00     0.101 A 
HETATM    5  C10 UNK     1       8.922   6.252   7.210  1.00  0.00     0.076 A 
HETATM    6  C11 UNK     1      11.551   7.150   7.420  1.00  0.00     0.050 A 
HETATM    7  C12 UNK     1       9.851   5.927   6.221  1.00  0.00     0.038 A 
HETATM    8  C13 UNK     1      11.169   6.375   6.322  1.00  0.00     0.021 A 
HETATM    9  C14 UNK     1      12.931   7.635   7.555  1.00  0.00     0.198 A 
HETATM   10  C15 UNK     1      13.239   8.452   8.764  1.00  0.00     0.064 A 
HETATM   11  C16 UNK     1      12.246   8.696   9.647  1.00  0.00     0.174 A 
ENDROOT
BRANCH  10  12
HETATM   12  C17 UNK     1      14.591   8.961   8.956  1.00  0.00    -0.016 A 
HETATM   13  C19 UNK     1      14.991  10.129   8.312  1.00  0.00     0.052 A 
HETATM   14  C21 UNK     1      16.285  10.617   8.496  1.00  0.00     0.102 A 
HETATM   15  C23 UNK     1      17.176   9.935   9.324  1.00  0.00     0.101 A 
HETATM   16  C22 UNK     1      16.773   8.764   9.968  1.00  0.00     0.040 A 
HETATM   17  C20 UNK     1      15.479   8.277   9.784  1.00  0.00     0.015 A 
BRANCH  14  18
HETATM   18  O4  UNK     1      16.668  11.760   7.861  1.00  0.00    -0.353 OA
HETATM   19  C24 UNK     1      15.661  12.744   7.636  1.00  0.00     0.210 C 
ENDBRANCH  14  18
BRANCH  15  20
HETATM   20  O5  UNK     1      18.442  10.400   9.511  1.00  0.00    -0.353 OA
HETATM   21  C25 UNK     1      18.599  11.520  10.382  1.00  0.00     0.210 C 
ENDBRANCH  15  20
ENDBRANCH  10  12
BRANCH  11  22
HETATM   22  C18 UNK     1      12.402   9.501  10.907  1.00  0.00     0.440 C 
HETATM   23  F1  UNK     1      13.171   8.848  11.798  1.00  0.00    -0.164 F 
HETATM   24  F2  UNK     1      12.981  10.690  10.647  1.00  0.00    -0.164 F 
HETATM   25  F3  UNK     1      11.206   9.735  11.479  1.00  0.00    -0.164 F 
ENDBRANCH  11  22
BRANCH   3  26
HETATM   26  C6  UNK     1       8.308   7.372   9.359  1.00  0.00     0.316 C 
BRANCH  26  27
HETATM   27  N1  UNK     1       7.443   6.236   9.682  1.00  0.00     0.092 N 
HETATM   28  C4  UNK     1       6.335   6.662  10.546  1.00  0.00     0.273 C 
HETATM   29  C2  UNK     1       5.392   5.496  10.849  1.00  0.00     0.034 C 
HETATM   30  C1  UNK     1       6.145   4.319  11.479  1.00  0.00    -0.015 C 
HETATM   31  C3  UNK     1       7.343   3.942  10.602  1.00  0.00     0.034 C 
HETATM   32  C7  UNK     1       5.218   3.124  11.686  1.00  0.00     0.010 C 
HETATM   33  C5  UNK     1       8.223   5.159  10.309  1.00  0.00     0.273 C 
ENDBRANCH  26  27
ENDBRANCH   3  26
BRANCH   5  34
HETATM   34  O2  UNK     1       7.641   5.805   7.090  1.00  0.00    -0.360 OA
HETATM   35  H17 UNK     1       7.654   4.863   6.848  1.00  0.00     0.217 HD
ENDBRANCH   5  34
TORSDOF 7
ENDMDL
MODEL 10
REMARK VINA RESULT:      -7.8     12.651     15.060
REMARK  7 active torsions:
REMARK  status: ('A' for Active; 'I' for Inactive)
REMARK    1  A    between atoms: C10_19  and  O2_5 
REMARK    2  A    between atoms: C21_30  and  O4_7 
REMARK    3  A    between atoms: C23_32  and  O5_8 
REMARK    4  A    between atoms: C6_15  and  N1_9 
REMARK    5  A    between atoms: C6_15  and  C8_17 
REMARK    6  A    between atoms: C15_24  and  C17_26 
REMARK    7  A    between atoms: C16_25  and  C18_27 
ROOT
HETATM    1  O1  UNK     1      32.383  -7.083  31.989  1.00  0.00    -0.303 OA
HETATM    2  O3  UNK     1      34.088  -7.639  35.641  1.00  0.00    -0.286 OA
HETATM    3  C8  UNK     1      34.266  -8.003  30.907  1.00  0.00     0.038 A 
HETATM    4  C9  UNK     1      33.627  -7.643  32.089  1.00  0.00     0.101 A 
HETATM    5  C10 UNK     1      35.533  -8.576  30.934  1.00  0.00     0.076 A 
HETATM    6  C11 UNK     1      34.262  -7.858  33.307  1.00  0.00     0.050 A 
HETATM    7  C12 UNK     1      36.169  -8.790  32.157  1.00  0.00     0.038 A 
HETATM    8  C13 UNK     1      35.536  -8.432  33.348  1.00  0.00     0.021 A 
HETATM    9  C14 UNK     1      33.570  -7.472  34.544  1.00  0.00     0.198 A 
HETATM   10  C15 UNK     1      32.215  -6.869  34.392  1.00  0.00     0.064 A 
HETATM   11  C16 UNK     1      31.713  -6.714  33.148  1.00  0.00     0.174 A 
ENDROOT
BRANCH  10  12
HETATM   12  C17 UNK     1      31.476  -6.467  35.583  1.00  0.00    -0.016 A 
HETATM   13  C19 UNK     1      30.716  -7.405  36.279  1.00  0.00     0.052 A 
HETATM   14  C21 UNK     1      30.010  -7.020  37.418  1.00  0.00     0.102 A 
HETATM   15  C23 UNK     1      30.065  -5.699  37.860  1.00  0.00     0.101 A 
HETATM   16  C22 UNK     1      30.827  -4.761  37.162  1.00  0.00     0.040 A 
HETATM   17  C20 UNK     1      31.534  -5.146  36.022  1.00  0.00     0.015 A 
BRANCH  14  18
HETATM   18  O4  UNK     1      29.267  -7.943  38.091  1.00  0.00    -0.353 OA
HETATM   19  C24 UNK     1      29.810  -9.258  38.197  1.00  0.00     0.210 C 
ENDBRANCH  14  18
BRANCH  15  20
HETATM   20  O5  UNK     1      29.380  -5.311  38.971  1.00  0.00    -0.353 OA
HETATM   21  C25 UNK     1      29.539  -3.957  39.392  1.00  0.00     0.210 C 
ENDBRANCH  15  20
ENDBRANCH  10  12
BRANCH  11  22
HETATM   22  C18 UNK     1      30.366  -6.124  32.837  1.00  0.00     0.440 C 
HETATM   23  F1  UNK     1      30.018  -6.375  31.561  1.00  0.00    -0.164 F 
HETATM   24  F2  UNK     1      29.418  -6.646  33.639  1.00  0.00    -0.164 F 
HETATM   25  F3  UNK     1      30.374  -4.789  33.013  1.00  0.00    -0.164 F 
ENDBRANCH  11  22
BRANCH   3  26
HETATM   26  C6  UNK     1      33.588  -7.773  29.583  1.00  0.00     0.316 C 
BRANCH  26  27
HETATM   27  N1  UNK     1      32.236  -8.333  29.560  1.00  0.00     0.092 N 
HETATM   28  C4  UNK     1      32.273  -9.747  29.164  1.00  0.00     0.273 C 
HETATM   29  C2  UNK     1      30.872 -10.362  29.185  1.00  0.00     0.034 C 
HETATM   30  C1  UNK     1      29.904  -9.577  28.292  1.00  0.00    -0.015 C 
HETATM   31  C3  UNK     1      29.940  -8.093  28.669  1.00  0.00     0.034 C 
HETATM   32  C7  UNK     1      28.487 -10.135  28.397  1.00  0.00     0.010 C 
HETATM   33  C5  UNK     1      31.372  -7.552  28.663  1.00  0.00     0.273 C 
ENDBRANCH  26  27
ENDBRANCH   3  26
BRANCH   5  34
HETATM   34  O2  UNK     1      36.171  -8.932  29.783  1.00  0.00    -0.360 OA
HETATM   35  H17 UNK     1      36.497  -9.844  29.870  1.00  0.00     0.217 HD
ENDBRANCH   5  34
TORSDOF 7
ENDMDL
