MODEL 1
REMARK VINA RESULT:      -8.6      0.000      0.000
REMARK  1 active torsions:
REMARK  status: ('A' for Active; 'I' for Inactive)
REMARK    1  A    between atoms: C8_14  and  N1_6 
ROOT
HETATM    1  O1  UNK     1      17.730   3.901  30.995  1.00  0.00    -0.332 OA
HETATM    2  O3  UNK     1      19.748  -0.462  31.757  1.00  0.00    -0.274 OA
HETATM    3  O4  UNK     1      18.235   3.608  34.557  1.00  0.00    -0.289 OA
HETATM    4  O5  UNK     1      20.771  -2.489  32.054  1.00  0.00    -0.260 OA
HETATM    5  C1  UNK     1      18.177   4.383  32.264  1.00  0.00     0.125 C 
HETATM    6  C2  UNK     1      18.379   1.908  32.888  1.00  0.00     0.044 C 
HETATM    7  C3  UNK     1      18.649   1.690  31.457  1.00  0.00     0.048 A 
HETATM    8  C4  UNK     1      18.250   3.318  33.363  1.00  0.00     0.196 C 
HETATM    9  C5  UNK     1      18.278   2.716  30.577  1.00  0.00     0.084 A 
HETATM   10  C8  UNK     1      18.120   0.943  33.783  1.00  0.00     0.102 C 
HETATM   11  C9  UNK     1      17.148   5.443  32.680  1.00  0.00     0.055 C 
HETATM   12  C10 UNK     1      19.551   5.047  32.109  1.00  0.00     0.055 C 
HETATM   13  C11 UNK     1      19.260   0.554  30.899  1.00  0.00     0.103 A 
HETATM   14  C14 UNK     1      19.432   0.404  29.519  1.00  0.00    -0.001 A 
HETATM   15  C15 UNK     1      18.422   2.570  29.192  1.00  0.00     0.039 A 
HETATM   16  C16 UNK     1      18.995   1.416  28.664  1.00  0.00     0.017 A 
HETATM   17  C17 UNK     1      20.065  -0.799  29.004  1.00  0.00     0.020 A 
HETATM   18  C18 UNK     1      20.499  -1.748  29.834  1.00  0.00     0.083 A 
HETATM   19  C19 UNK     1      20.363  -1.619  31.294  1.00  0.00     0.288 A 
ENDROOT
BRANCH  10  20
HETATM   20  N1  UNK     1      17.864   1.088  35.115  1.00  0.00    -0.385 N 
HETATM   21  C6  UNK     1      18.921   1.044  36.126  1.00  0.00     0.148 C 
HETATM   22  C12 UNK     1      18.456   0.198  37.305  1.00  0.00     0.187 C 
HETATM   23  O2  UNK     1      17.216   0.695  37.816  1.00  0.00    -0.388 OA
HETATM   24  C13 UNK     1      16.190   0.622  36.823  1.00  0.00     0.187 C 
HETATM   25  C7  UNK     1      16.551   1.488  35.622  1.00  0.00     0.148 C 
ENDBRANCH  10  20
TORSDOF 1
ENDMDL
MODEL 2
REMARK VINA RESULT:      -8.2     23.692     25.138
REMARK  1 active torsions:
REMARK  status: ('A' for Active; 'I' for Inactive)
REMARK    1  A    between atoms: C8_14  and  N1_6 
ROOT
HETATM    1  O1  UNK     1      12.446  10.829   9.820  1.00  0.00    -0.332 OA
HETATM    2  O3  UNK     1      14.935   6.653   9.576  1.00  0.00    -0.274 OA
HETATM    3  O4  UNK     1      10.000   8.174   9.754  1.00  0.00    -0.289 OA
HETATM    4  O5  UNK     1      16.154   4.715   9.544  1.00  0.00    -0.260 OA
HETATM    5  C1  UNK     1      11.276  10.159  10.296  1.00  0.00     0.125 C 
HETATM    6  C2  UNK     1      12.341   8.055   9.301  1.00  0.00     0.044 C 
HETATM    7  C3  UNK     1      13.626   8.707   9.596  1.00  0.00     0.048 A 
HETATM    8  C4  UNK     1      11.094   8.734   9.766  1.00  0.00     0.196 C 
HETATM    9  C5  UNK     1      13.601  10.090   9.822  1.00  0.00     0.084 A 
HETATM   10  C8  UNK     1      12.184   6.959   8.542  1.00  0.00     0.102 C 
HETATM   11  C9  UNK     1      10.096  11.013   9.813  1.00  0.00     0.055 C 
HETATM   12  C10 UNK     1      11.285  10.133  11.829  1.00  0.00     0.055 C 
HETATM   13  C11 UNK     1      14.873   8.064   9.690  1.00  0.00     0.103 A 
HETATM   14  C14 UNK     1      16.058   8.769   9.925  1.00  0.00    -0.001 A 
HETATM   15  C15 UNK     1      14.781  10.813  10.033  1.00  0.00     0.039 A 
HETATM   16  C16 UNK     1      16.007  10.154  10.082  1.00  0.00     0.017 A 
HETATM   17  C17 UNK     1      17.317   8.045  10.003  1.00  0.00     0.020 A 
HETATM   18  C18 UNK     1      17.348   6.718   9.874  1.00  0.00     0.083 A 
HETATM   19  C19 UNK     1      16.122   5.934   9.654  1.00  0.00     0.288 A 
ENDROOT
BRANCH  10  20
HETATM   20  N1  UNK     1      11.021   6.315   8.236  1.00  0.00    -0.385 N 
HETATM   21  C6  UNK     1      10.322   6.520   6.968  1.00  0.00     0.148 C 
HETATM   22  C12 UNK     1       8.827   6.660   7.232  1.00  0.00     0.187 C 
HETATM   23  O2  UNK     1       8.343   5.529   7.960  1.00  0.00    -0.388 OA
HETATM   24  C13 UNK     1       8.983   5.430   9.235  1.00  0.00     0.187 C 
HETATM   25  C7  UNK     1      10.484   5.233   9.061  1.00  0.00     0.148 C 
ENDBRANCH  10  20
TORSDOF 1
ENDMDL
MODEL 3
REMARK VINA RESULT:      -8.0     22.500     25.044
REMARK  1 active torsions:
REMARK  status: ('A' for Active; 'I' for Inactive)
REMARK    1  A    between atoms: C8_14  and  N1_6 
ROOT
HETATM    1  O1  UNK     1      14.173   6.388   8.137  1.00  0.00    -0.332 OA
HETATM    2  O3  UNK     1       9.807   7.959   9.608  1.00  0.00    -0.274 OA
HETATM    3  O4  UNK     1      14.665   7.930  11.364  1.00  0.00    -0.289 OA
HETATM    4  O5  UNK     1       7.718   8.605  10.289  1.00  0.00    -0.260 OA
HETATM    5  C1  UNK     1      14.687   6.422   9.471  1.00  0.00     0.125 C 
HETATM    6  C2  UNK     1      12.748   8.024   9.946  1.00  0.00     0.044 C 
HETATM    7  C3  UNK     1      12.035   7.289   8.889  1.00  0.00     0.048 A 
HETATM    8  C4  UNK     1      14.091   7.517  10.359  1.00  0.00     0.196 C 
HETATM    9  C5  UNK     1      12.813   6.516   8.016  1.00  0.00     0.084 A 
HETATM   10  C8  UNK     1      12.347   9.184  10.488  1.00  0.00     0.102 C 
HETATM   11  C9  UNK     1      16.192   6.682   9.319  1.00  0.00     0.055 C 
HETATM   12  C10 UNK     1      14.476   5.057  10.138  1.00  0.00     0.055 C 
HETATM   13  C11 UNK     1      10.644   7.280   8.688  1.00  0.00     0.103 A 
HETATM   14  C14 UNK     1      10.050   6.593   7.624  1.00  0.00    -0.001 A 
HETATM   15  C15 UNK     1      12.236   5.843   6.932  1.00  0.00     0.039 A 
HETATM   16  C16 UNK     1      10.858   5.884   6.735  1.00  0.00     0.017 A 
HETATM   17  C17 UNK     1       8.605   6.629   7.467  1.00  0.00     0.020 A 
HETATM   18  C18 UNK     1       7.842   7.292   8.338  1.00  0.00     0.083 A 
HETATM   19  C19 UNK     1       8.423   8.004   9.487  1.00  0.00     0.288 A 
ENDROOT
BRANCH  10  20
HETATM   20  N1  UNK     1      12.966   9.905  11.467  1.00  0.00    -0.385 N 
HETATM   21  C6  UNK     1      12.669   9.718  12.887  1.00  0.00     0.148 C 
HETATM   22  C12 UNK     1      12.549  11.080  13.561  1.00  0.00     0.187 C 
HETATM   23  O2  UNK     1      13.730  11.852  13.336  1.00  0.00    -0.388 OA
HETATM   24  C13 UNK     1      13.923  12.096  11.940  1.00  0.00     0.187 C 
HETATM   25  C7  UNK     1      14.107  10.780  11.193  1.00  0.00     0.148 C 
ENDBRANCH  10  20
TORSDOF 1
ENDMDL
MODEL 4
REMARK VINA RESULT:      -7.8     23.220     25.801
REMARK  1 active torsions:
REMARK  status: ('A' for Active; 'I' for Inactive)
REMARK    1  A    between atoms: C8_14  and  N1_6 
ROOT
HETATM    1  O1  UNK     1       9.189   9.824  11.062  1.00  0.00    -0.332 OA
HETATM    2  O3  UNK     1      11.282   7.380   7.411  1.00  0.00    -0.274 OA
HETATM    3  O4  UNK     1      12.536  11.135  10.730  1.00  0.00    -0.289 OA
HETATM    4  O5  UNK     1      12.193   6.258   5.634  1.00  0.00    -0.260 OA
HETATM    5  C1  UNK     1      10.138  10.887  10.958  1.00  0.00     0.125 C 
HETATM    6  C2  UNK     1      11.601   9.171   9.747  1.00  0.00     0.044 C 
HETATM    7  C3  UNK     1      10.331   8.569   9.311  1.00  0.00     0.048 A 
HETATM    8  C4  UNK     1      11.537  10.454  10.508  1.00  0.00     0.196 C 
HETATM    9  C5  UNK     1       9.180   8.926  10.026  1.00  0.00     0.084 A 
HETATM   10  C8  UNK     1      12.810   8.602   9.624  1.00  0.00     0.102 C 
HETATM   11  C9  UNK     1      10.242  11.477  12.371  1.00  0.00     0.055 C 
HETATM   12  C10 UNK     1       9.607  11.961  10.001  1.00  0.00     0.055 C 
HETATM   13  C11 UNK     1      10.167   7.685   8.230  1.00  0.00     0.103 A 
HETATM   14  C14 UNK     1       8.929   7.117   7.914  1.00  0.00    -0.001 A 
HETATM   15  C15 UNK     1       7.938   8.347   9.737  1.00  0.00     0.039 A 
HETATM   16  C16 UNK     1       7.813   7.443   8.685  1.00  0.00     0.017 A 
HETATM   17  C17 UNK     1       8.828   6.203   6.788  1.00  0.00     0.020 A 
HETATM   18  C18 UNK     1       9.898   5.919   6.044  1.00  0.00     0.083 A 
HETATM   19  C19 UNK     1      11.214   6.515   6.324  1.00  0.00     0.288 A 
ENDROOT
BRANCH  10  20
HETATM   20  N1  UNK     1      14.015   9.112  10.010  1.00  0.00    -0.385 N 
HETATM   21  C6  UNK     1      14.767  10.056   9.184  1.00  0.00     0.148 C 
HETATM   22  C12 UNK     1      16.239   9.659   9.177  1.00  0.00     0.187 C 
HETATM   23  O2  UNK     1      16.737   9.568  10.514  1.00  0.00    -0.388 OA
HETATM   24  C13 UNK     1      16.038   8.561  11.251  1.00  0.00     0.187 C 
HETATM   25  C7  UNK     1      14.558   8.910  11.354  1.00  0.00     0.148 C 
ENDBRANCH  10  20
TORSDOF 1
ENDMDL
MODEL 5
REMARK VINA RESULT:      -7.8     16.433     19.190
REMARK  1 active torsions:
REMARK  status: ('A' for Active; 'I' for Inactive)
REMARK    1  A    between atoms: C8_14  and  N1_6 
ROOT
HETATM    1  O1  UNK     1      17.722  -4.100  15.282  1.00  0.00    -0.332 OA
HETATM    2  O3  UNK     1      21.277  -6.997  13.653  1.00  0.00    -0.274 OA
HETATM    3  O4  UNK     1      20.836  -2.445  16.055  1.00  0.00    -0.289 OA
HETATM    4  O5  UNK     1      22.909  -8.358  12.797  1.00  0.00    -0.260 OA
HETATM    5  C1  UNK     1      18.593  -2.967  15.308  1.00  0.00     0.125 C 
HETATM    6  C2  UNK     1      20.483  -4.693  15.334  1.00  0.00     0.044 C 
HETATM    7  C3  UNK     1      19.553  -5.549  14.581  1.00  0.00     0.048 A 
HETATM    8  C4  UNK     1      20.056  -3.291  15.623  1.00  0.00     0.196 C 
HETATM    9  C5  UNK     1      18.196  -5.204  14.620  1.00  0.00     0.084 A 
HETATM   10  C8  UNK     1      21.635  -5.100  15.889  1.00  0.00     0.102 C 
HETATM   11  C9  UNK     1      18.045  -2.060  16.418  1.00  0.00     0.055 C 
HETATM   12  C10 UNK     1      18.515  -2.226  13.968  1.00  0.00     0.055 C 
HETATM   13  C11 UNK     1      19.908  -6.672  13.812  1.00  0.00     0.103 A 
HETATM   14  C14 UNK     1      18.952  -7.464  13.167  1.00  0.00    -0.001 A 
HETATM   15  C15 UNK     1      17.225  -6.001  14.001  1.00  0.00     0.039 A 
HETATM   16  C16 UNK     1      17.603  -7.130  13.278  1.00  0.00     0.017 A 
HETATM   17  C17 UNK     1      19.384  -8.617  12.393  1.00  0.00     0.020 A 
HETATM   18  C18 UNK     1      20.679  -8.911  12.275  1.00  0.00     0.083 A 
HETATM   19  C19 UNK     1      21.720  -8.088  12.914  1.00  0.00     0.288 A 
ENDROOT
BRANCH  10  20
HETATM   20  N1  UNK     1      22.531  -4.351  16.595  1.00  0.00    -0.385 N 
HETATM   21  C6  UNK     1      23.623  -3.622  15.951  1.00  0.00     0.148 C 
HETATM   22  C12 UNK     1      24.903  -3.818  16.754  1.00  0.00     0.187 C 
HETATM   23  O2  UNK     1      24.701  -3.431  18.115  1.00  0.00    -0.388 OA
HETATM   24  C13 UNK     1      23.696  -4.241  18.732  1.00  0.00     0.187 C 
HETATM   25  C7  UNK     1      22.361  -4.062  18.019  1.00  0.00     0.148 C 
ENDBRANCH  10  20
TORSDOF 1
ENDMDL
MODEL 6
REMARK VINA RESULT:      -7.7     13.732     15.582
REMARK  1 active torsions:
REMARK  status: ('A' for Active; 'I' for Inactive)
REMARK    1  A    between atoms: C8_14  and  N1_6 
ROOT
HETATM    1  O1  UNK     1      27.538  -7.592  37.698  1.00  0.00    -0.332 OA
HETATM    2  O3  UNK     1      31.304  -5.420  35.510  1.00  0.00    -0.274 OA
HETATM    3  O4  UNK     1      28.770  -9.913  35.222  1.00  0.00    -0.289 OA
HETATM    4  O5  UNK     1      33.118  -4.387  34.569  1.00  0.00    -0.260 OA
HETATM    5  C1  UNK     1      27.968  -8.884  37.262  1.00  0.00     0.125 C 
HETATM    6  C2  UNK     1      29.302  -7.602  35.492  1.00  0.00     0.044 C 
HETATM    7  C3  UNK     1      29.368  -6.524  36.492  1.00  0.00     0.048 A 
HETATM    8  C4  UNK     1      28.683  -8.897  35.908  1.00  0.00     0.196 C 
HETATM    9  C5  UNK     1      28.445  -6.576  37.545  1.00  0.00     0.084 A 
HETATM   10  C8  UNK     1      29.643  -7.483  34.200  1.00  0.00     0.102 C 
HETATM   11  C9  UNK     1      26.686  -9.719  37.144  1.00  0.00     0.055 C 
HETATM   12  C10 UNK     1      28.881  -9.508  38.324  1.00  0.00     0.055 C 
HETATM   13  C11 UNK     1      30.284  -5.457  36.493  1.00  0.00     0.103 A 
HETATM   14  C14 UNK     1      30.244  -4.443  37.455  1.00  0.00    -0.001 A 
HETATM   15  C15 UNK     1      28.377  -5.555  38.501  1.00  0.00     0.039 A 
HETATM   16  C16 UNK     1      29.272  -4.490  38.455  1.00  0.00     0.017 A 
HETATM   17  C17 UNK     1      31.216  -3.363  37.396  1.00  0.00     0.020 A 
HETATM   18  C18 UNK     1      32.154  -3.343  36.448  1.00  0.00     0.083 A 
HETATM   19  C19 UNK     1      32.250  -4.405  35.433  1.00  0.00     0.288 A 
ENDROOT
BRANCH  10  20
HETATM   20  N1  UNK     1      29.602  -8.445  33.234  1.00  0.00    -0.385 N 
HETATM   21  C6  UNK     1      30.678  -9.419  33.052  1.00  0.00     0.148 C 
HETATM   22  C12 UNK     1      30.977  -9.569  31.565  1.00  0.00     0.187 C 
HETATM   23  O2  UNK     1      29.787  -9.911  30.850  1.00  0.00    -0.388 OA
HETATM   24  C13 UNK     1      28.802  -8.882  30.974  1.00  0.00     0.187 C 
HETATM   25  C7  UNK     1      28.404  -8.703  32.434  1.00  0.00     0.148 C 
ENDBRANCH  10  20
TORSDOF 1
ENDMDL
MODEL 7
REMARK VINA RESULT:      -7.5     13.770     17.199
REMARK  1 active torsions:
REMARK  status: ('A' for Active; 'I' for Inactive)
REMARK    1  A    between atoms: C8_14  and  N1_6 
ROOT
HETATM    1  O1  UNK     1      33.090  -6.170  35.992  1.00  0.00    -0.332 OA
HETATM    2  O3  UNK     1      30.364  -6.694  31.995  1.00  0.00    -0.274 OA
HETATM    3  O4  UNK     1      35.358  -6.118  33.183  1.00  0.00    -0.289 OA
HETATM    4  O5  UNK     1      29.028  -6.862  30.142  1.00  0.00    -0.260 OA
HETATM    5  C1  UNK     1      34.176  -5.625  35.238  1.00  0.00     0.125 C 
HETATM    6  C2  UNK     1      33.056  -6.745  33.227  1.00  0.00     0.044 C 
HETATM    7  C3  UNK     1      31.796  -6.530  33.957  1.00  0.00     0.048 A 
HETATM    8  C4  UNK     1      34.305  -6.173  33.814  1.00  0.00     0.196 C 
HETATM    9  C5  UNK     1      31.894  -6.271  35.331  1.00  0.00     0.084 A 
HETATM   10  C8  UNK     1      33.198  -7.515  32.138  1.00  0.00     0.102 C 
HETATM   11  C9  UNK     1      35.441  -5.999  36.021  1.00  0.00     0.055 C 
HETATM   12  C10 UNK     1      34.050  -4.097  35.184  1.00  0.00     0.055 C 
HETATM   13  C11 UNK     1      30.507  -6.544  33.396  1.00  0.00     0.103 A 
HETATM   14  C14 UNK     1      29.355  -6.381  34.173  1.00  0.00    -0.001 A 
HETATM   15  C15 UNK     1      30.749  -6.131  36.126  1.00  0.00     0.039 A 
HETATM   16  C16 UNK     1      29.483  -6.188  35.549  1.00  0.00     0.017 A 
HETATM   17  C17 UNK     1      28.050  -6.413  33.533  1.00  0.00     0.020 A 
HETATM   18  C18 UNK     1      27.944  -6.574  32.213  1.00  0.00     0.083 A 
HETATM   19  C19 UNK     1      29.130  -6.721  31.354  1.00  0.00     0.288 A 
ENDROOT
BRANCH  10  20
HETATM   20  N1  UNK     1      34.337  -7.749  31.425  1.00  0.00    -0.385 N 
HETATM   21  C6  UNK     1      34.754  -6.897  30.311  1.00  0.00     0.148 C 
HETATM   22  C12 UNK     1      35.227  -7.771  29.156  1.00  0.00     0.187 C 
HETATM   23  O2  UNK     1      36.258  -8.660  29.595  1.00  0.00    -0.388 OA
HETATM   24  C13 UNK     1      35.774  -9.541  30.611  1.00  0.00     0.187 C 
HETATM   25  C7  UNK     1      35.327  -8.747  31.832  1.00  0.00     0.148 C 
ENDBRANCH  10  20
TORSDOF 1
ENDMDL
MODEL 8
REMARK VINA RESULT:      -7.5     12.500     15.998
REMARK  1 active torsions:
REMARK  status: ('A' for Active; 'I' for Inactive)
REMARK    1  A    between atoms: C8_14  and  N1_6 
ROOT
HETATM    1  O1  UNK     1      32.060  -9.189  36.124  1.00  0.00    -0.332 OA
HETATM    2  O3  UNK     1      27.410  -8.258  37.217  1.00  0.00    -0.274 OA
HETATM    3  O4  UNK     1      30.838  -6.927  33.589  1.00  0.00    -0.289 OA
HETATM    4  O5  UNK     1      25.251  -7.790  37.821  1.00  0.00    -0.260 OA
HETATM    5  C1  UNK     1      32.151  -8.021  35.304  1.00  0.00     0.125 C 
HETATM    6  C2  UNK     1      29.595  -8.145  35.222  1.00  0.00     0.044 C 
HETATM    7  C3  UNK     1      29.699  -8.759  36.556  1.00  0.00     0.048 A 
HETATM    8  C4  UNK     1      30.851  -7.636  34.593  1.00  0.00     0.196 C 
HETATM    9  C5  UNK     1      30.950  -9.274  36.924  1.00  0.00     0.084 A 
HETATM   10  C8  UNK     1      28.485  -8.112  34.469  1.00  0.00     0.102 C 
HETATM   11  C9  UNK     1      33.208  -8.353  34.242  1.00  0.00     0.055 C 
HETATM   12  C10 UNK     1      32.638  -6.836  36.147  1.00  0.00     0.055 C 
HETATM   13  C11 UNK     1      28.661  -8.859  37.499  1.00  0.00     0.103 A 
HETATM   14  C14 UNK     1      28.832  -9.506  38.727  1.00  0.00    -0.001 A 
HETATM   15  C15 UNK     1      31.129  -9.946  38.139  1.00  0.00     0.039 A 
HETATM   16  C16 UNK     1      30.072 -10.064  39.037  1.00  0.00     0.017 A 
HETATM   17  C17 UNK     1      27.715  -9.581  39.656  1.00  0.00     0.020 A 
HETATM   18  C18 UNK     1      26.542  -9.022  39.357  1.00  0.00     0.083 A 
HETATM   19  C19 UNK     1      26.328  -8.308  38.088  1.00  0.00     0.288 A 
ENDROOT
BRANCH  10  20
HETATM   20  N1  UNK     1      28.334  -7.559  33.231  1.00  0.00    -0.385 N 
HETATM   21  C6  UNK     1      28.432  -8.347  32.003  1.00  0.00     0.148 C 
HETATM   22  C12 UNK     1      29.259  -7.582  30.977  1.00  0.00     0.187 C 
HETATM   23  O2  UNK     1      28.707  -6.281  30.762  1.00  0.00    -0.388 OA
HETATM   24  C13 UNK     1      28.727  -5.512  31.968  1.00  0.00     0.187 C 
HETATM   25  C7  UNK     1      27.874  -6.183  33.038  1.00  0.00     0.148 C 
ENDBRANCH  10  20
TORSDOF 1
ENDMDL
MODEL 9
REMARK VINA RESULT:      -7.4     13.106     16.561
REMARK  1 active torsions:
REMARK  status: ('A' for Active; 'I' for Inactive)
REMARK    1  A    between atoms: C8_14  and  N1_6 
ROOT
HETATM    1  O1  UNK     1      30.458  -5.339  32.946  1.00  0.00    -0.332 OA
HETATM    2  O3  UNK     1      31.256  -9.921  34.381  1.00  0.00    -0.274 OA
HETATM    3  O4  UNK     1      29.813  -7.442  30.084  1.00  0.00    -0.289 OA
HETATM    4  O5  UNK     1      31.565 -12.064  35.128  1.00  0.00    -0.260 OA
HETATM    5  C1  UNK     1      29.674  -5.774  31.833  1.00  0.00     0.125 C 
HETATM    6  C2  UNK     1      30.867  -8.017  32.147  1.00  0.00     0.044 C 
HETATM    7  C3  UNK     1      30.938  -7.647  33.570  1.00  0.00     0.048 A 
HETATM    8  C4  UNK     1      30.104  -7.115  31.232  1.00  0.00     0.196 C 
HETATM    9  C5  UNK     1      30.746  -6.295  33.886  1.00  0.00     0.084 A 
HETATM   10  C8  UNK     1      31.531  -9.033  31.576  1.00  0.00     0.102 C 
HETATM   11  C9  UNK     1      29.847  -4.684  30.766  1.00  0.00     0.055 C 
HETATM   12  C10 UNK     1      28.198  -5.850  32.241  1.00  0.00     0.055 C 
HETATM   13  C11 UNK     1      31.163  -8.531  34.640  1.00  0.00     0.103 A 
HETATM   14  C14 UNK     1      31.267  -8.088  35.962  1.00  0.00    -0.001 A 
HETATM   15  C15 UNK     1      30.872  -5.833  35.201  1.00  0.00     0.039 A 
HETATM   16  C16 UNK     1      31.135  -6.727  36.236  1.00  0.00     0.017 A 
HETATM   17  C17 UNK     1      31.509  -9.053  37.022  1.00  0.00     0.020 A 
HETATM   18  C18 UNK     1      31.610 -10.354  36.748  1.00  0.00     0.083 A 
HETATM   19  C19 UNK     1      31.479 -10.867  35.375  1.00  0.00     0.288 A 
ENDROOT
BRANCH  10  20
HETATM   20  N1  UNK     1      31.503  -9.419  30.268  1.00  0.00    -0.385 N 
HETATM   21  C6  UNK     1      32.497  -8.966  29.295  1.00  0.00     0.148 C 
HETATM   22  C12 UNK     1      31.795  -8.580  27.999  1.00  0.00     0.187 C 
HETATM   23  O2  UNK     1      31.001  -9.668  27.520  1.00  0.00    -0.388 OA
HETATM   24  C13 UNK     1      29.979 -10.007  28.460  1.00  0.00     0.187 C 
HETATM   25  C7  UNK     1      30.599 -10.459  29.777  1.00  0.00     0.148 C 
ENDBRANCH  10  20
TORSDOF 1
ENDMDL
MODEL 10
REMARK VINA RESULT:      -7.4     13.307     17.093
REMARK  1 active torsions:
REMARK  status: ('A' for Active; 'I' for Inactive)
REMARK    1  A    between atoms: C8_14  and  N1_6 
ROOT
HETATM    1  O1  UNK     1      31.026 -11.349  29.421  1.00  0.00    -0.332 OA
HETATM    2  O3  UNK     1      29.030  -7.688  31.932  1.00  0.00    -0.274 OA
HETATM    3  O4  UNK     1      32.972 -10.988  32.441  1.00  0.00    -0.289 OA
HETATM    4  O5  UNK     1      28.004  -6.014  33.111  1.00  0.00    -0.260 OA
HETATM    5  C1  UNK     1      31.678 -11.856  30.588  1.00  0.00     0.125 C 
HETATM    6  C2  UNK     1      31.335  -9.504  31.538  1.00  0.00     0.044 C 
HETATM    7  C3  UNK     1      30.139  -9.460  30.682  1.00  0.00     0.048 A 
HETATM    8  C4  UNK     1      32.094 -10.789  31.604  1.00  0.00     0.196 C 
HETATM    9  C5  UNK     1      30.068 -10.393  29.639  1.00  0.00     0.084 A 
HETATM   10  C8  UNK     1      31.874  -8.451  32.172  1.00  0.00     0.102 C 
HETATM   11  C9  UNK     1      32.942 -12.558  30.073  1.00  0.00     0.055 C 
HETATM   12  C10 UNK     1      30.775 -12.887  31.276  1.00  0.00     0.055 C 
HETATM   13  C11 UNK     1      29.054  -8.577  30.829  1.00  0.00     0.103 A 
HETATM   14  C14 UNK     1      27.976  -8.568  29.938  1.00  0.00    -0.001 A 
HETATM   15  C15 UNK     1      29.008 -10.380  28.725  1.00  0.00     0.039 A 
HETATM   16  C16 UNK     1      27.966  -9.468  28.872  1.00  0.00     0.017 A 
HETATM   17  C17 UNK     1      26.888  -7.625  30.141  1.00  0.00     0.020 A 
HETATM   18  C18 UNK     1      26.900  -6.786  31.178  1.00  0.00     0.083 A 
HETATM   19  C19 UNK     1      28.001  -6.781  32.156  1.00  0.00     0.288 A 
ENDROOT
BRANCH  10  20
HETATM   20  N1  UNK     1      32.977  -8.436  32.974  1.00  0.00    -0.385 N 
HETATM   21  C6  UNK     1      32.922  -8.796  34.390  1.00  0.00     0.148 C 
HETATM   22  C12 UNK     1      33.742  -7.796  35.198  1.00  0.00     0.187 C 
HETATM   23  O2  UNK     1      35.077  -7.724  34.692  1.00  0.00    -0.388 OA
HETATM   24  C13 UNK     1      35.086  -7.270  33.336  1.00  0.00     0.187 C 
HETATM   25  C7  UNK     1      34.328  -8.246  32.445  1.00  0.00     0.148 C 
ENDBRANCH  10  20
TORSDOF 1
ENDMDL
