MODEL 1
REMARK VINA RESULT:      -9.6      0.000      0.000
REMARK  9 active torsions:
REMARK  status: ('A' for Active; 'I' for Inactive)
REMARK    1  A    between atoms: C18_26  and  O2_3 
REMARK    2  A    between atoms: C9_17  and  O2_3 
REMARK    3  A    between atoms: C21_29  and  O4_5 
REMARK    4  A    between atoms: C22_30  and  O4_5 
REMARK    5  A    between atoms: C15_23  and  N1_8 
REMARK       I    between atoms: C22_30  and  N1_8 
REMARK    6  A    between atoms: C1_9  and  C6_14 
REMARK    7  A    between atoms: C14_22  and  C15_23 
REMARK    8  A    between atoms: C14_22  and  C18_26 
REMARK    9  A    between atoms: C20_28  and  C21_29 
ROOT
HETATM    1  O1  UNK     1      18.743   4.042  30.618  1.00  0.00    -0.313 OA
HETATM    2  O3  UNK     1      17.848   4.612  34.545  1.00  0.00    -0.286 OA
HETATM    3  C1  UNK     1      18.224   5.585  32.407  1.00  0.00     0.054 A 
HETATM    4  C2  UNK     1      18.348   3.101  32.816  1.00  0.00     0.049 A 
HETATM    5  C3  UNK     1      18.651   2.971  31.464  1.00  0.00     0.092 A 
HETATM    6  C4  UNK     1      18.117   4.444  33.362  1.00  0.00     0.198 A 
HETATM    7  C5  UNK     1      18.525   5.318  31.118  1.00  0.00     0.065 A 
HETATM    8  C7  UNK     1      18.267   1.970  33.633  1.00  0.00     0.021 A 
HETATM    9  C8  UNK     1      18.874   1.706  30.919  1.00  0.00     0.075 A 
HETATM   10  C9  UNK     1      18.794   0.574  31.730  1.00  0.00     0.082 A 
HETATM   11  C10 UNK     1      18.491   0.707  33.086  1.00  0.00     0.038 A 
HETATM   12  C11 UNK     1      18.668   6.359  30.041  1.00  0.00     0.077 C 
ENDROOT
BRANCH  10  13
HETATM   13  O2  UNK     1      19.012  -0.661  31.200  1.00  0.00    -0.279 OA
BRANCH  13  14
HETATM   14  C18 UNK     1      20.373  -0.989  31.043  1.00  0.00     0.265 C 
HETATM   15  O5  UNK     1      21.282  -0.182  30.909  1.00  0.00    -0.265 OA
BRANCH  14  16
HETATM   16  C14 UNK     1      20.528  -2.496  31.051  1.00  0.00     0.131 C 
BRANCH  16  17
HETATM   17  C15 UNK     1      20.899  -3.047  32.422  1.00  0.00     0.134 C 
BRANCH  17  18
HETATM   18  N1  UNK     1      20.520  -2.158  33.487  1.00  0.00    -0.336 N 
HETATM   19  C22 UNK     1      20.287  -2.567  34.787  1.00  0.00     0.360 C 
HETATM   20  O6  UNK     1      20.372  -3.719  35.198  1.00  0.00    -0.239 OA
HETATM   21  H15 UNK     1      20.423  -1.170  33.275  1.00  0.00     0.164 HD
BRANCH  19  22
HETATM   22  O4  UNK     1      19.945  -1.491  35.558  1.00  0.00    -0.299 OA
BRANCH  22  23
HETATM   23  C21 UNK     1      19.037  -1.756  36.632  1.00  0.00     0.219 C 
BRANCH  23  24
HETATM   24  C20 UNK     1      17.863  -0.827  36.522  1.00  0.00    -0.034 A 
HETATM   25  C23 UNK     1      16.851  -1.088  35.598  1.00  0.00     0.009 A 
HETATM   26  C25 UNK     1      15.761  -0.223  35.496  1.00  0.00     0.001 A 
HETATM   27  C27 UNK     1      15.684   0.902  36.317  1.00  0.00     0.000 A 
HETATM   28  C26 UNK     1      16.696   1.162  37.241  1.00  0.00     0.001 A 
HETATM   29  C24 UNK     1      17.786   0.298  37.343  1.00  0.00     0.009 A 
ENDBRANCH  23  24
ENDBRANCH  22  23
ENDBRANCH  19  22
ENDBRANCH  17  18
ENDBRANCH  16  17
ENDBRANCH  14  16
ENDBRANCH  13  14
ENDBRANCH  10  13
BRANCH   3  30
HETATM   30  C6  UNK     1      18.003   6.942  32.889  1.00  0.00    -0.019 A 
HETATM   31  C12 UNK     1      19.050   7.651  33.479  1.00  0.00     0.015 A 
HETATM   32  C16 UNK     1      18.839   8.950  33.941  1.00  0.00     0.043 A 
HETATM   33  C19 UNK     1      17.581   9.539  33.813  1.00  0.00     0.116 A 
HETATM   34  C17 UNK     1      16.534   8.830  33.223  1.00  0.00     0.043 A 
HETATM   35  F1  UNK     1      17.378  10.787  34.257  1.00  0.00    -0.206 F 
HETATM   36  C13 UNK     1      16.746   7.531  32.761  1.00  0.00     0.015 A 
ENDBRANCH   3  30
TORSDOF 9
ENDMDL
MODEL 2
REMARK VINA RESULT:      -9.1      1.612      2.492
REMARK  9 active torsions:
REMARK  status: ('A' for Active; 'I' for Inactive)
REMARK    1  A    between atoms: C18_26  and  O2_3 
REMARK    2  A    between atoms: C9_17  and  O2_3 
REMARK    3  A    between atoms: C21_29  and  O4_5 
REMARK    4  A    between atoms: C22_30  and  O4_5 
REMARK    5  A    between atoms: C15_23  and  N1_8 
REMARK       I    between atoms: C22_30  and  N1_8 
REMARK    6  A    between atoms: C1_9  and  C6_14 
REMARK    7  A    between atoms: C14_22  and  C15_23 
REMARK    8  A    between atoms: C14_22  and  C18_26 
REMARK    9  A    between atoms: C20_28  and  C21_29 
ROOT
HETATM    1  O1  UNK     1      18.164   3.611  32.951  1.00  0.00    -0.313 OA
HETATM    2  O3  UNK     1      19.131   6.609  30.377  1.00  0.00    -0.286 OA
HETATM    3  C1  UNK     1      18.628   5.960  32.610  1.00  0.00     0.054 A 
HETATM    4  C2  UNK     1      18.685   4.323  30.694  1.00  0.00     0.049 A 
HETATM    5  C3  UNK     1      18.354   3.342  31.623  1.00  0.00     0.092 A 
HETATM    6  C4  UNK     1      18.840   5.709  31.155  1.00  0.00     0.198 A 
HETATM    7  C5  UNK     1      18.308   4.915  33.404  1.00  0.00     0.065 A 
HETATM    8  C7  UNK     1      18.867   3.989  29.350  1.00  0.00     0.021 A 
HETATM    9  C8  UNK     1      18.202   2.017  31.213  1.00  0.00     0.075 A 
HETATM   10  C9  UNK     1      18.383   1.679  29.871  1.00  0.00     0.082 A 
HETATM   11  C10 UNK     1      18.715   2.665  28.941  1.00  0.00     0.038 A 
HETATM   12  C11 UNK     1      18.064   5.010  34.885  1.00  0.00     0.077 C 
ENDROOT
BRANCH  10  13
HETATM   13  O2  UNK     1      18.234   0.387  29.468  1.00  0.00    -0.279 OA
BRANCH  13  14
HETATM   14  C18 UNK     1      19.340  -0.130  28.766  1.00  0.00     0.265 C 
HETATM   15  O5  UNK     1      19.356  -0.395  27.573  1.00  0.00    -0.265 OA
BRANCH  14  16
HETATM   16  C14 UNK     1      20.498  -0.318  29.726  1.00  0.00     0.131 C 
BRANCH  16  17
HETATM   17  C15 UNK     1      20.352  -1.558  30.596  1.00  0.00     0.134 C 
BRANCH  17  18
HETATM   18  N1  UNK     1      19.760  -1.261  31.873  1.00  0.00    -0.336 N 
HETATM   19  C22 UNK     1      20.086  -1.917  33.045  1.00  0.00     0.360 C 
HETATM   20  O6  UNK     1      20.908  -2.821  33.153  1.00  0.00    -0.239 OA
HETATM   21  H15 UNK     1      19.065  -0.523  31.919  1.00  0.00     0.164 HD
BRANCH  19  22
HETATM   22  O4  UNK     1      19.354  -1.409  34.081  1.00  0.00    -0.299 OA
BRANCH  22  23
HETATM   23  C21 UNK     1      18.282  -0.532  33.717  1.00  0.00     0.219 C 
BRANCH  23  24
HETATM   24  C20 UNK     1      17.798   0.186  34.943  1.00  0.00    -0.034 A 
HETATM   25  C23 UNK     1      16.500  -0.027  35.408  1.00  0.00     0.009 A 
HETATM   26  C25 UNK     1      16.051   0.641  36.548  1.00  0.00     0.001 A 
HETATM   27  C27 UNK     1      16.898   1.520  37.221  1.00  0.00     0.000 A 
HETATM   28  C26 UNK     1      18.196   1.732  36.756  1.00  0.00     0.001 A 
HETATM   29  C24 UNK     1      18.645   1.065  35.617  1.00  0.00     0.009 A 
ENDBRANCH  23  24
ENDBRANCH  22  23
ENDBRANCH  19  22
ENDBRANCH  17  18
ENDBRANCH  16  17
ENDBRANCH  14  16
ENDBRANCH  13  14
ENDBRANCH  10  13
BRANCH   3  30
HETATM   30  C6  UNK     1      18.769   7.315  33.128  1.00  0.00    -0.019 A 
HETATM   31  C12 UNK     1      19.964   7.708  33.732  1.00  0.00     0.015 A 
HETATM   32  C16 UNK     1      20.099   9.004  34.229  1.00  0.00     0.043 A 
HETATM   33  C19 UNK     1      19.040   9.906  34.122  1.00  0.00     0.116 A 
HETATM   34  C17 UNK     1      17.846   9.512  33.518  1.00  0.00     0.043 A 
HETATM   35  F1  UNK     1      19.170  11.152  34.600  1.00  0.00    -0.206 F 
HETATM   36  C13 UNK     1      17.711   8.216  33.021  1.00  0.00     0.015 A 
ENDBRANCH   3  30
TORSDOF 9
ENDMDL
MODEL 3
REMARK VINA RESULT:      -9.0      2.029      3.545
REMARK  9 active torsions:
REMARK  status: ('A' for Active; 'I' for Inactive)
REMARK    1  A    between atoms: C18_26  and  O2_3 
REMARK    2  A    between atoms: C9_17  and  O2_3 
REMARK    3  A    between atoms: C21_29  and  O4_5 
REMARK    4  A    between atoms: C22_30  and  O4_5 
REMARK    5  A    between atoms: C15_23  and  N1_8 
REMARK       I    between atoms: C22_30  and  N1_8 
REMARK    6  A    between atoms: C1_9  and  C6_14 
REMARK    7  A    between atoms: C14_22  and  C15_23 
REMARK    8  A    between atoms: C14_22  and  C18_26 
REMARK    9  A    between atoms: C20_28  and  C21_29 
ROOT
HETATM    1  O1  UNK     1      17.384   5.666  33.569  1.00  0.00    -0.313 OA
HETATM    2  O3  UNK     1      16.697   8.436  30.670  1.00  0.00    -0.286 OA
HETATM    3  C1  UNK     1      16.499   7.833  32.963  1.00  0.00     0.054 A 
HETATM    4  C2  UNK     1      17.565   6.328  31.245  1.00  0.00     0.049 A 
HETATM    5  C3  UNK     1      17.772   5.422  32.280  1.00  0.00     0.092 A 
HETATM    6  C4  UNK     1      16.903   7.604  31.545  1.00  0.00     0.198 A 
HETATM    7  C5  UNK     1      16.759   6.868  33.871  1.00  0.00     0.065 A 
HETATM    8  C7  UNK     1      17.983   6.025  29.947  1.00  0.00     0.021 A 
HETATM    9  C8  UNK     1      18.400   4.203  32.023  1.00  0.00     0.075 A 
HETATM   10  C9  UNK     1      18.819   3.895  30.728  1.00  0.00     0.082 A 
HETATM   11  C10 UNK     1      18.610   4.806  29.692  1.00  0.00     0.038 A 
HETATM   12  C11 UNK     1      16.412   6.952  35.332  1.00  0.00     0.077 C 
ENDROOT
BRANCH  10  13
HETATM   13  O2  UNK     1      19.431   2.706  30.474  1.00  0.00    -0.279 OA
BRANCH  13  14
HETATM   14  C18 UNK     1      18.649   1.801  29.732  1.00  0.00     0.265 C 
HETATM   15  O5  UNK     1      17.428   1.818  29.659  1.00  0.00    -0.265 OA
BRANCH  14  16
HETATM   16  C14 UNK     1      19.556   0.795  29.053  1.00  0.00     0.131 C 
BRANCH  16  17
HETATM   17  C15 UNK     1      20.045  -0.295  29.997  1.00  0.00     0.134 C 
BRANCH  17  18
HETATM   18  N1  UNK     1      19.375  -0.255  31.269  1.00  0.00    -0.336 N 
HETATM   19  C22 UNK     1      19.690  -1.079  32.334  1.00  0.00     0.360 C 
HETATM   20  O6  UNK     1      20.568  -1.936  32.337  1.00  0.00    -0.239 OA
HETATM   21  H15 UNK     1      18.629   0.422  31.397  1.00  0.00     0.164 HD
BRANCH  19  22
HETATM   22  O4  UNK     1      18.877  -0.798  33.396  1.00  0.00    -0.299 OA
BRANCH  22  23
HETATM   23  C21 UNK     1      18.317   0.519  33.422  1.00  0.00     0.219 C 
BRANCH  23  24
HETATM   24  C20 UNK     1      17.752   0.784  34.787  1.00  0.00    -0.034 A 
HETATM   25  C23 UNK     1      16.469   0.344  35.108  1.00  0.00     0.009 A 
HETATM   26  C25 UNK     1      15.944   0.591  36.377  1.00  0.00     0.001 A 
HETATM   27  C27 UNK     1      16.703   1.279  37.323  1.00  0.00     0.000 A 
HETATM   28  C26 UNK     1      17.987   1.719  37.002  1.00  0.00     0.001 A 
HETATM   29  C24 UNK     1      18.511   1.472  35.733  1.00  0.00     0.009 A 
ENDBRANCH  23  24
ENDBRANCH  22  23
ENDBRANCH  19  22
ENDBRANCH  17  18
ENDBRANCH  16  17
ENDBRANCH  14  16
ENDBRANCH  13  14
ENDBRANCH  10  13
BRANCH   3  30
HETATM   30  C6  UNK     1      15.839   9.081  33.324  1.00  0.00    -0.019 A 
HETATM   31  C12 UNK     1      16.589  10.148  33.819  1.00  0.00     0.015 A 
HETATM   32  C16 UNK     1      15.958  11.343  34.166  1.00  0.00     0.043 A 
HETATM   33  C19 UNK     1      14.577  11.470  34.017  1.00  0.00     0.116 A 
HETATM   34  C17 UNK     1      13.827  10.403  33.522  1.00  0.00     0.043 A 
HETATM   35  F1  UNK     1      13.970  12.617  34.350  1.00  0.00    -0.206 F 
HETATM   36  C13 UNK     1      14.459   9.208  33.176  1.00  0.00     0.015 A 
ENDBRANCH   3  30
TORSDOF 9
ENDMDL
MODEL 4
REMARK VINA RESULT:      -9.0     14.210     16.762
REMARK  9 active torsions:
REMARK  status: ('A' for Active; 'I' for Inactive)
REMARK    1  A    between atoms: C18_26  and  O2_3 
REMARK    2  A    between atoms: C9_17  and  O2_3 
REMARK    3  A    between atoms: C21_29  and  O4_5 
REMARK    4  A    between atoms: C22_30  and  O4_5 
REMARK    5  A    between atoms: C15_23  and  N1_8 
REMARK       I    between atoms: C22_30  and  N1_8 
REMARK    6  A    between atoms: C1_9  and  C6_14 
REMARK    7  A    between atoms: C14_22  and  C15_23 
REMARK    8  A    between atoms: C14_22  and  C18_26 
REMARK    9  A    between atoms: C20_28  and  C21_29 
ROOT
HETATM    1  O1  UNK     1      28.708  -6.414  33.528  1.00  0.00    -0.313 OA
HETATM    2  O3  UNK     1      28.991 -10.431  32.948  1.00  0.00    -0.286 OA
HETATM    3  C1  UNK     1      28.892  -8.261  31.978  1.00  0.00     0.054 A 
HETATM    4  C2  UNK     1      28.817  -8.645  34.467  1.00  0.00     0.049 A 
HETATM    5  C3  UNK     1      28.722  -7.264  34.600  1.00  0.00     0.092 A 
HETATM    6  C4  UNK     1      28.906  -9.221  33.119  1.00  0.00     0.198 A 
HETATM    7  C5  UNK     1      28.795  -6.941  32.247  1.00  0.00     0.065 A 
HETATM    8  C7  UNK     1      28.826  -9.464  35.599  1.00  0.00     0.021 A 
HETATM    9  C8  UNK     1      28.637  -6.690  35.870  1.00  0.00     0.075 A 
HETATM   10  C9  UNK     1      28.646  -7.504  37.003  1.00  0.00     0.082 A 
HETATM   11  C10 UNK     1      28.740  -8.889  36.867  1.00  0.00     0.038 A 
HETATM   12  C11 UNK     1      28.767  -5.856  31.206  1.00  0.00     0.077 C 
ENDROOT
BRANCH  10  13
HETATM   13  O2  UNK     1      28.562  -6.946  38.242  1.00  0.00    -0.279 OA
BRANCH  13  14
HETATM   14  C18 UNK     1      29.737  -6.294  38.663  1.00  0.00     0.265 C 
HETATM   15  O5  UNK     1      30.848  -6.803  38.709  1.00  0.00    -0.265 OA
BRANCH  14  16
HETATM   16  C14 UNK     1      29.403  -4.871  39.062  1.00  0.00     0.131 C 
BRANCH  16  17
HETATM   17  C15 UNK     1      30.017  -3.834  38.131  1.00  0.00     0.134 C 
BRANCH  17  18
HETATM   18  N1  UNK     1      31.000  -4.407  37.251  1.00  0.00    -0.336 N 
HETATM   19  C22 UNK     1      31.880  -3.661  36.488  1.00  0.00     0.360 C 
HETATM   20  O6  UNK     1      31.940  -2.437  36.461  1.00  0.00    -0.239 OA
HETATM   21  H15 UNK     1      31.056  -5.418  37.189  1.00  0.00     0.164 HD
BRANCH  19  22
HETATM   22  O4  UNK     1      32.683  -4.493  35.760  1.00  0.00    -0.299 OA
BRANCH  22  23
HETATM   23  C21 UNK     1      32.165  -4.910  34.492  1.00  0.00     0.219 C 
BRANCH  23  24
HETATM   24  C20 UNK     1      32.290  -6.401  34.378  1.00  0.00    -0.034 A 
HETATM   25  C23 UNK     1      32.341  -7.002  33.120  1.00  0.00     0.009 A 
HETATM   26  C25 UNK     1      32.457  -8.388  33.015  1.00  0.00     0.001 A 
HETATM   27  C27 UNK     1      32.521  -9.173  34.166  1.00  0.00     0.000 A 
HETATM   28  C26 UNK     1      32.471  -8.571  35.424  1.00  0.00     0.001 A 
HETATM   29  C24 UNK     1      32.355  -7.185  35.529  1.00  0.00     0.009 A 
ENDBRANCH  23  24
ENDBRANCH  22  23
ENDBRANCH  19  22
ENDBRANCH  17  18
ENDBRANCH  16  17
ENDBRANCH  14  16
ENDBRANCH  13  14
ENDBRANCH  10  13
BRANCH   3  30
HETATM   30  C6  UNK     1      28.980  -8.772  30.615  1.00  0.00    -0.019 A 
HETATM   31  C12 UNK     1      27.819  -9.120  29.925  1.00  0.00     0.015 A 
HETATM   32  C16 UNK     1      27.903  -9.609  28.622  1.00  0.00     0.043 A 
HETATM   33  C19 UNK     1      29.148  -9.750  28.009  1.00  0.00     0.116 A 
HETATM   34  C17 UNK     1      30.310  -9.401  28.700  1.00  0.00     0.043 A 
HETATM   35  F1  UNK     1      29.229 -10.220  26.757  1.00  0.00    -0.206 F 
HETATM   36  C13 UNK     1      30.225  -8.913  30.003  1.00  0.00     0.015 A 
ENDBRANCH   3  30
TORSDOF 9
ENDMDL
MODEL 5
REMARK VINA RESULT:      -8.8      2.314      4.318
REMARK  9 active torsions:
REMARK  status: ('A' for Active; 'I' for Inactive)
REMARK    1  A    between atoms: C18_26  and  O2_3 
REMARK    2  A    between atoms: C9_17  and  O2_3 
REMARK    3  A    between atoms: C21_29  and  O4_5 
REMARK    4  A    between atoms: C22_30  and  O4_5 
REMARK    5  A    between atoms: C15_23  and  N1_8 
REMARK       I    between atoms: C22_30  and  N1_8 
REMARK    6  A    between atoms: C1_9  and  C6_14 
REMARK    7  A    between atoms: C14_22  and  C15_23 
REMARK    8  A    between atoms: C14_22  and  C18_26 
REMARK    9  A    between atoms: C20_28  and  C21_29 
ROOT
HETATM    1  O1  UNK     1      16.035   7.417  32.069  1.00  0.00    -0.313 OA
HETATM    2  O3  UNK     1      18.693   9.419  34.409  1.00  0.00    -0.286 OA
HETATM    3  C1  UNK     1      16.464   9.242  33.598  1.00  0.00     0.054 A 
HETATM    4  C2  UNK     1      18.290   7.639  32.928  1.00  0.00     0.049 A 
HETATM    5  C3  UNK     1      17.335   6.997  32.147  1.00  0.00     0.092 A 
HETATM    6  C4  UNK     1      17.891   8.819  33.706  1.00  0.00     0.198 A 
HETATM    7  C5  UNK     1      15.640   8.529  32.801  1.00  0.00     0.065 A 
HETATM    8  C7  UNK     1      19.604   7.165  32.967  1.00  0.00     0.021 A 
HETATM    9  C8  UNK     1      17.688   5.873  31.398  1.00  0.00     0.075 A 
HETATM   10  C9  UNK     1      18.998   5.396  31.434  1.00  0.00     0.082 A 
HETATM   11  C10 UNK     1      19.955   6.043  32.218  1.00  0.00     0.038 A 
HETATM   12  C11 UNK     1      14.182   8.832  32.589  1.00  0.00     0.077 C 
ENDROOT
BRANCH  10  13
HETATM   13  O2  UNK     1      19.345   4.301  30.704  1.00  0.00    -0.279 OA
BRANCH  13  14
HETATM   14  C18 UNK     1      18.460   3.214  30.838  1.00  0.00     0.265 C 
HETATM   15  O5  UNK     1      17.851   2.922  31.858  1.00  0.00    -0.265 OA
BRANCH  14  16
HETATM   16  C14 UNK     1      18.393   2.459  29.526  1.00  0.00     0.131 C 
BRANCH  16  17
HETATM   17  C15 UNK     1      19.043   1.084  29.600  1.00  0.00     0.134 C 
BRANCH  17  18
HETATM   18  N1  UNK     1      18.501   0.282  30.664  1.00  0.00    -0.336 N 
HETATM   19  C22 UNK     1      19.273  -0.392  31.592  1.00  0.00     0.360 C 
HETATM   20  O6  UNK     1      20.498  -0.394  31.634  1.00  0.00    -0.239 OA
HETATM   21  H15 UNK     1      17.491   0.209  30.742  1.00  0.00     0.164 HD
BRANCH  19  22
HETATM   22  O4  UNK     1      18.466  -1.062  32.469  1.00  0.00    -0.299 OA
BRANCH  22  23
HETATM   23  C21 UNK     1      18.990  -1.238  33.789  1.00  0.00     0.219 C 
BRANCH  23  24
HETATM   24  C20 UNK     1      18.063  -0.590  34.775  1.00  0.00    -0.034 A 
HETATM   25  C23 UNK     1      18.564  -0.076  35.971  1.00  0.00     0.009 A 
HETATM   26  C25 UNK     1      17.701   0.527  36.886  1.00  0.00     0.001 A 
HETATM   27  C27 UNK     1      16.338   0.615  36.607  1.00  0.00     0.000 A 
HETATM   28  C26 UNK     1      15.836   0.101  35.411  1.00  0.00     0.001 A 
HETATM   29  C24 UNK     1      16.699  -0.501  34.495  1.00  0.00     0.009 A 
ENDBRANCH  23  24
ENDBRANCH  22  23
ENDBRANCH  19  22
ENDBRANCH  17  18
ENDBRANCH  16  17
ENDBRANCH  14  16
ENDBRANCH  13  14
ENDBRANCH  10  13
BRANCH   3  30
HETATM   30  C6  UNK     1      16.006  10.404  34.348  1.00  0.00    -0.019 A 
HETATM   31  C12 UNK     1      16.554  11.661  34.090  1.00  0.00     0.015 A 
HETATM   32  C16 UNK     1      16.117  12.773  34.808  1.00  0.00     0.043 A 
HETATM   33  C19 UNK     1      15.131  12.628  35.784  1.00  0.00     0.116 A 
HETATM   34  C17 UNK     1      14.582  11.372  36.042  1.00  0.00     0.043 A 
HETATM   35  F1  UNK     1      14.710  13.697  36.475  1.00  0.00    -0.206 F 
HETATM   36  C13 UNK     1      15.021  10.260  35.324  1.00  0.00     0.015 A 
ENDBRANCH   3  30
TORSDOF 9
ENDMDL
MODEL 6
REMARK VINA RESULT:      -8.7     14.540     16.870
REMARK  9 active torsions:
REMARK  status: ('A' for Active; 'I' for Inactive)
REMARK    1  A    between atoms: C18_26  and  O2_3 
REMARK    2  A    between atoms: C9_17  and  O2_3 
REMARK    3  A    between atoms: C21_29  and  O4_5 
REMARK    4  A    between atoms: C22_30  and  O4_5 
REMARK    5  A    between atoms: C15_23  and  N1_8 
REMARK       I    between atoms: C22_30  and  N1_8 
REMARK    6  A    between atoms: C1_9  and  C6_14 
REMARK    7  A    between atoms: C14_22  and  C15_23 
REMARK    8  A    between atoms: C14_22  and  C18_26 
REMARK    9  A    between atoms: C20_28  and  C21_29 
ROOT
HETATM    1  O1  UNK     1      31.586  -9.350  35.926  1.00  0.00    -0.313 OA
HETATM    2  O3  UNK     1      28.360  -6.973  35.225  1.00  0.00    -0.286 OA
HETATM    3  C1  UNK     1      30.273  -7.421  36.565  1.00  0.00     0.054 A 
HETATM    4  C2  UNK     1      29.627  -8.848  34.591  1.00  0.00     0.049 A 
HETATM    5  C3  UNK     1      30.746  -9.623  34.881  1.00  0.00     0.092 A 
HETATM    6  C4  UNK     1      29.332  -7.687  35.439  1.00  0.00     0.198 A 
HETATM    7  C5  UNK     1      31.323  -8.255  36.737  1.00  0.00     0.065 A 
HETATM    8  C7  UNK     1      28.805  -9.175  33.510  1.00  0.00     0.021 A 
HETATM    9  C8  UNK     1      31.050 -10.731  34.091  1.00  0.00     0.075 A 
HETATM   10  C9  UNK     1      30.232 -11.061  33.010  1.00  0.00     0.082 A 
HETATM   11  C10 UNK     1      29.110 -10.283  32.721  1.00  0.00     0.038 A 
HETATM   12  C11 UNK     1      32.353  -8.118  37.824  1.00  0.00     0.077 C 
ENDROOT
BRANCH  10  13
HETATM   13  O2  UNK     1      30.526 -12.143  32.238  1.00  0.00    -0.279 OA
BRANCH  13  14
HETATM   14  C18 UNK     1      31.151 -11.827  31.016  1.00  0.00     0.265 C 
HETATM   15  O5  UNK     1      32.236 -11.275  30.900  1.00  0.00    -0.265 OA
BRANCH  14  16
HETATM   16  C14 UNK     1      30.260 -12.266  29.871  1.00  0.00     0.131 C 
BRANCH  16  17
HETATM   17  C15 UNK     1      29.791 -11.104  29.006  1.00  0.00     0.134 C 
BRANCH  17  18
HETATM   18  N1  UNK     1      30.297  -9.840  29.471  1.00  0.00    -0.336 N 
HETATM   19  C22 UNK     1      31.016  -8.960  28.683  1.00  0.00     0.360 C 
HETATM   20  O6  UNK     1      31.313  -9.135  27.506  1.00  0.00    -0.239 OA
HETATM   21  H15 UNK     1      30.110  -9.573  30.432  1.00  0.00     0.164 HD
BRANCH  19  22
HETATM   22  O4  UNK     1      31.353  -7.854  29.411  1.00  0.00    -0.299 OA
BRANCH  22  23
HETATM   23  C21 UNK     1      30.394  -7.432  30.387  1.00  0.00     0.219 C 
BRANCH  23  24
HETATM   24  C20 UNK     1      31.116  -6.990  31.626  1.00  0.00    -0.034 A 
HETATM   25  C23 UNK     1      32.266  -7.661  32.039  1.00  0.00     0.009 A 
HETATM   26  C25 UNK     1      32.937  -7.250  33.191  1.00  0.00     0.001 A 
HETATM   27  C27 UNK     1      32.456  -6.168  33.930  1.00  0.00     0.000 A 
HETATM   28  C26 UNK     1      31.306  -5.497  33.516  1.00  0.00     0.001 A 
HETATM   29  C24 UNK     1      30.635  -5.909  32.364  1.00  0.00     0.009 A 
ENDBRANCH  23  24
ENDBRANCH  22  23
ENDBRANCH  19  22
ENDBRANCH  17  18
ENDBRANCH  16  17
ENDBRANCH  14  16
ENDBRANCH  13  14
ENDBRANCH  10  13
BRANCH   3  30
HETATM   30  C6  UNK     1      30.035  -6.282  37.442  1.00  0.00    -0.019 A 
HETATM   31  C12 UNK     1      30.583  -5.037  37.130  1.00  0.00     0.015 A 
HETATM   32  C16 UNK     1      30.356  -3.946  37.969  1.00  0.00     0.043 A 
HETATM   33  C19 UNK     1      29.581  -4.101  39.119  1.00  0.00     0.116 A 
HETATM   34  C17 UNK     1      29.033  -5.346  39.430  1.00  0.00     0.043 A 
HETATM   35  F1  UNK     1      29.362  -3.053  39.926  1.00  0.00    -0.206 F 
HETATM   36  C13 UNK     1      29.261  -6.436  38.591  1.00  0.00     0.015 A 
ENDBRANCH   3  30
TORSDOF 9
ENDMDL
MODEL 7
REMARK VINA RESULT:      -8.7     13.561     16.596
REMARK  9 active torsions:
REMARK  status: ('A' for Active; 'I' for Inactive)
REMARK    1  A    between atoms: C18_26  and  O2_3 
REMARK    2  A    between atoms: C9_17  and  O2_3 
REMARK    3  A    between atoms: C21_29  and  O4_5 
REMARK    4  A    between atoms: C22_30  and  O4_5 
REMARK    5  A    between atoms: C15_23  and  N1_8 
REMARK       I    between atoms: C22_30  and  N1_8 
REMARK    6  A    between atoms: C1_9  and  C6_14 
REMARK    7  A    between atoms: C14_22  and  C15_23 
REMARK    8  A    between atoms: C14_22  and  C18_26 
REMARK    9  A    between atoms: C20_28  and  C21_29 
ROOT
HETATM    1  O1  UNK     1      29.198  -6.080  33.866  1.00  0.00    -0.313 OA
HETATM    2  O3  UNK     1      30.845  -9.701  33.014  1.00  0.00    -0.286 OA
HETATM    3  C1  UNK     1      30.712  -7.382  32.501  1.00  0.00     0.054 A 
HETATM    4  C2  UNK     1      29.373  -8.447  34.351  1.00  0.00     0.049 A 
HETATM    5  C3  UNK     1      28.846  -7.183  34.593  1.00  0.00     0.092 A 
HETATM    6  C4  UNK     1      30.352  -8.609  33.268  1.00  0.00     0.198 A 
HETATM    7  C5  UNK     1      30.124  -6.214  32.840  1.00  0.00     0.065 A 
HETATM    8  C7  UNK     1      28.975  -9.539  35.127  1.00  0.00     0.021 A 
HETATM    9  C8  UNK     1      27.915  -7.001  35.617  1.00  0.00     0.075 A 
HETATM   10  C9  UNK     1      27.514  -8.088  36.395  1.00  0.00     0.082 A 
HETATM   11  C10 UNK     1      28.045  -9.355  36.149  1.00  0.00     0.038 A 
HETATM   12  C11 UNK     1      30.384  -4.897  32.161  1.00  0.00     0.077 C 
ENDROOT
BRANCH  10  13
HETATM   13  O2  UNK     1      26.606  -7.913  37.393  1.00  0.00    -0.279 OA
BRANCH  13  14
HETATM   14  C18 UNK     1      27.116  -7.255  38.529  1.00  0.00     0.265 C 
HETATM   15  O5  UNK     1      28.060  -7.642  39.203  1.00  0.00    -0.265 OA
BRANCH  14  16
HETATM   16  C14 UNK     1      26.301  -6.005  38.791  1.00  0.00     0.131 C 
BRANCH  16  17
HETATM   17  C15 UNK     1      27.123  -4.728  38.681  1.00  0.00     0.134 C 
BRANCH  17  18
HETATM   18  N1  UNK     1      28.510  -4.994  38.409  1.00  0.00    -0.336 N 
HETATM   19  C22 UNK     1      29.558  -4.406  39.093  1.00  0.00     0.360 C 
HETATM   20  O6  UNK     1      29.447  -3.594  40.007  1.00  0.00    -0.239 OA
HETATM   21  H15 UNK     1      28.735  -5.659  37.676  1.00  0.00     0.164 HD
BRANCH  19  22
HETATM   22  O4  UNK     1      30.748  -4.862  38.602  1.00  0.00    -0.299 OA
BRANCH  22  23
HETATM   23  C21 UNK     1      30.833  -4.979  37.178  1.00  0.00     0.219 C 
BRANCH  23  24
HETATM   24  C20 UNK     1      31.491  -6.282  36.831  1.00  0.00    -0.034 A 
HETATM   25  C23 UNK     1      32.381  -6.351  35.759  1.00  0.00     0.009 A 
HETATM   26  C25 UNK     1      32.991  -7.563  35.437  1.00  0.00     0.001 A 
HETATM   27  C27 UNK     1      32.711  -8.706  36.186  1.00  0.00     0.000 A 
HETATM   28  C26 UNK     1      31.821  -8.637  37.257  1.00  0.00     0.001 A 
HETATM   29  C24 UNK     1      31.211  -7.425  37.580  1.00  0.00     0.009 A 
ENDBRANCH  23  24
ENDBRANCH  22  23
ENDBRANCH  19  22
ENDBRANCH  17  18
ENDBRANCH  16  17
ENDBRANCH  14  16
ENDBRANCH  13  14
ENDBRANCH  10  13
BRANCH   3  30
HETATM   30  C6  UNK     1      31.680  -7.477  31.415  1.00  0.00    -0.019 A 
HETATM   31  C12 UNK     1      33.046  -7.406  31.691  1.00  0.00     0.015 A 
HETATM   32  C16 UNK     1      33.972  -7.496  30.652  1.00  0.00     0.043 A 
HETATM   33  C19 UNK     1      33.532  -7.658  29.338  1.00  0.00     0.116 A 
HETATM   34  C17 UNK     1      32.166  -7.730  29.063  1.00  0.00     0.043 A 
HETATM   35  F1  UNK     1      34.422  -7.745  28.340  1.00  0.00    -0.206 F 
HETATM   36  C13 UNK     1      31.240  -7.638  30.102  1.00  0.00     0.015 A 
ENDBRANCH   3  30
TORSDOF 9
ENDMDL
MODEL 8
REMARK VINA RESULT:      -8.6     13.673     16.678
REMARK  9 active torsions:
REMARK  status: ('A' for Active; 'I' for Inactive)
REMARK    1  A    between atoms: C18_26  and  O2_3 
REMARK    2  A    between atoms: C9_17  and  O2_3 
REMARK    3  A    between atoms: C21_29  and  O4_5 
REMARK    4  A    between atoms: C22_30  and  O4_5 
REMARK    5  A    between atoms: C15_23  and  N1_8 
REMARK       I    between atoms: C22_30  and  N1_8 
REMARK    6  A    between atoms: C1_9  and  C6_14 
REMARK    7  A    between atoms: C14_22  and  C15_23 
REMARK    8  A    between atoms: C14_22  and  C18_26 
REMARK    9  A    between atoms: C20_28  and  C21_29 
ROOT
HETATM    1  O1  UNK     1      31.665  -9.449  35.661  1.00  0.00    -0.313 OA
HETATM    2  O3  UNK     1      28.417  -7.093  34.987  1.00  0.00    -0.286 OA
HETATM    3  C1  UNK     1      30.333  -7.542  36.324  1.00  0.00     0.054 A 
HETATM    4  C2  UNK     1      29.704  -8.947  34.328  1.00  0.00     0.049 A 
HETATM    5  C3  UNK     1      30.829  -9.714  34.610  1.00  0.00     0.092 A 
HETATM    6  C4  UNK     1      29.396  -7.800  35.192  1.00  0.00     0.198 A 
HETATM    7  C5  UNK     1      31.390  -8.367  36.486  1.00  0.00     0.065 A 
HETATM    8  C7  UNK     1      28.887  -9.266  33.241  1.00  0.00     0.021 A 
HETATM    9  C8  UNK     1      31.146 -10.809  33.805  1.00  0.00     0.075 A 
HETATM   10  C9  UNK     1      30.333 -11.132  32.718  1.00  0.00     0.082 A 
HETATM   11  C10 UNK     1      29.204 -10.360  32.438  1.00  0.00     0.038 A 
HETATM   12  C11 UNK     1      32.417  -8.236  37.577  1.00  0.00     0.077 C 
ENDROOT
BRANCH  10  13
HETATM   13  O2  UNK     1      30.639 -12.200  31.932  1.00  0.00    -0.279 OA
BRANCH  13  14
HETATM   14  C18 UNK     1      30.973 -11.863  30.606  1.00  0.00     0.265 C 
HETATM   15  O5  UNK     1      30.170 -11.671  29.703  1.00  0.00    -0.265 OA
BRANCH  14  16
HETATM   16  C14 UNK     1      32.481 -11.792  30.472  1.00  0.00     0.131 C 
BRANCH  16  17
HETATM   17  C15 UNK     1      33.007 -10.364  30.443  1.00  0.00     0.134 C 
BRANCH  17  18
HETATM   18  N1  UNK     1      32.017  -9.428  29.983  1.00  0.00    -0.336 N 
HETATM   19  C22 UNK     1      32.135  -8.688  28.821  1.00  0.00     0.360 C 
HETATM   20  O6  UNK     1      33.081  -8.731  28.042  1.00  0.00    -0.239 OA
HETATM   21  H15 UNK     1      31.177  -9.306  30.541  1.00  0.00     0.164 HD
BRANCH  19  22
HETATM   22  O4  UNK     1      31.035  -7.893  28.662  1.00  0.00    -0.299 OA
BRANCH  22  23
HETATM   23  C21 UNK     1      29.768  -8.547  28.791  1.00  0.00     0.219 C 
BRANCH  23  24
HETATM   24  C20 UNK     1      28.914  -7.775  29.755  1.00  0.00    -0.034 A 
HETATM   25  C23 UNK     1      27.565  -8.094  29.900  1.00  0.00     0.009 A 
HETATM   26  C25 UNK     1      26.772  -7.376  30.795  1.00  0.00     0.001 A 
HETATM   27  C27 UNK     1      27.328  -6.340  31.544  1.00  0.00     0.000 A 
HETATM   28  C26 UNK     1      28.678  -6.021  31.399  1.00  0.00     0.001 A 
HETATM   29  C24 UNK     1      29.471  -6.739  30.504  1.00  0.00     0.009 A 
ENDBRANCH  23  24
ENDBRANCH  22  23
ENDBRANCH  19  22
ENDBRANCH  17  18
ENDBRANCH  16  17
ENDBRANCH  14  16
ENDBRANCH  13  14
ENDBRANCH  10  13
BRANCH   3  30
HETATM   30  C6  UNK     1      30.082  -6.417  37.216  1.00  0.00    -0.019 A 
HETATM   31  C12 UNK     1      30.628  -5.165  36.929  1.00  0.00     0.015 A 
HETATM   32  C16 UNK     1      30.389  -4.089  37.783  1.00  0.00     0.043 A 
HETATM   33  C19 UNK     1      29.604  -4.264  38.922  1.00  0.00     0.116 A 
HETATM   34  C17 UNK     1      29.058  -5.515  39.209  1.00  0.00     0.043 A 
HETATM   35  F1  UNK     1      29.374  -3.229  39.743  1.00  0.00    -0.206 F 
HETATM   36  C13 UNK     1      29.298  -6.592  38.355  1.00  0.00     0.015 A 
ENDBRANCH   3  30
TORSDOF 9
ENDMDL
MODEL 9
REMARK VINA RESULT:      -8.5     10.619     15.041
REMARK  9 active torsions:
REMARK  status: ('A' for Active; 'I' for Inactive)
REMARK    1  A    between atoms: C18_26  and  O2_3 
REMARK    2  A    between atoms: C9_17  and  O2_3 
REMARK    3  A    between atoms: C21_29  and  O4_5 
REMARK    4  A    between atoms: C22_30  and  O4_5 
REMARK    5  A    between atoms: C15_23  and  N1_8 
REMARK       I    between atoms: C22_30  and  N1_8 
REMARK    6  A    between atoms: C1_9  and  C6_14 
REMARK    7  A    between atoms: C14_22  and  C15_23 
REMARK    8  A    between atoms: C14_22  and  C18_26 
REMARK    9  A    between atoms: C20_28  and  C21_29 
ROOT
HETATM    1  O1  UNK     1      28.530  -5.747  38.424  1.00  0.00    -0.313 OA
HETATM    2  O3  UNK     1      30.734  -8.918  37.145  1.00  0.00    -0.286 OA
HETATM    3  C1  UNK     1      30.616  -6.572  37.519  1.00  0.00     0.054 A 
HETATM    4  C2  UNK     1      28.702  -8.131  38.028  1.00  0.00     0.049 A 
HETATM    5  C3  UNK     1      28.000  -7.008  38.451  1.00  0.00     0.092 A 
HETATM    6  C4  UNK     1      30.073  -7.961  37.530  1.00  0.00     0.198 A 
HETATM    7  C5  UNK     1      29.825  -5.569  37.958  1.00  0.00     0.065 A 
HETATM    8  C7  UNK     1      28.109  -9.395  38.079  1.00  0.00     0.021 A 
HETATM    9  C8  UNK     1      26.696  -7.141  38.930  1.00  0.00     0.075 A 
HETATM   10  C9  UNK     1      26.099  -8.401  38.983  1.00  0.00     0.082 A 
HETATM   11  C10 UNK     1      26.806  -9.527  38.557  1.00  0.00     0.038 A 
HETATM   12  C11 UNK     1      30.229  -4.120  38.007  1.00  0.00     0.077 C 
ENDROOT
BRANCH  10  13
HETATM   13  O2  UNK     1      24.827  -8.534  39.448  1.00  0.00    -0.279 OA
BRANCH  13  14
HETATM   14  C18 UNK     1      23.852  -7.901  38.653  1.00  0.00     0.265 C 
HETATM   15  O5  UNK     1      23.661  -8.120  37.465  1.00  0.00    -0.265 OA
BRANCH  14  16
HETATM   16  C14 UNK     1      23.092  -6.898  39.497  1.00  0.00     0.131 C 
BRANCH  16  17
HETATM   17  C15 UNK     1      22.347  -5.865  38.662  1.00  0.00     0.134 C 
BRANCH  17  18
HETATM   18  N1  UNK     1      21.107  -6.376  38.143  1.00  0.00    -0.336 N 
HETATM   19  C22 UNK     1      20.430  -5.819  37.074  1.00  0.00     0.360 C 
HETATM   20  O6  UNK     1      20.789  -4.834  36.437  1.00  0.00    -0.239 OA
HETATM   21  H15 UNK     1      20.706  -7.198  38.583  1.00  0.00     0.164 HD
BRANCH  19  22
HETATM   22  O4  UNK     1      19.290  -6.529  36.824  1.00  0.00    -0.299 OA
BRANCH  22  23
HETATM   23  C21 UNK     1      19.295  -7.319  35.631  1.00  0.00     0.219 C 
BRANCH  23  24
HETATM   24  C20 UNK     1      20.094  -8.567  35.872  1.00  0.00    -0.034 A 
HETATM   25  C23 UNK     1      19.743  -9.429  36.911  1.00  0.00     0.009 A 
HETATM   26  C25 UNK     1      20.487 -10.588  37.135  1.00  0.00     0.001 A 
HETATM   27  C27 UNK     1      21.580 -10.884  36.321  1.00  0.00     0.000 A 
HETATM   28  C26 UNK     1      21.930 -10.022  35.282  1.00  0.00     0.001 A 
HETATM   29  C24 UNK     1      21.187  -8.863  35.058  1.00  0.00     0.009 A 
ENDBRANCH  23  24
ENDBRANCH  22  23
ENDBRANCH  19  22
ENDBRANCH  17  18
ENDBRANCH  16  17
ENDBRANCH  14  16
ENDBRANCH  13  14
ENDBRANCH  10  13
BRANCH   3  30
HETATM   30  C6  UNK     1      31.972  -6.339  37.038  1.00  0.00    -0.019 A 
HETATM   31  C12 UNK     1      33.048  -6.423  37.922  1.00  0.00     0.015 A 
HETATM   32  C16 UNK     1      34.346  -6.199  37.462  1.00  0.00     0.043 A 
HETATM   33  C19 UNK     1      34.566  -5.891  36.119  1.00  0.00     0.116 A 
HETATM   34  C17 UNK     1      33.489  -5.806  35.236  1.00  0.00     0.043 A 
HETATM   35  F1  UNK     1      35.813  -5.675  35.677  1.00  0.00    -0.206 F 
HETATM   36  C13 UNK     1      32.192  -6.030  35.697  1.00  0.00     0.015 A 
ENDBRANCH   3  30
TORSDOF 9
ENDMDL
MODEL 10
REMARK VINA RESULT:      -8.5     14.706     17.473
REMARK  9 active torsions:
REMARK  status: ('A' for Active; 'I' for Inactive)
REMARK    1  A    between atoms: C18_26  and  O2_3 
REMARK    2  A    between atoms: C9_17  and  O2_3 
REMARK    3  A    between atoms: C21_29  and  O4_5 
REMARK    4  A    between atoms: C22_30  and  O4_5 
REMARK    5  A    between atoms: C15_23  and  N1_8 
REMARK       I    between atoms: C22_30  and  N1_8 
REMARK    6  A    between atoms: C1_9  and  C6_14 
REMARK    7  A    between atoms: C14_22  and  C15_23 
REMARK    8  A    between atoms: C14_22  and  C18_26 
REMARK    9  A    between atoms: C20_28  and  C21_29 
ROOT
HETATM    1  O1  UNK     1      31.919  -8.765  34.667  1.00  0.00    -0.313 OA
HETATM    2  O3  UNK     1      28.741  -6.240  34.403  1.00  0.00    -0.286 OA
HETATM    3  C1  UNK     1      30.567  -7.044  35.697  1.00  0.00     0.054 A 
HETATM    4  C2  UNK     1      30.048  -7.909  33.388  1.00  0.00     0.049 A 
HETATM    5  C3  UNK     1      31.146  -8.749  33.538  1.00  0.00     0.092 A 
HETATM    6  C4  UNK     1      29.698  -6.998  34.486  1.00  0.00     0.198 A 
HETATM    7  C5  UNK     1      31.604  -7.909  35.714  1.00  0.00     0.065 A 
HETATM    8  C7  UNK     1      29.294  -7.936  32.211  1.00  0.00     0.021 A 
HETATM    9  C8  UNK     1      31.501  -9.623  32.510  1.00  0.00     0.075 A 
HETATM   10  C9  UNK     1      30.752  -9.654  31.334  1.00  0.00     0.082 A 
HETATM   11  C10 UNK     1      29.650  -8.811  31.186  1.00  0.00     0.038 A 
HETATM   12  C11 UNK     1      32.565  -8.070  36.860  1.00  0.00     0.077 C 
ENDROOT
BRANCH  10  13
HETATM   13  O2  UNK     1      31.095 -10.507  30.330  1.00  0.00    -0.279 OA
BRANCH  13  14
HETATM   14  C18 UNK     1      32.298 -10.175  29.677  1.00  0.00     0.265 C 
HETATM   15  O5  UNK     1      33.324 -10.841  29.707  1.00  0.00    -0.265 OA
BRANCH  14  16
HETATM   16  C14 UNK     1      32.124  -8.860  28.945  1.00  0.00     0.131 C 
BRANCH  16  17
HETATM   17  C15 UNK     1      33.430  -8.097  28.777  1.00  0.00     0.134 C 
BRANCH  17  18
HETATM   18  N1  UNK     1      34.163  -7.993  30.011  1.00  0.00    -0.336 N 
HETATM   19  C22 UNK     1      35.153  -7.056  30.244  1.00  0.00     0.360 C 
HETATM   20  O6  UNK     1      35.530  -6.204  29.447  1.00  0.00    -0.239 OA
HETATM   21  H15 UNK     1      33.938  -8.642  30.758  1.00  0.00     0.164 HD
BRANCH  19  22
HETATM   22  O4  UNK     1      35.656  -7.216  31.504  1.00  0.00    -0.299 OA
BRANCH  22  23
HETATM   23  C21 UNK     1      34.750  -7.749  32.476  1.00  0.00     0.219 C 
BRANCH  23  24
HETATM   24  C20 UNK     1      34.695  -6.823  33.655  1.00  0.00    -0.034 A 
HETATM   25  C23 UNK     1      33.714  -5.833  33.719  1.00  0.00     0.009 A 
HETATM   26  C25 UNK     1      33.664  -4.972  34.816  1.00  0.00     0.001 A 
HETATM   27  C27 UNK     1      34.594  -5.101  35.847  1.00  0.00     0.000 A 
HETATM   28  C26 UNK     1      35.575  -6.091  35.783  1.00  0.00     0.001 A 
HETATM   29  C24 UNK     1      35.625  -6.952  34.686  1.00  0.00     0.009 A 
ENDBRANCH  23  24
ENDBRANCH  22  23
ENDBRANCH  19  22
ENDBRANCH  17  18
ENDBRANCH  16  17
ENDBRANCH  14  16
ENDBRANCH  13  14
ENDBRANCH  10  13
BRANCH   3  30
HETATM   30  C6  UNK     1      30.273  -6.162  36.820  1.00  0.00    -0.019 A 
HETATM   31  C12 UNK     1      29.491  -6.621  37.880  1.00  0.00     0.015 A 
HETATM   32  C16 UNK     1      29.209  -5.778  38.954  1.00  0.00     0.043 A 
HETATM   33  C19 UNK     1      29.709  -4.476  38.968  1.00  0.00     0.116 A 
HETATM   34  C17 UNK     1      30.491  -4.016  37.907  1.00  0.00     0.043 A 
HETATM   35  F1  UNK     1      29.437  -3.664  40.000  1.00  0.00    -0.206 F 
HETATM   36  C13 UNK     1      30.772  -4.860  36.833  1.00  0.00     0.015 A 
ENDBRANCH   3  30
TORSDOF 9
ENDMDL
