MODEL 1
REMARK VINA RESULT:      -8.0      0.000      0.000
REMARK  5 active torsions:
REMARK  status: ('A' for Active; 'I' for Inactive)
REMARK    1  A    between atoms: C5_8  and  O1_1 
REMARK    2  A    between atoms: C6_9  and  O1_1 
REMARK    3  A    between atoms: C10_13  and  C2_5 
REMARK    4  A    between atoms: C3_6  and  C5_8 
REMARK    5  A    between atoms: C3_6  and  C7_10 
ROOT
HETATM    1  O2  UNK     1      20.642  -3.270  34.914  1.00  0.00    -0.275 OA
HETATM    2  O3  UNK     1      20.680  -3.974  37.089  1.00  0.00    -0.260 OA
HETATM    3  C1  UNK     1      19.151  -1.445  34.283  1.00  0.00     0.009 A 
HETATM    4  C2  UNK     1      18.685  -1.360  35.676  1.00  0.00    -0.007 A 
HETATM    5  C4  UNK     1      20.113  -2.395  33.945  1.00  0.00     0.093 A 
HETATM    6  C6  UNK     1      20.109  -1.690  31.647  1.00  0.00     0.071 A 
HETATM    7  C8  UNK     1      18.671  -0.607  33.269  1.00  0.00     0.018 A 
HETATM    8  C9  UNK     1      20.598  -2.529  32.644  1.00  0.00     0.075 A 
HETATM    9  C11 UNK     1      19.147  -0.730  31.959  1.00  0.00     0.038 A 
HETATM   10  C12 UNK     1      19.209  -2.208  36.575  1.00  0.00     0.095 A 
HETATM   11  C14 UNK     1      20.227  -3.218  36.235  1.00  0.00     0.289 A 
ENDROOT
BRANCH   4  12
HETATM   12  C10 UNK     1      17.688  -0.427  36.193  1.00  0.00    -0.025 A 
HETATM   13  C15 UNK     1      18.035   0.469  37.201  1.00  0.00     0.012 A 
HETATM   14  C17 UNK     1      17.083   1.360  37.695  1.00  0.00     0.001 A 
HETATM   15  C19 UNK     1      15.785   1.351  37.180  1.00  0.00     0.000 A 
HETATM   16  C18 UNK     1      15.441   0.452  36.171  1.00  0.00     0.001 A 
HETATM   17  C16 UNK     1      16.395  -0.439  35.677  1.00  0.00     0.012 A 
ENDBRANCH   4  12
BRANCH   6  18
HETATM   18  O1  UNK     1      20.568  -1.806  30.372  1.00  0.00    -0.351 OA
BRANCH  18  19
HETATM   19  C5  UNK     1      20.700  -0.603  29.616  1.00  0.00     0.175 C 
BRANCH  19  20
HETATM   20  C3  UNK     1      19.828  -0.705  28.372  1.00  0.00     0.026 C 
BRANCH  20  21
HETATM   21  C7  UNK     1      18.697   0.319  28.392  1.00  0.00    -0.002 C 
HETATM   22  C13 UNK     1      19.051   1.524  29.250  1.00  0.00     0.005 C 
ENDBRANCH  20  21
ENDBRANCH  19  20
ENDBRANCH  18  19
ENDBRANCH   6  18
TORSDOF 5
ENDMDL
MODEL 2
REMARK VINA RESULT:      -8.0      4.901      7.698
REMARK  5 active torsions:
REMARK  status: ('A' for Active; 'I' for Inactive)
REMARK    1  A    between atoms: C5_8  and  O1_1 
REMARK    2  A    between atoms: C6_9  and  O1_1 
REMARK    3  A    between atoms: C10_13  and  C2_5 
REMARK    4  A    between atoms: C3_6  and  C5_8 
REMARK    5  A    between atoms: C3_6  and  C7_10 
ROOT
HETATM    1  O2  UNK     1      17.882   3.236  33.999  1.00  0.00    -0.275 OA
HETATM    2  O3  UNK     1      17.740   1.215  35.058  1.00  0.00    -0.260 OA
HETATM    3  C1  UNK     1      18.596   3.306  31.667  1.00  0.00     0.009 A 
HETATM    4  C2  UNK     1      18.729   1.841  31.676  1.00  0.00    -0.007 A 
HETATM    5  C4  UNK     1      18.178   3.958  32.826  1.00  0.00     0.093 A 
HETATM    6  C6  UNK     1      18.311   6.106  31.756  1.00  0.00     0.071 A 
HETATM    7  C8  UNK     1      18.871   4.088  30.538  1.00  0.00     0.018 A 
HETATM    8  C9  UNK     1      18.032   5.344  32.887  1.00  0.00     0.075 A 
HETATM    9  C11 UNK     1      18.730   5.479  30.583  1.00  0.00     0.038 A 
HETATM   10  C12 UNK     1      18.439   1.183  32.810  1.00  0.00     0.095 A 
HETATM   11  C14 UNK     1      17.994   1.855  34.043  1.00  0.00     0.289 A 
ENDROOT
BRANCH   4  12
HETATM   12  C10 UNK     1      19.153   1.010  30.553  1.00  0.00    -0.025 A 
HETATM   13  C15 UNK     1      18.457   1.065  29.348  1.00  0.00     0.012 A 
HETATM   14  C17 UNK     1      18.863   0.271  28.276  1.00  0.00     0.001 A 
HETATM   15  C19 UNK     1      19.963  -0.577  28.413  1.00  0.00     0.000 A 
HETATM   16  C18 UNK     1      20.657  -0.630  29.621  1.00  0.00     0.001 A 
HETATM   17  C16 UNK     1      20.251   0.165  30.693  1.00  0.00     0.012 A 
ENDBRANCH   4  12
BRANCH   6  18
HETATM   18  O1  UNK     1      18.176   7.459  31.794  1.00  0.00    -0.351 OA
BRANCH  18  19
HETATM   19  C5  UNK     1      17.078   7.982  32.540  1.00  0.00     0.175 C 
BRANCH  19  20
HETATM   20  C3  UNK     1      15.868   8.089  31.622  1.00  0.00     0.026 C 
BRANCH  20  21
HETATM   21  C7  UNK     1      14.713   7.219  32.108  1.00  0.00    -0.002 C 
HETATM   22  C13 UNK     1      14.348   7.532  33.551  1.00  0.00     0.005 C 
ENDBRANCH  20  21
ENDBRANCH  19  20
ENDBRANCH  18  19
ENDBRANCH   6  18
TORSDOF 5
ENDMDL
MODEL 3
REMARK VINA RESULT:      -8.0      4.569      5.783
REMARK  5 active torsions:
REMARK  status: ('A' for Active; 'I' for Inactive)
REMARK    1  A    between atoms: C5_8  and  O1_1 
REMARK    2  A    between atoms: C6_9  and  O1_1 
REMARK    3  A    between atoms: C10_13  and  C2_5 
REMARK    4  A    between atoms: C3_6  and  C5_8 
REMARK    5  A    between atoms: C3_6  and  C7_10 
ROOT
HETATM    1  O2  UNK     1      18.219   1.401  33.030  1.00  0.00    -0.275 OA
HETATM    2  O3  UNK     1      17.917   1.433  35.295  1.00  0.00    -0.260 OA
HETATM    3  C1  UNK     1      18.463   3.513  31.835  1.00  0.00     0.009 A 
HETATM    4  C2  UNK     1      18.322   4.236  33.108  1.00  0.00    -0.007 A 
HETATM    5  C4  UNK     1      18.408   2.121  31.834  1.00  0.00     0.093 A 
HETATM    6  C6  UNK     1      18.724   2.035  29.452  1.00  0.00     0.071 A 
HETATM    7  C8  UNK     1      18.656   4.163  30.609  1.00  0.00     0.018 A 
HETATM    8  C9  UNK     1      18.535   1.374  30.662  1.00  0.00     0.075 A 
HETATM    9  C11 UNK     1      18.784   3.428  29.426  1.00  0.00     0.038 A 
HETATM   10  C12 UNK     1      18.142   3.521  34.230  1.00  0.00     0.095 A 
HETATM   11  C14 UNK     1      18.082   2.048  34.247  1.00  0.00     0.289 A 
ENDROOT
BRANCH   4  12
HETATM   12  C10 UNK     1      18.356   5.686  33.282  1.00  0.00    -0.025 A 
HETATM   13  C15 UNK     1      19.554   6.317  33.603  1.00  0.00     0.012 A 
HETATM   14  C17 UNK     1      19.587   7.701  33.770  1.00  0.00     0.001 A 
HETATM   15  C19 UNK     1      18.419   8.450  33.615  1.00  0.00     0.000 A 
HETATM   16  C18 UNK     1      17.220   7.814  33.293  1.00  0.00     0.001 A 
HETATM   17  C16 UNK     1      17.189   6.429  33.127  1.00  0.00     0.012 A 
ENDBRANCH   4  12
BRANCH   6  18
HETATM   18  O1  UNK     1      18.847   1.325  28.299  1.00  0.00    -0.351 OA
BRANCH  18  19
HETATM   19  C5  UNK     1      18.977  -0.090  28.418  1.00  0.00     0.175 C 
BRANCH  19  20
HETATM   20  C3  UNK     1      20.391  -0.417  28.879  1.00  0.00     0.026 C 
BRANCH  20  21
HETATM   21  C7  UNK     1      20.453  -1.766  29.590  1.00  0.00    -0.002 C 
HETATM   22  C13 UNK     1      20.545  -1.598  31.098  1.00  0.00     0.005 C 
ENDBRANCH  20  21
ENDBRANCH  19  20
ENDBRANCH  18  19
ENDBRANCH   6  18
TORSDOF 5
ENDMDL
MODEL 4
REMARK VINA RESULT:      -8.0      5.204      7.801
REMARK  5 active torsions:
REMARK  status: ('A' for Active; 'I' for Inactive)
REMARK    1  A    between atoms: C5_8  and  O1_1 
REMARK    2  A    between atoms: C6_9  and  O1_1 
REMARK    3  A    between atoms: C10_13  and  C2_5 
REMARK    4  A    between atoms: C3_6  and  C5_8 
REMARK    5  A    between atoms: C3_6  and  C7_10 
ROOT
HETATM    1  O2  UNK     1      17.854   3.095  34.107  1.00  0.00    -0.275 OA
HETATM    2  O3  UNK     1      17.724   1.049  35.118  1.00  0.00    -0.260 OA
HETATM    3  C1  UNK     1      18.574   3.225  31.780  1.00  0.00     0.009 A 
HETATM    4  C2  UNK     1      18.717   1.761  31.754  1.00  0.00    -0.007 A 
HETATM    5  C4  UNK     1      18.148   3.846  32.953  1.00  0.00     0.093 A 
HETATM    6  C6  UNK     1      18.268   6.020  31.933  1.00  0.00     0.071 A 
HETATM    7  C8  UNK     1      18.846   4.035  30.670  1.00  0.00     0.018 A 
HETATM    8  C9  UNK     1      17.991   5.230  33.045  1.00  0.00     0.075 A 
HETATM    9  C11 UNK     1      18.694   5.423  30.747  1.00  0.00     0.038 A 
HETATM   10  C12 UNK     1      18.430   1.074  32.872  1.00  0.00     0.095 A 
HETATM   11  C14 UNK     1      17.977   1.715  34.120  1.00  0.00     0.289 A 
ENDROOT
BRANCH   4  12
HETATM   12  C10 UNK     1      19.150   0.959  30.614  1.00  0.00    -0.025 A 
HETATM   13  C15 UNK     1      20.234   0.095  30.746  1.00  0.00     0.012 A 
HETATM   14  C17 UNK     1      20.647  -0.671  29.657  1.00  0.00     0.001 A 
HETATM   15  C19 UNK     1      19.976  -0.569  28.437  1.00  0.00     0.000 A 
HETATM   16  C18 UNK     1      18.891   0.298  28.308  1.00  0.00     0.001 A 
HETATM   17  C16 UNK     1      18.478   1.064  29.399  1.00  0.00     0.012 A 
ENDBRANCH   4  12
BRANCH   6  18
HETATM   18  O1  UNK     1      18.124   7.371  32.003  1.00  0.00    -0.351 OA
BRANCH  18  19
HETATM   19  C5  UNK     1      17.539   7.901  33.191  1.00  0.00     0.175 C 
BRANCH  19  20
HETATM   20  C3  UNK     1      18.388   9.067  33.679  1.00  0.00     0.026 C 
BRANCH  20  21
HETATM   21  C7  UNK     1      19.635   8.585  34.416  1.00  0.00    -0.002 C 
HETATM   22  C13 UNK     1      20.650   9.704  34.584  1.00  0.00     0.005 C 
ENDBRANCH  20  21
ENDBRANCH  19  20
ENDBRANCH  18  19
ENDBRANCH   6  18
TORSDOF 5
ENDMDL
MODEL 5
REMARK VINA RESULT:      -7.8      3.193      4.831
REMARK  5 active torsions:
REMARK  status: ('A' for Active; 'I' for Inactive)
REMARK    1  A    between atoms: C5_8  and  O1_1 
REMARK    2  A    between atoms: C6_9  and  O1_1 
REMARK    3  A    between atoms: C10_13  and  C2_5 
REMARK    4  A    between atoms: C3_6  and  C5_8 
REMARK    5  A    between atoms: C3_6  and  C7_10 
ROOT
HETATM    1  O2  UNK     1      19.484   0.092  30.882  1.00  0.00    -0.275 OA
HETATM    2  O3  UNK     1      19.783  -2.108  31.426  1.00  0.00    -0.260 OA
HETATM    3  C1  UNK     1      18.432   1.583  32.500  1.00  0.00     0.009 A 
HETATM    4  C2  UNK     1      18.303   0.456  33.437  1.00  0.00    -0.007 A 
HETATM    5  C4  UNK     1      19.018   1.368  31.254  1.00  0.00     0.093 A 
HETATM    6  C6  UNK     1      18.726   3.672  30.636  1.00  0.00     0.071 A 
HETATM    7  C8  UNK     1      17.992   2.878  32.804  1.00  0.00     0.018 A 
HETATM    8  C9  UNK     1      19.170   2.392  30.319  1.00  0.00     0.075 A 
HETATM    9  C11 UNK     1      18.138   3.915  31.876  1.00  0.00     0.038 A 
HETATM   10  C12 UNK     1      18.758  -0.747  33.051  1.00  0.00     0.095 A 
HETATM   11  C14 UNK     1      19.381  -0.992  31.738  1.00  0.00     0.289 A 
ENDROOT
BRANCH   4  12
HETATM   12  C10 UNK     1      17.718   0.511  34.773  1.00  0.00    -0.025 A 
HETATM   13  C15 UNK     1      16.351   0.301  34.940  1.00  0.00     0.012 A 
HETATM   14  C17 UNK     1      15.792   0.353  36.216  1.00  0.00     0.001 A 
HETATM   15  C19 UNK     1      16.601   0.618  37.322  1.00  0.00     0.000 A 
HETATM   16  C18 UNK     1      17.969   0.828  37.151  1.00  0.00     0.001 A 
HETATM   17  C16 UNK     1      18.528   0.775  35.874  1.00  0.00     0.012 A 
ENDBRANCH   4  12
BRANCH   6  18
HETATM   18  O1  UNK     1      18.864   4.684  29.737  1.00  0.00    -0.351 OA
BRANCH  18  19
HETATM   19  C5  UNK     1      19.292   5.948  30.242  1.00  0.00     0.175 C 
BRANCH  19  20
HETATM   20  C3  UNK     1      20.750   5.839  30.666  1.00  0.00     0.026 C 
BRANCH  20  21
HETATM   21  C7  UNK     1      20.938   6.205  32.136  1.00  0.00    -0.002 C 
HETATM   22  C13 UNK     1      19.695   6.869  32.708  1.00  0.00     0.005 C 
ENDBRANCH  20  21
ENDBRANCH  19  20
ENDBRANCH  18  19
ENDBRANCH   6  18
TORSDOF 5
ENDMDL
MODEL 6
REMARK VINA RESULT:      -7.7     12.423     14.310
REMARK  5 active torsions:
REMARK  status: ('A' for Active; 'I' for Inactive)
REMARK    1  A    between atoms: C5_8  and  O1_1 
REMARK    2  A    between atoms: C6_9  and  O1_1 
REMARK    3  A    between atoms: C10_13  and  C2_5 
REMARK    4  A    between atoms: C3_6  and  C5_8 
REMARK    5  A    between atoms: C3_6  and  C7_10 
ROOT
HETATM    1  O2  UNK     1      30.949  -4.641  38.934  1.00  0.00    -0.275 OA
HETATM    2  O3  UNK     1      29.109  -3.613  39.820  1.00  0.00    -0.260 OA
HETATM    3  C1  UNK     1      30.739  -6.913  38.071  1.00  0.00     0.009 A 
HETATM    4  C2  UNK     1      29.315  -6.909  38.438  1.00  0.00    -0.007 A 
HETATM    5  C4  UNK     1      31.511  -5.782  38.329  1.00  0.00     0.093 A 
HETATM    6  C6  UNK     1      33.474  -6.820  37.407  1.00  0.00     0.071 A 
HETATM    7  C8  UNK     1      31.365  -8.010  37.465  1.00  0.00     0.018 A 
HETATM    8  C9  UNK     1      32.868  -5.720  38.007  1.00  0.00     0.075 A 
HETATM    9  C11 UNK     1      32.724  -7.963  37.137  1.00  0.00     0.038 A 
HETATM   10  C12 UNK     1      28.810  -5.805  39.013  1.00  0.00     0.095 A 
HETATM   11  C14 UNK     1      29.611  -4.601  39.292  1.00  0.00     0.289 A 
ENDROOT
BRANCH   4  12
HETATM   12  C10 UNK     1      28.372  -8.005  38.238  1.00  0.00    -0.025 A 
HETATM   13  C15 UNK     1      27.790  -8.199  36.988  1.00  0.00     0.012 A 
HETATM   14  C17 UNK     1      26.889  -9.246  36.797  1.00  0.00     0.001 A 
HETATM   15  C19 UNK     1      26.573 -10.097  37.858  1.00  0.00     0.000 A 
HETATM   16  C18 UNK     1      27.158  -9.899  39.109  1.00  0.00     0.001 A 
HETATM   17  C16 UNK     1      28.059  -8.851  39.299  1.00  0.00     0.012 A 
ENDBRANCH   4  12
BRANCH   6  18
HETATM   18  O1  UNK     1      34.796  -6.780  37.087  1.00  0.00    -0.351 OA
BRANCH  18  19
HETATM   19  C5  UNK     1      35.291  -5.567  36.523  1.00  0.00     0.175 C 
BRANCH  19  20
HETATM   20  C3  UNK     1      34.890  -5.507  35.055  1.00  0.00     0.026 C 
BRANCH  20  21
HETATM   21  C7  UNK     1      34.118  -4.231  34.734  1.00  0.00    -0.002 C 
HETATM   22  C13 UNK     1      32.627  -4.498  34.605  1.00  0.00     0.005 C 
ENDBRANCH  20  21
ENDBRANCH  19  20
ENDBRANCH  18  19
ENDBRANCH   6  18
TORSDOF 5
ENDMDL
MODEL 7
REMARK VINA RESULT:      -7.7     25.359     27.467
REMARK  5 active torsions:
REMARK  status: ('A' for Active; 'I' for Inactive)
REMARK    1  A    between atoms: C5_8  and  O1_1 
REMARK    2  A    between atoms: C6_9  and  O1_1 
REMARK    3  A    between atoms: C10_13  and  C2_5 
REMARK    4  A    between atoms: C3_6  and  C5_8 
REMARK    5  A    between atoms: C3_6  and  C7_10 
ROOT
HETATM    1  O2  UNK     1      16.034   6.064   9.962  1.00  0.00    -0.275 OA
HETATM    2  O3  UNK     1      15.785   3.793   9.880  1.00  0.00    -0.260 OA
HETATM    3  C1  UNK     1      14.285   7.484   9.025  1.00  0.00     0.009 A 
HETATM    4  C2  UNK     1      13.524   6.282   8.654  1.00  0.00    -0.007 A 
HETATM    5  C4  UNK     1      15.515   7.339   9.667  1.00  0.00     0.093 A 
HETATM    6  C6  UNK     1      15.821   9.721   9.778  1.00  0.00     0.071 A 
HETATM    7  C8  UNK     1      13.830   8.783   8.765  1.00  0.00     0.018 A 
HETATM    8  C9  UNK     1      16.288   8.437  10.046  1.00  0.00     0.075 A 
HETATM    9  C11 UNK     1      14.594   9.894   9.139  1.00  0.00     0.038 A 
HETATM   10  C12 UNK     1      14.047   5.081   8.950  1.00  0.00     0.095 A 
HETATM   11  C14 UNK     1      15.344   4.910   9.628  1.00  0.00     0.289 A 
ENDROOT
BRANCH   4  12
HETATM   12  C10 UNK     1      12.228   6.259   7.982  1.00  0.00    -0.025 A 
HETATM   13  C15 UNK     1      11.059   6.155   8.732  1.00  0.00     0.012 A 
HETATM   14  C17 UNK     1       9.822   6.132   8.089  1.00  0.00     0.001 A 
HETATM   15  C19 UNK     1       9.757   6.214   6.697  1.00  0.00     0.000 A 
HETATM   16  C18 UNK     1      10.930   6.318   5.949  1.00  0.00     0.001 A 
HETATM   17  C16 UNK     1      12.167   6.340   6.593  1.00  0.00     0.012 A 
ENDBRANCH   4  12
BRANCH   6  18
HETATM   18  O1  UNK     1      16.561  10.805  10.137  1.00  0.00    -0.351 OA
BRANCH  18  19
HETATM   19  C5  UNK     1      17.852  10.935   9.545  1.00  0.00     0.175 C 
BRANCH  19  20
HETATM   20  C3  UNK     1      17.720  11.714   8.243  1.00  0.00     0.026 C 
BRANCH  20  21
HETATM   21  C7  UNK     1      18.979  11.602   7.389  1.00  0.00    -0.002 C 
HETATM   22  C13 UNK     1      18.781  12.229   6.018  1.00  0.00     0.005 C 
ENDBRANCH  20  21
ENDBRANCH  19  20
ENDBRANCH  18  19
ENDBRANCH   6  18
TORSDOF 5
ENDMDL
MODEL 8
REMARK VINA RESULT:      -7.6     25.388     27.438
REMARK  5 active torsions:
REMARK  status: ('A' for Active; 'I' for Inactive)
REMARK    1  A    between atoms: C5_8  and  O1_1 
REMARK    2  A    between atoms: C6_9  and  O1_1 
REMARK    3  A    between atoms: C10_13  and  C2_5 
REMARK    4  A    between atoms: C3_6  and  C5_8 
REMARK    5  A    between atoms: C3_6  and  C7_10 
ROOT
HETATM    1  O2  UNK     1      16.020   6.102   9.975  1.00  0.00    -0.275 OA
HETATM    2  O3  UNK     1      15.816   3.830   9.830  1.00  0.00    -0.260 OA
HETATM    3  C1  UNK     1      14.247   7.513   9.073  1.00  0.00     0.009 A 
HETATM    4  C2  UNK     1      13.509   6.307   8.667  1.00  0.00    -0.007 A 
HETATM    5  C4  UNK     1      15.477   7.375   9.713  1.00  0.00     0.093 A 
HETATM    6  C6  UNK     1      15.737   9.758   9.890  1.00  0.00     0.071 A 
HETATM    7  C8  UNK     1      13.766   8.810   8.847  1.00  0.00     0.018 A 
HETATM    8  C9  UNK     1      16.228   8.477  10.124  1.00  0.00     0.075 A 
HETATM    9  C11 UNK     1      14.508   9.924   9.252  1.00  0.00     0.038 A 
HETATM   10  C12 UNK     1      14.055   5.109   8.931  1.00  0.00     0.095 A 
HETATM   11  C14 UNK     1      15.353   4.944   9.608  1.00  0.00     0.289 A 
ENDROOT
BRANCH   4  12
HETATM   12  C10 UNK     1      12.215   6.277   7.991  1.00  0.00    -0.025 A 
HETATM   13  C15 UNK     1      12.158   6.346   6.601  1.00  0.00     0.012 A 
HETATM   14  C17 UNK     1      10.923   6.318   5.956  1.00  0.00     0.001 A 
HETATM   15  C19 UNK     1       9.748   6.220   6.702  1.00  0.00     0.000 A 
HETATM   16  C18 UNK     1       9.809   6.151   8.094  1.00  0.00     0.001 A 
HETATM   17  C16 UNK     1      11.045   6.179   8.739  1.00  0.00     0.012 A 
ENDBRANCH   4  12
BRANCH   6  18
HETATM   18  O1  UNK     1      16.455  10.846  10.281  1.00  0.00    -0.351 OA
BRANCH  18  19
HETATM   19  C5  UNK     1      17.751  11.009   9.708  1.00  0.00     0.175 C 
BRANCH  19  20
HETATM   20  C3  UNK     1      17.599  11.542   8.290  1.00  0.00     0.026 C 
BRANCH  20  21
HETATM   21  C7  UNK     1      18.917  11.489   7.524  1.00  0.00    -0.002 C 
HETATM   22  C13 UNK     1      18.818  12.220   6.193  1.00  0.00     0.005 C 
ENDBRANCH  20  21
ENDBRANCH  19  20
ENDBRANCH  18  19
ENDBRANCH   6  18
TORSDOF 5
ENDMDL
MODEL 9
REMARK VINA RESULT:      -7.5      4.442      7.316
REMARK  5 active torsions:
REMARK  status: ('A' for Active; 'I' for Inactive)
REMARK    1  A    between atoms: C5_8  and  O1_1 
REMARK    2  A    between atoms: C6_9  and  O1_1 
REMARK    3  A    between atoms: C10_13  and  C2_5 
REMARK    4  A    between atoms: C3_6  and  C5_8 
REMARK    5  A    between atoms: C3_6  and  C7_10 
ROOT
HETATM    1  O2  UNK     1      18.294   1.692  31.392  1.00  0.00    -0.275 OA
HETATM    2  O3  UNK     1      18.300   2.669  29.325  1.00  0.00    -0.260 OA
HETATM    3  C1  UNK     1      18.343   3.112  33.375  1.00  0.00     0.009 A 
HETATM    4  C2  UNK     1      18.364   4.301  32.510  1.00  0.00    -0.007 A 
HETATM    5  C4  UNK     1      18.308   1.847  32.792  1.00  0.00     0.093 A 
HETATM    6  C6  UNK     1      18.299   0.773  34.943  1.00  0.00     0.071 A 
HETATM    7  C8  UNK     1      18.353   3.189  34.774  1.00  0.00     0.018 A 
HETATM    8  C9  UNK     1      18.287   0.678  33.554  1.00  0.00     0.075 A 
HETATM    9  C11 UNK     1      18.333   2.027  35.552  1.00  0.00     0.038 A 
HETATM   10  C12 UNK     1      18.350   4.119  31.179  1.00  0.00     0.095 A 
HETATM   11  C14 UNK     1      18.313   2.789  30.546  1.00  0.00     0.289 A 
ENDROOT
BRANCH   4  12
HETATM   12  C10 UNK     1      18.401   5.690  32.958  1.00  0.00    -0.025 A 
HETATM   13  C15 UNK     1      17.216   6.412  33.073  1.00  0.00     0.012 A 
HETATM   14  C17 UNK     1      17.252   7.739  33.501  1.00  0.00     0.001 A 
HETATM   15  C19 UNK     1      18.473   8.340  33.811  1.00  0.00     0.000 A 
HETATM   16  C18 UNK     1      19.658   7.613  33.694  1.00  0.00     0.001 A 
HETATM   17  C16 UNK     1      19.621   6.286  33.266  1.00  0.00     0.012 A 
ENDBRANCH   4  12
BRANCH   6  18
HETATM   18  O1  UNK     1      18.281  -0.354  35.704  1.00  0.00    -0.351 OA
BRANCH  18  19
HETATM   19  C5  UNK     1      17.956  -0.201  37.085  1.00  0.00     0.175 C 
BRANCH  19  20
HETATM   20  C3  UNK     1      18.261  -1.505  37.809  1.00  0.00     0.026 C 
BRANCH  20  21
HETATM   21  C7  UNK     1      18.755  -2.581  36.847  1.00  0.00    -0.002 C 
HETATM   22  C13 UNK     1      20.136  -3.085  37.235  1.00  0.00     0.005 C 
ENDBRANCH  20  21
ENDBRANCH  19  20
ENDBRANCH  18  19
ENDBRANCH   6  18
TORSDOF 5
ENDMDL
MODEL 10
REMARK VINA RESULT:      -7.5     12.432     14.429
REMARK  5 active torsions:
REMARK  status: ('A' for Active; 'I' for Inactive)
REMARK    1  A    between atoms: C5_8  and  O1_1 
REMARK    2  A    between atoms: C6_9  and  O1_1 
REMARK    3  A    between atoms: C10_13  and  C2_5 
REMARK    4  A    between atoms: C3_6  and  C5_8 
REMARK    5  A    between atoms: C3_6  and  C7_10 
ROOT
HETATM    1  O2  UNK     1      28.841  -5.511  39.460  1.00  0.00    -0.275 OA
HETATM    2  O3  UNK     1      29.365  -3.356  40.013  1.00  0.00    -0.260 OA
HETATM    3  C1  UNK     1      30.282  -6.721  37.907  1.00  0.00     0.009 A 
HETATM    4  C2  UNK     1      31.144  -5.534  37.800  1.00  0.00    -0.007 A 
HETATM    5  C4  UNK     1      29.159  -6.674  38.732  1.00  0.00     0.093 A 
HETATM    6  C6  UNK     1      28.568  -8.938  38.181  1.00  0.00     0.071 A 
HETATM    7  C8  UNK     1      30.538  -7.911  37.214  1.00  0.00     0.018 A 
HETATM    8  C9  UNK     1      28.300  -7.763  38.878  1.00  0.00     0.075 A 
HETATM    9  C11 UNK     1      29.685  -9.012  37.350  1.00  0.00     0.038 A 
HETATM   10  C12 UNK     1      30.813  -4.441  38.507  1.00  0.00     0.095 A 
HETATM   11  C14 UNK     1      29.631  -4.374  39.384  1.00  0.00     0.289 A 
ENDROOT
BRANCH   4  12
HETATM   12  C10 UNK     1      32.350  -5.418  36.985  1.00  0.00    -0.025 A 
HETATM   13  C15 UNK     1      33.560  -5.914  37.463  1.00  0.00     0.012 A 
HETATM   14  C17 UNK     1      34.711  -5.803  36.685  1.00  0.00     0.001 A 
HETATM   15  C19 UNK     1      34.649  -5.195  35.430  1.00  0.00     0.000 A 
HETATM   16  C18 UNK     1      33.436  -4.698  34.955  1.00  0.00     0.001 A 
HETATM   17  C16 UNK     1      32.284  -4.810  35.734  1.00  0.00     0.012 A 
ENDBRANCH   4  12
BRANCH   6  18
HETATM   18  O1  UNK     1      27.741 -10.011  38.309  1.00  0.00    -0.351 OA
BRANCH  18  19
HETATM   19  C5  UNK     1      26.416  -9.874  37.799  1.00  0.00     0.175 C 
BRANCH  19  20
HETATM   20  C3  UNK     1      26.306 -10.659  36.499  1.00  0.00     0.026 C 
BRANCH  20  21
HETATM   21  C7  UNK     1      24.856 -10.992  36.163  1.00  0.00    -0.002 C 
HETATM   22  C13 UNK     1      24.659 -12.487  35.963  1.00  0.00     0.005 C 
ENDBRANCH  20  21
ENDBRANCH  19  20
ENDBRANCH  18  19
ENDBRANCH   6  18
TORSDOF 5
ENDMDL
