MODEL 1
REMARK VINA RESULT:      -6.5      0.000      0.000
REMARK  2 active torsions:
REMARK  status: ('A' for Active; 'I' for Inactive)
REMARK    1  A    between atoms: C2_6  and  O1_2 
REMARK    2  A    between atoms: C7_11  and  O1_2 
ROOT
HETATM    1 Cl1  UNK     1      21.013  -3.521  31.767  1.00  0.00    -0.084 Cl
HETATM    2  O2  UNK     1      19.277   1.263  28.794  1.00  0.00    -0.275 OA
HETATM    3  O3  UNK     1      18.213   3.287  28.705  1.00  0.00    -0.260 OA
HETATM    4  C1  UNK     1      19.423   0.068  30.925  1.00  0.00     0.033 A 
HETATM    5  C2  UNK     1      18.719   1.195  31.548  1.00  0.00     0.087 A 
HETATM    6  C3  UNK     1      19.685   0.146  29.554  1.00  0.00     0.092 A 
HETATM    7  C4  UNK     1      19.841  -1.088  31.597  1.00  0.00     0.041 A 
HETATM    8  C5  UNK     1      20.348  -0.868  28.860  1.00  0.00     0.040 A 
HETATM    9  C6  UNK     1      18.328   2.238  30.810  1.00  0.00     0.120 A 
HETATM   10  C8  UNK     1      20.508  -2.112  30.915  1.00  0.00     0.035 A 
HETATM   11  C9  UNK     1      20.762  -2.002  29.549  1.00  0.00     0.026 A 
HETATM   12  C10 UNK     1      18.586   2.323  29.364  1.00  0.00     0.290 A 
ENDROOT
BRANCH   5  13
HETATM   13  O1  UNK     1      18.466   1.190  32.905  1.00  0.00    -0.350 OA
BRANCH  13  14
HETATM   14  C7  UNK     1      18.155   2.492  33.363  1.00  0.00     0.171 C 
HETATM   15  C11 UNK     1      18.443   2.575  34.847  1.00  0.00     0.034 C 
ENDBRANCH  13  14
ENDBRANCH   5  13
TORSDOF 2
ENDMDL
MODEL 2
REMARK VINA RESULT:      -6.3     12.973     14.833
REMARK  2 active torsions:
REMARK  status: ('A' for Active; 'I' for Inactive)
REMARK    1  A    between atoms: C2_6  and  O1_2 
REMARK    2  A    between atoms: C7_11  and  O1_2 
ROOT
HETATM    1 Cl1  UNK     1      33.405  -7.286  37.954  1.00  0.00    -0.084 Cl
HETATM    2  O2  UNK     1      28.113  -4.820  38.769  1.00  0.00    -0.275 OA
HETATM    3  O3  UNK     1      25.832  -4.963  38.857  1.00  0.00    -0.260 OA
HETATM    4  C1  UNK     1      29.434  -6.838  38.350  1.00  0.00     0.033 A 
HETATM    5  C2  UNK     1      28.177  -7.594  38.320  1.00  0.00     0.087 A 
HETATM    6  C3  UNK     1      29.357  -5.462  38.582  1.00  0.00     0.092 A 
HETATM    7  C4  UNK     1      30.707  -7.388  38.152  1.00  0.00     0.041 A 
HETATM    8  C5  UNK     1      30.489  -4.645  38.633  1.00  0.00     0.040 A 
HETATM    9  C6  UNK     1      27.008  -6.967  38.484  1.00  0.00     0.120 A 
HETATM   10  C8  UNK     1      31.852  -6.583  38.200  1.00  0.00     0.035 A 
HETATM   11  C9  UNK     1      31.743  -5.214  38.441  1.00  0.00     0.026 A 
HETATM   12  C10 UNK     1      26.916  -5.517  38.714  1.00  0.00     0.290 A 
ENDROOT
BRANCH   5  13
HETATM   13  O1  UNK     1      28.195  -8.961  38.131  1.00  0.00    -0.350 OA
BRANCH  13  14
HETATM   14  C7  UNK     1      27.248  -9.596  38.969  1.00  0.00     0.171 C 
HETATM   15  C11 UNK     1      27.956 -10.141  40.191  1.00  0.00     0.034 C 
ENDBRANCH  13  14
ENDBRANCH   5  13
TORSDOF 2
ENDMDL
MODEL 3
REMARK VINA RESULT:      -6.3      3.066      4.351
REMARK  2 active torsions:
REMARK  status: ('A' for Active; 'I' for Inactive)
REMARK    1  A    between atoms: C2_6  and  O1_2 
REMARK    2  A    between atoms: C7_11  and  O1_2 
ROOT
HETATM    1 Cl1  UNK     1      18.593   2.318  28.903  1.00  0.00    -0.084 Cl
HETATM    2  O2  UNK     1      20.624  -2.168  32.143  1.00  0.00    -0.275 OA
HETATM    3  O3  UNK     1      20.678  -3.365  34.092  1.00  0.00    -0.260 OA
HETATM    4  C1  UNK     1      19.109  -0.256  31.942  1.00  0.00     0.033 A 
HETATM    5  C2  UNK     1      18.638  -0.550  33.300  1.00  0.00     0.087 A 
HETATM    6  C3  UNK     1      20.093  -1.089  31.403  1.00  0.00     0.092 A 
HETATM    7  C4  UNK     1      18.657   0.806  31.147  1.00  0.00     0.041 A 
HETATM    8  C5  UNK     1      20.613  -0.903  30.120  1.00  0.00     0.040 A 
HETATM    9  C6  UNK     1      19.162  -1.567  33.991  1.00  0.00     0.120 A 
HETATM   10  C8  UNK     1      19.169   1.006  29.860  1.00  0.00     0.035 A 
HETATM   11  C9  UNK     1      20.144   0.153  29.346  1.00  0.00     0.026 A 
HETATM   12  C10 UNK     1      20.208  -2.441  33.438  1.00  0.00     0.290 A 
ENDROOT
BRANCH   5  13
HETATM   13  O1  UNK     1      17.641   0.217  33.869  1.00  0.00    -0.350 OA
BRANCH  13  14
HETATM   14  C7  UNK     1      17.188  -0.365  35.077  1.00  0.00     0.171 C 
HETATM   15  C11 UNK     1      15.824   0.199  35.414  1.00  0.00     0.034 C 
ENDBRANCH  13  14
ENDBRANCH   5  13
TORSDOF 2
ENDMDL
MODEL 4
REMARK VINA RESULT:      -6.2      3.958      5.598
REMARK  2 active torsions:
REMARK  status: ('A' for Active; 'I' for Inactive)
REMARK    1  A    between atoms: C2_6  and  O1_2 
REMARK    2  A    between atoms: C7_11  and  O1_2 
ROOT
HETATM    1 Cl1  UNK     1      18.547   7.371  34.826  1.00  0.00    -0.084 Cl
HETATM    2  O2  UNK     1      19.017   3.999  30.014  1.00  0.00    -0.275 OA
HETATM    3  O3  UNK     1      18.847   1.972  28.966  1.00  0.00    -0.260 OA
HETATM    4  C1  UNK     1      18.387   4.197  32.371  1.00  0.00     0.033 A 
HETATM    5  C2  UNK     1      18.025   2.776  32.342  1.00  0.00     0.087 A 
HETATM    6  C3  UNK     1      18.871   4.767  31.189  1.00  0.00     0.092 A 
HETATM    7  C4  UNK     1      18.298   5.026  33.497  1.00  0.00     0.041 A 
HETATM    8  C5  UNK     1      19.245   6.110  31.103  1.00  0.00     0.040 A 
HETATM    9  C6  UNK     1      18.183   2.062  31.224  1.00  0.00     0.120 A 
HETATM   10  C8  UNK     1      18.669   6.374  33.426  1.00  0.00     0.035 A 
HETATM   11  C9  UNK     1      19.140   6.916  32.231  1.00  0.00     0.026 A 
HETATM   12  C10 UNK     1      18.705   2.648  29.979  1.00  0.00     0.290 A 
ENDROOT
BRANCH   5  13
HETATM   13  O1  UNK     1      17.507   2.169  33.469  1.00  0.00    -0.350 OA
BRANCH  13  14
HETATM   14  C7  UNK     1      18.394   1.182  33.959  1.00  0.00     0.171 C 
HETATM   15  C11 UNK     1      18.594   1.393  35.445  1.00  0.00     0.034 C 
ENDBRANCH  13  14
ENDBRANCH   5  13
TORSDOF 2
ENDMDL
MODEL 5
REMARK VINA RESULT:      -6.2      7.567      9.344
REMARK  2 active torsions:
REMARK  status: ('A' for Active; 'I' for Inactive)
REMARK    1  A    between atoms: C2_6  and  O1_2 
REMARK    2  A    between atoms: C7_11  and  O1_2 
ROOT
HETATM    1 Cl1  UNK     1      20.660   9.515  34.641  1.00  0.00    -0.084 Cl
HETATM    2  O2  UNK     1      16.036   6.701  32.308  1.00  0.00    -0.275 OA
HETATM    3  O3  UNK     1      13.822   6.621  31.737  1.00  0.00    -0.260 OA
HETATM    4  C1  UNK     1      16.952   8.738  33.308  1.00  0.00     0.033 A 
HETATM    5  C2  UNK     1      15.623   9.343  33.172  1.00  0.00     0.087 A 
HETATM    6  C3  UNK     1      17.116   7.424  32.860  1.00  0.00     0.092 A 
HETATM    7  C4  UNK     1      18.071   9.372  33.866  1.00  0.00     0.041 A 
HETATM    8  C5  UNK     1      18.336   6.750  32.941  1.00  0.00     0.040 A 
HETATM    9  C6  UNK     1      14.610   8.639  32.660  1.00  0.00     0.120 A 
HETATM   10  C8  UNK     1      19.301   8.710  33.953  1.00  0.00     0.035 A 
HETATM   11  C9  UNK     1      19.435   7.402  33.490  1.00  0.00     0.026 A 
HETATM   12  C10 UNK     1      14.767   7.251  32.199  1.00  0.00     0.290 A 
ENDROOT
BRANCH   5  13
HETATM   13  O1  UNK     1      15.413  10.651  33.564  1.00  0.00    -0.350 OA
BRANCH  13  14
HETATM   14  C7  UNK     1      14.174  10.781  34.232  1.00  0.00     0.171 C 
HETATM   15  C11 UNK     1      14.411  10.729  35.726  1.00  0.00     0.034 C 
ENDBRANCH  13  14
ENDBRANCH   5  13
TORSDOF 2
ENDMDL
MODEL 6
REMARK VINA RESULT:      -6.2      6.853      9.174
REMARK  2 active torsions:
REMARK  status: ('A' for Active; 'I' for Inactive)
REMARK    1  A    between atoms: C2_6  and  O1_2 
REMARK    2  A    between atoms: C7_11  and  O1_2 
ROOT
HETATM    1 Cl1  UNK     1      13.877   7.036  32.050  1.00  0.00    -0.084 Cl
HETATM    2  O2  UNK     1      18.698   9.665  34.192  1.00  0.00    -0.275 OA
HETATM    3  O3  UNK     1      20.927   9.643  34.707  1.00  0.00    -0.260 OA
HETATM    4  C1  UNK     1      17.690   7.715  33.109  1.00  0.00     0.033 A 
HETATM    5  C2  UNK     1      19.019   7.091  33.108  1.00  0.00     0.087 A 
HETATM    6  C3  UNK     1      17.577   8.998  33.652  1.00  0.00     0.092 A 
HETATM    7  C4  UNK     1      16.522   7.117  32.618  1.00  0.00     0.041 A 
HETATM    8  C5  UNK     1      16.363   9.685  33.705  1.00  0.00     0.040 A 
HETATM    9  C6  UNK     1      20.065   7.732  33.636  1.00  0.00     0.120 A 
HETATM   10  C8  UNK     1      15.297   7.794  32.663  1.00  0.00     0.035 A 
HETATM   11  C9  UNK     1      15.217   9.076  33.204  1.00  0.00     0.026 A 
HETATM   12  C10 UNK     1      19.954   9.076  34.223  1.00  0.00     0.290 A 
ENDROOT
BRANCH   5  13
HETATM   13  O1  UNK     1      19.197   5.841  32.550  1.00  0.00    -0.350 OA
BRANCH  13  14
HETATM   14  C7  UNK     1      20.125   5.895  31.485  1.00  0.00     0.171 C 
HETATM   15  C11 UNK     1      19.369   5.945  30.174  1.00  0.00     0.034 C 
ENDBRANCH  13  14
ENDBRANCH   5  13
TORSDOF 2
ENDMDL
MODEL 7
REMARK VINA RESULT:      -6.1      8.482     10.105
REMARK  2 active torsions:
REMARK  status: ('A' for Active; 'I' for Inactive)
REMARK    1  A    between atoms: C2_6  and  O1_2 
REMARK    2  A    between atoms: C7_11  and  O1_2 
ROOT
HETATM    1 Cl1  UNK     1      19.772 -10.133  39.814  1.00  0.00    -0.084 Cl
HETATM    2  O2  UNK     1      21.188  -8.628  34.294  1.00  0.00    -0.275 OA
HETATM    3  O3  UNK     1      21.136  -7.152  32.546  1.00  0.00    -0.260 OA
HETATM    4  C1  UNK     1      20.149  -8.015  36.423  1.00  0.00     0.033 A 
HETATM    5  C2  UNK     1      19.813  -6.717  35.828  1.00  0.00     0.087 A 
HETATM    6  C3  UNK     1      20.839  -8.934  35.627  1.00  0.00     0.092 A 
HETATM    7  C4  UNK     1      19.821  -8.410  37.727  1.00  0.00     0.041 A 
HETATM    8  C5  UNK     1      21.210 -10.198  36.090  1.00  0.00     0.040 A 
HETATM    9  C6  UNK     1      20.139  -6.450  34.560  1.00  0.00     0.120 A 
HETATM   10  C8  UNK     1      20.187  -9.674  38.206  1.00  0.00     0.035 A 
HETATM   11  C9  UNK     1      20.881 -10.566  37.390  1.00  0.00     0.026 A 
HETATM   12  C10 UNK     1      20.852  -7.416  33.709  1.00  0.00     0.290 A 
ENDROOT
BRANCH   5  13
HETATM   13  O1  UNK     1      19.165  -5.757  36.580  1.00  0.00    -0.350 OA
BRANCH  13  14
HETATM   14  C7  UNK     1      20.056  -4.721  36.946  1.00  0.00     0.171 C 
HETATM   15  C11 UNK     1      19.411  -3.385  36.645  1.00  0.00     0.034 C 
ENDBRANCH  13  14
ENDBRANCH   5  13
TORSDOF 2
ENDMDL
MODEL 8
REMARK VINA RESULT:      -6.1      3.713      5.890
REMARK  2 active torsions:
REMARK  status: ('A' for Active; 'I' for Inactive)
REMARK    1  A    between atoms: C2_6  and  O1_2 
REMARK    2  A    between atoms: C7_11  and  O1_2 
ROOT
HETATM    1 Cl1  UNK     1      16.373   1.085  36.871  1.00  0.00    -0.084 Cl
HETATM    2  O2  UNK     1      20.267  -2.652  34.501  1.00  0.00    -0.275 OA
HETATM    3  O3  UNK     1      21.371  -3.509  32.690  1.00  0.00    -0.260 OA
HETATM    4  C1  UNK     1      18.702  -0.795  34.194  1.00  0.00     0.033 A 
HETATM    5  C2  UNK     1      19.045  -0.808  32.768  1.00  0.00     0.087 A 
HETATM    6  C3  UNK     1      19.338  -1.725  35.022  1.00  0.00     0.092 A 
HETATM    7  C4  UNK     1      17.776   0.071  34.790  1.00  0.00     0.041 A 
HETATM    8  C5  UNK     1      19.088  -1.802  36.393  1.00  0.00     0.040 A 
HETATM    9  C6  UNK     1      19.916  -1.702  32.291  1.00  0.00     0.120 A 
HETATM   10  C8  UNK     1      17.516   0.007  36.164  1.00  0.00     0.035 A 
HETATM   11  C9  UNK     1      18.171  -0.927  36.965  1.00  0.00     0.026 A 
HETATM   12  C10 UNK     1      20.579  -2.694  33.150  1.00  0.00     0.290 A 
ENDROOT
BRANCH   5  13
HETATM   13  O1  UNK     1      18.476   0.113  31.910  1.00  0.00    -0.350 OA
BRANCH  13  14
HETATM   14  C7  UNK     1      19.398   0.503  30.910  1.00  0.00     0.171 C 
HETATM   15  C11 UNK     1      18.807   1.647  30.114  1.00  0.00     0.034 C 
ENDBRANCH  13  14
ENDBRANCH   5  13
TORSDOF 2
ENDMDL
MODEL 9
REMARK VINA RESULT:      -6.1      6.538      8.841
REMARK  2 active torsions:
REMARK  status: ('A' for Active; 'I' for Inactive)
REMARK    1  A    between atoms: C2_6  and  O1_2 
REMARK    2  A    between atoms: C7_11  and  O1_2 
ROOT
HETATM    1 Cl1  UNK     1      20.798   9.719  34.631  1.00  0.00    -0.084 Cl
HETATM    2  O2  UNK     1      15.398   8.316  32.730  1.00  0.00    -0.275 OA
HETATM    3  O3  UNK     1      13.945   6.862  31.724  1.00  0.00    -0.260 OA
HETATM    4  C1  UNK     1      17.730   7.654  33.068  1.00  0.00     0.033 A 
HETATM    5  C2  UNK     1      17.395   6.356  32.469  1.00  0.00     0.087 A 
HETATM    6  C3  UNK     1      16.705   8.597  33.184  1.00  0.00     0.092 A 
HETATM    7  C4  UNK     1      19.002   8.025  33.521  1.00  0.00     0.041 A 
HETATM    8  C5  UNK     1      16.910   9.863  33.738  1.00  0.00     0.040 A 
HETATM    9  C6  UNK     1      16.156   6.114  32.033  1.00  0.00     0.120 A 
HETATM   10  C8  UNK     1      19.223   9.290  34.080  1.00  0.00     0.035 A 
HETATM   11  C9  UNK     1      18.179  10.207  34.189  1.00  0.00     0.026 A 
HETATM   12  C10 UNK     1      15.074   7.105  32.137  1.00  0.00     0.290 A 
ENDROOT
BRANCH   5  13
HETATM   13  O1  UNK     1      18.359   5.373  32.363  1.00  0.00    -0.350 OA
BRANCH  13  14
HETATM   14  C7  UNK     1      18.746   5.193  31.015  1.00  0.00     0.171 C 
HETATM   15  C11 UNK     1      20.173   5.668  30.843  1.00  0.00     0.034 C 
ENDBRANCH  13  14
ENDBRANCH   5  13
TORSDOF 2
ENDMDL
MODEL 10
REMARK VINA RESULT:      -6.0      2.276      3.946
REMARK  2 active torsions:
REMARK  status: ('A' for Active; 'I' for Inactive)
REMARK    1  A    between atoms: C2_6  and  O1_2 
REMARK    2  A    between atoms: C7_11  and  O1_2 
ROOT
HETATM    1 Cl1  UNK     1      20.484  -0.586  28.685  1.00  0.00    -0.084 Cl
HETATM    2  O2  UNK     1      19.066  -1.182  34.375  1.00  0.00    -0.275 OA
HETATM    3  O3  UNK     1      18.166  -0.357  36.310  1.00  0.00    -0.260 OA
HETATM    4  C1  UNK     1      19.008   0.177  32.341  1.00  0.00     0.033 A 
HETATM    5  C2  UNK     1      18.292   1.204  33.107  1.00  0.00     0.087 A 
HETATM    6  C3  UNK     1      19.369  -0.996  33.009  1.00  0.00     0.092 A 
HETATM    7  C4  UNK     1      19.370   0.288  30.992  1.00  0.00     0.041 A 
HETATM    8  C5  UNK     1      20.052  -2.039  32.378  1.00  0.00     0.040 A 
HETATM    9  C6  UNK     1      18.027   1.016  34.403  1.00  0.00     0.120 A 
HETATM   10  C8  UNK     1      20.054  -0.749  30.345  1.00  0.00     0.035 A 
HETATM   11  C9  UNK     1      20.393  -1.910  31.036  1.00  0.00     0.026 A 
HETATM   12  C10 UNK     1      18.415  -0.209  35.119  1.00  0.00     0.290 A 
ENDROOT
BRANCH   5  13
HETATM   13  O1  UNK     1      17.878   2.367  32.489  1.00  0.00    -0.350 OA
BRANCH  13  14
HETATM   14  C7  UNK     1      18.191   3.495  33.282  1.00  0.00     0.171 C 
HETATM   15  C11 UNK     1      18.037   4.746  32.444  1.00  0.00     0.034 C 
ENDBRANCH  13  14
ENDBRANCH   5  13
TORSDOF 2
ENDMDL
