MODEL 1
REMARK VINA RESULT:      -9.0      0.000      0.000
REMARK  2 active torsions:
REMARK  status: ('A' for Active; 'I' for Inactive)
REMARK       I    between atoms: C6_12  and  N1_5 
REMARK    1  A    between atoms: C9_15  and  N1_5 
REMARK    2  A    between atoms: C2_8  and  C6_12 
ROOT
HETATM    1  O1  UNK     1      19.401   7.336  32.626  1.00  0.00    -0.274 OA
HETATM    2  O4  UNK     1      20.532   5.605  31.653  1.00  0.00    -0.259 OA
HETATM    3  C1  UNK     1      17.067   7.052  33.242  1.00  0.00    -0.001 A 
HETATM    4  C2  UNK     1      18.262   5.214  32.209  1.00  0.00     0.108 A 
HETATM    5  C3  UNK     1      18.208   7.844  33.177  1.00  0.00     0.089 A 
HETATM    6  C4  UNK     1      17.125   5.691  32.731  1.00  0.00     0.037 A 
HETATM    7  C5  UNK     1      15.902   7.590  33.794  1.00  0.00     0.014 A 
HETATM    8  C7  UNK     1      19.489   6.039  32.131  1.00  0.00     0.304 A 
HETATM    9  C8  UNK     1      18.219   9.155  33.648  1.00  0.00     0.038 A 
HETATM   10  C10 UNK     1      15.897   8.905  34.270  1.00  0.00     0.001 A 
HETATM   11  C11 UNK     1      17.054   9.685  34.197  1.00  0.00     0.003 A 
ENDROOT
BRANCH   4  12
HETATM   12  C6  UNK     1      18.221   3.830  31.721  1.00  0.00     0.263 C 
HETATM   13  O3  UNK     1      17.864   2.927  32.476  1.00  0.00    -0.267 OA
HETATM   14  N1  UNK     1      18.618   3.730  30.395  1.00  0.00    -0.305 N 
HETATM   15  H4  UNK     1      18.909   4.564  29.891  1.00  0.00     0.170 HD
BRANCH  14  16
HETATM   16  C9  UNK     1      18.702   2.558  29.604  1.00  0.00     0.160 A 
HETATM   17  C12 UNK     1      19.512   1.480  29.924  1.00  0.00     0.087 A 
HETATM   18  C13 UNK     1      19.267   0.609  28.896  1.00  0.00     0.078 A 
HETATM   19  O2  UNK     1      18.368   1.157  28.039  1.00  0.00    -0.216 OA
HETATM   20  C14 UNK     1      19.760  -0.732  28.561  1.00  0.00     0.079 C 
HETATM   21  N2  UNK     1      18.004   2.416  28.497  1.00  0.00    -0.110 NA
ENDBRANCH  14  16
ENDBRANCH   4  12
TORSDOF 2
ENDMDL
MODEL 2
REMARK VINA RESULT:      -8.7      1.799      7.556
REMARK  2 active torsions:
REMARK  status: ('A' for Active; 'I' for Inactive)
REMARK       I    between atoms: C6_12  and  N1_5 
REMARK    1  A    between atoms: C9_15  and  N1_5 
REMARK    2  A    between atoms: C2_8  and  C6_12 
ROOT
HETATM    1  O1  UNK     1      19.070   1.436  28.711  1.00  0.00    -0.274 OA
HETATM    2  O4  UNK     1      18.247   3.565  28.814  1.00  0.00    -0.259 OA
HETATM    3  C1  UNK     1      19.543   0.230  30.768  1.00  0.00    -0.001 A 
HETATM    4  C2  UNK     1      18.671   2.488  30.881  1.00  0.00     0.108 A 
HETATM    5  C3  UNK     1      19.519   0.280  29.378  1.00  0.00     0.089 A 
HETATM    6  C4  UNK     1      19.097   1.392  31.521  1.00  0.00     0.037 A 
HETATM    7  C5  UNK     1      19.995  -0.934  31.394  1.00  0.00     0.014 A 
HETATM    8  C7  UNK     1      18.636   2.562  29.403  1.00  0.00     0.304 A 
HETATM    9  C8  UNK     1      19.933  -0.798  28.598  1.00  0.00     0.038 A 
HETATM   10  C10 UNK     1      20.415  -2.024  30.624  1.00  0.00     0.001 A 
HETATM   11  C11 UNK     1      20.382  -1.956  29.230  1.00  0.00     0.003 A 
ENDROOT
BRANCH   4  12
HETATM   12  C6  UNK     1      18.241   3.607  31.729  1.00  0.00     0.263 C 
HETATM   13  O3  UNK     1      17.623   3.383  32.768  1.00  0.00    -0.267 OA
HETATM   14  N1  UNK     1      18.614   4.835  31.202  1.00  0.00    -0.305 N 
HETATM   15  H4  UNK     1      19.109   4.875  30.315  1.00  0.00     0.170 HD
BRANCH  14  16
HETATM   16  C9  UNK     1      18.367   6.120  31.746  1.00  0.00     0.160 A 
HETATM   17  C12 UNK     1      19.057   6.631  32.833  1.00  0.00     0.087 A 
HETATM   18  C13 UNK     1      18.489   7.867  32.991  1.00  0.00     0.078 A 
HETATM   19  O2  UNK     1      17.530   8.052  32.048  1.00  0.00    -0.216 OA
HETATM   20  C14 UNK     1      18.706   8.972  33.932  1.00  0.00     0.079 C 
HETATM   21  N2  UNK     1      17.452   6.922  31.244  1.00  0.00    -0.110 NA
ENDBRANCH  14  16
ENDBRANCH   4  12
TORSDOF 2
ENDMDL
MODEL 3
REMARK VINA RESULT:      -8.7      8.894     10.103
REMARK  2 active torsions:
REMARK  status: ('A' for Active; 'I' for Inactive)
REMARK       I    between atoms: C6_12  and  N1_5 
REMARK    1  A    between atoms: C9_15  and  N1_5 
REMARK    2  A    between atoms: C2_8  and  C6_12 
ROOT
HETATM    1  O1  UNK     1      19.549  -0.885  34.822  1.00  0.00    -0.274 OA
HETATM    2  O4  UNK     1      20.594  -2.801  34.144  1.00  0.00    -0.259 OA
HETATM    3  C1  UNK     1      18.441  -0.822  36.985  1.00  0.00    -0.001 A 
HETATM    4  C2  UNK     1      19.547  -2.855  36.269  1.00  0.00     0.108 A 
HETATM    5  C3  UNK     1      18.805  -0.194  35.798  1.00  0.00     0.089 A 
HETATM    6  C4  UNK     1      18.840  -2.203  37.201  1.00  0.00     0.037 A 
HETATM    7  C5  UNK     1      17.703  -0.104  37.929  1.00  0.00     0.014 A 
HETATM    8  C7  UNK     1      19.946  -2.207  35.000  1.00  0.00     0.304 A 
HETATM    9  C8  UNK     1      18.454   1.127  35.530  1.00  0.00     0.038 A 
HETATM   10  C10 UNK     1      17.343   1.223  37.673  1.00  0.00     0.001 A 
HETATM   11  C11 UNK     1      17.718   1.837  36.476  1.00  0.00     0.003 A 
ENDROOT
BRANCH   4  12
HETATM   12  C6  UNK     1      19.903  -4.245  36.580  1.00  0.00     0.263 C 
HETATM   13  O3  UNK     1      21.060  -4.525  36.889  1.00  0.00    -0.267 OA
HETATM   14  N1  UNK     1      18.816  -5.100  36.472  1.00  0.00    -0.305 N 
HETATM   15  H4  UNK     1      17.912  -4.734  36.186  1.00  0.00     0.170 HD
BRANCH  14  16
HETATM   16  C9  UNK     1      18.791  -6.499  36.696  1.00  0.00     0.160 A 
HETATM   17  C12 UNK     1      19.062  -7.079  37.924  1.00  0.00     0.087 A 
HETATM   18  C13 UNK     1      18.920  -8.415  37.661  1.00  0.00     0.078 A 
HETATM   19  O2  UNK     1      18.585  -8.589  36.356  1.00  0.00    -0.216 OA
HETATM   20  C14 UNK     1      19.051  -9.630  38.473  1.00  0.00     0.079 C 
HETATM   21  N2  UNK     1      18.502  -7.351  35.734  1.00  0.00    -0.110 NA
ENDBRANCH  14  16
ENDBRANCH   4  12
TORSDOF 2
ENDMDL
MODEL 4
REMARK VINA RESULT:      -8.6      1.350      1.766
REMARK  2 active torsions:
REMARK  status: ('A' for Active; 'I' for Inactive)
REMARK       I    between atoms: C6_12  and  N1_5 
REMARK    1  A    between atoms: C9_15  and  N1_5 
REMARK    2  A    between atoms: C2_8  and  C6_12 
ROOT
HETATM    1  O1  UNK     1      17.381   6.011  34.246  1.00  0.00    -0.274 OA
HETATM    2  O4  UNK     1      18.676   4.169  33.855  1.00  0.00    -0.259 OA
HETATM    3  C1  UNK     1      16.664   7.394  32.380  1.00  0.00    -0.001 A 
HETATM    4  C2  UNK     1      18.038   5.442  31.961  1.00  0.00     0.108 A 
HETATM    5  C3  UNK     1      16.684   7.127  33.745  1.00  0.00     0.089 A 
HETATM    6  C4  UNK     1      17.377   6.502  31.479  1.00  0.00     0.037 A 
HETATM    7  C5  UNK     1      15.962   8.511  31.920  1.00  0.00     0.014 A 
HETATM    8  C7  UNK     1      18.071   5.139  33.410  1.00  0.00     0.304 A 
HETATM    9  C8  UNK     1      16.022   7.943  34.661  1.00  0.00     0.038 A 
HETATM   10  C10 UNK     1      15.294   9.339  32.827  1.00  0.00     0.001 A 
HETATM   11  C11 UNK     1      15.324   9.054  34.195  1.00  0.00     0.003 A 
ENDROOT
BRANCH   4  12
HETATM   12  C6  UNK     1      18.725   4.602  30.973  1.00  0.00     0.263 C 
HETATM   13  O3  UNK     1      19.753   5.008  30.434  1.00  0.00    -0.267 OA
HETATM   14  N1  UNK     1      18.075   3.392  30.774  1.00  0.00    -0.305 N 
HETATM   15  H4  UNK     1      17.215   3.191  31.277  1.00  0.00     0.170 HD
BRANCH  14  16
HETATM   16  C9  UNK     1      18.451   2.343  29.899  1.00  0.00     0.160 A 
HETATM   17  C12 UNK     1      19.305   1.315  30.265  1.00  0.00     0.087 A 
HETATM   18  C13 UNK     1      19.370   0.562  29.122  1.00  0.00     0.078 A 
HETATM   19  O2  UNK     1      18.598   1.127  28.159  1.00  0.00    -0.216 OA
HETATM   20  C14 UNK     1      20.076  -0.672  28.758  1.00  0.00     0.079 C 
HETATM   21  N2  UNK     1      18.004   2.277  28.662  1.00  0.00    -0.110 NA
ENDBRANCH  14  16
ENDBRANCH   4  12
TORSDOF 2
ENDMDL
MODEL 5
REMARK VINA RESULT:      -8.4     10.156     13.496
REMARK  2 active torsions:
REMARK  status: ('A' for Active; 'I' for Inactive)
REMARK       I    between atoms: C6_12  and  N1_5 
REMARK    1  A    between atoms: C9_15  and  N1_5 
REMARK    2  A    between atoms: C2_8  and  C6_12 
ROOT
HETATM    1  O1  UNK     1      19.997  -7.915  35.668  1.00  0.00    -0.274 OA
HETATM    2  O4  UNK     1      20.188  -5.973  34.478  1.00  0.00    -0.259 OA
HETATM    3  C1  UNK     1      19.889  -7.831  38.095  1.00  0.00    -0.001 A 
HETATM    4  C2  UNK     1      20.092  -5.769  36.837  1.00  0.00     0.108 A 
HETATM    5  C3  UNK     1      19.893  -8.564  36.913  1.00  0.00     0.089 A 
HETATM    6  C4  UNK     1      19.993  -6.381  38.023  1.00  0.00     0.037 A 
HETATM    7  C5  UNK     1      19.785  -8.510  39.311  1.00  0.00     0.014 A 
HETATM    8  C7  UNK     1      20.098  -6.530  35.567  1.00  0.00     0.304 A 
HETATM    9  C8  UNK     1      19.796  -9.954  36.912  1.00  0.00     0.038 A 
HETATM   10  C10 UNK     1      19.687  -9.905  39.326  1.00  0.00     0.001 A 
HETATM   11  C11 UNK     1      19.692 -10.625  38.129  1.00  0.00     0.003 A 
ENDROOT
BRANCH   4  12
HETATM   12  C6  UNK     1      20.192  -4.305  36.868  1.00  0.00     0.263 C 
HETATM   13  O3  UNK     1      21.284  -3.772  37.054  1.00  0.00    -0.267 OA
HETATM   14  N1  UNK     1      18.962  -3.692  36.673  1.00  0.00    -0.305 N 
HETATM   15  H4  UNK     1      18.129  -4.261  36.550  1.00  0.00     0.170 HD
BRANCH  14  16
HETATM   16  C9  UNK     1      18.684  -2.304  36.643  1.00  0.00     0.160 A 
HETATM   17  C12 UNK     1      18.046  -1.633  37.674  1.00  0.00     0.087 A 
HETATM   18  C13 UNK     1      18.000  -0.346  37.208  1.00  0.00     0.078 A 
HETATM   19  O2  UNK     1      18.579  -0.285  35.981  1.00  0.00    -0.216 OA
HETATM   20  C14 UNK     1      17.474   0.913  37.749  1.00  0.00     0.079 C 
HETATM   21  N2  UNK     1      19.020  -1.550  35.618  1.00  0.00    -0.110 NA
ENDBRANCH  14  16
ENDBRANCH   4  12
TORSDOF 2
ENDMDL
MODEL 6
REMARK VINA RESULT:      -8.4      1.358      2.168
REMARK  2 active torsions:
REMARK  status: ('A' for Active; 'I' for Inactive)
REMARK       I    between atoms: C6_12  and  N1_5 
REMARK    1  A    between atoms: C9_15  and  N1_5 
REMARK    2  A    between atoms: C2_8  and  C6_12 
ROOT
HETATM    1  O1  UNK     1      16.904   7.585  32.851  1.00  0.00    -0.274 OA
HETATM    2  O4  UNK     1      15.760   5.830  31.939  1.00  0.00    -0.259 OA
HETATM    3  C1  UNK     1      19.263   7.335  33.381  1.00  0.00    -0.001 A 
HETATM    4  C2  UNK     1      18.053   5.472  32.414  1.00  0.00     0.108 A 
HETATM    5  C3  UNK     1      18.110   8.112  33.351  1.00  0.00     0.089 A 
HETATM    6  C4  UNK     1      19.202   5.968  32.888  1.00  0.00     0.037 A 
HETATM    7  C5  UNK     1      20.440   7.894  33.885  1.00  0.00     0.014 A 
HETATM    8  C7  UNK     1      16.815   6.281  32.372  1.00  0.00     0.304 A 
HETATM    9  C8  UNK     1      18.101   9.429  33.808  1.00  0.00     0.038 A 
HETATM   10  C10 UNK     1      20.446   9.213  34.348  1.00  0.00     0.001 A 
HETATM   11  C11 UNK     1      19.279   9.978  34.309  1.00  0.00     0.003 A 
ENDROOT
BRANCH   4  12
HETATM   12  C6  UNK     1      18.093   4.083  31.939  1.00  0.00     0.263 C 
HETATM   13  O3  UNK     1      17.799   3.167  32.705  1.00  0.00    -0.267 OA
HETATM   14  N1  UNK     1      18.483   3.996  30.610  1.00  0.00    -0.305 N 
HETATM   15  H4  UNK     1      18.718   4.841  30.096  1.00  0.00     0.170 HD
BRANCH  14  16
HETATM   16  C9  UNK     1      18.632   2.824  29.829  1.00  0.00     0.160 A 
HETATM   17  C12 UNK     1      19.432   1.756  30.202  1.00  0.00     0.087 A 
HETATM   18  C13 UNK     1      19.264   0.881  29.162  1.00  0.00     0.078 A 
HETATM   19  O2  UNK     1      18.416   1.417  28.247  1.00  0.00    -0.216 OA
HETATM   20  C14 UNK     1      19.794  -0.454  28.863  1.00  0.00     0.079 C 
HETATM   21  N2  UNK     1      18.008   2.672  28.679  1.00  0.00    -0.110 NA
ENDBRANCH  14  16
ENDBRANCH   4  12
TORSDOF 2
ENDMDL
MODEL 7
REMARK VINA RESULT:      -8.4      2.005      7.617
REMARK  2 active torsions:
REMARK  status: ('A' for Active; 'I' for Inactive)
REMARK       I    between atoms: C6_12  and  N1_5 
REMARK    1  A    between atoms: C9_15  and  N1_5 
REMARK    2  A    between atoms: C2_8  and  C6_12 
ROOT
HETATM    1  O1  UNK     1      18.683   0.519  32.617  1.00  0.00    -0.274 OA
HETATM    2  O4  UNK     1      17.843   2.402  33.602  1.00  0.00    -0.259 OA
HETATM    3  C1  UNK     1      19.559   0.636  30.353  1.00  0.00    -0.001 A 
HETATM    4  C2  UNK     1      18.668   2.635  31.394  1.00  0.00     0.108 A 
HETATM    5  C3  UNK     1      19.276  -0.098  31.499  1.00  0.00     0.089 A 
HETATM    6  C4  UNK     1      19.232   2.054  30.328  1.00  0.00     0.037 A 
HETATM    7  C5  UNK     1      20.147  -0.011  29.264  1.00  0.00     0.014 A 
HETATM    8  C7  UNK     1      18.359   1.872  32.624  1.00  0.00     0.304 A 
HETATM    9  C8  UNK     1      19.564  -1.459  31.588  1.00  0.00     0.038 A 
HETATM   10  C10 UNK     1      20.441  -1.376  29.338  1.00  0.00     0.001 A 
HETATM   11  C11 UNK     1      20.150  -2.098  30.498  1.00  0.00     0.003 A 
ENDROOT
BRANCH   4  12
HETATM   12  C6  UNK     1      18.377   4.069  31.272  1.00  0.00     0.263 C 
HETATM   13  O3  UNK     1      18.661   4.664  30.233  1.00  0.00    -0.267 OA
HETATM   14  N1  UNK     1      17.787   4.582  32.418  1.00  0.00    -0.305 N 
HETATM   15  H4  UNK     1      17.626   3.976  33.218  1.00  0.00     0.170 HD
BRANCH  14  16
HETATM   16  C9  UNK     1      17.375   5.917  32.654  1.00  0.00     0.160 A 
HETATM   17  C12 UNK     1      18.174   6.862  33.277  1.00  0.00     0.087 A 
HETATM   18  C13 UNK     1      17.373   7.972  33.282  1.00  0.00     0.078 A 
HETATM   19  O2  UNK     1      16.184   7.679  32.694  1.00  0.00    -0.216 OA
HETATM   20  C14 UNK     1      17.542   9.345  33.772  1.00  0.00     0.079 C 
HETATM   21  N2  UNK     1      16.187   6.351  32.289  1.00  0.00    -0.110 NA
ENDBRANCH  14  16
ENDBRANCH   4  12
TORSDOF 2
ENDMDL
MODEL 8
REMARK VINA RESULT:      -8.2     14.349     17.134
REMARK  2 active torsions:
REMARK  status: ('A' for Active; 'I' for Inactive)
REMARK       I    between atoms: C6_12  and  N1_5 
REMARK    1  A    between atoms: C9_15  and  N1_5 
REMARK    2  A    between atoms: C2_8  and  C6_12 
ROOT
HETATM    1  O1  UNK     1      19.300   1.128  15.478  1.00  0.00    -0.274 OA
HETATM    2  O4  UNK     1      19.437  -0.440  13.821  1.00  0.00    -0.259 OA
HETATM    3  C1  UNK     1      18.953   0.418  17.777  1.00  0.00    -0.001 A 
HETATM    4  C2  UNK     1      19.096  -1.247  16.022  1.00  0.00     0.108 A 
HETATM    5  C3  UNK     1      19.134   1.432  16.843  1.00  0.00     0.089 A 
HETATM    6  C4  UNK     1      18.938  -0.964  17.321  1.00  0.00     0.037 A 
HETATM    7  C5  UNK     1      18.791   0.759  19.122  1.00  0.00     0.014 A 
HETATM    8  C7  UNK     1      19.291  -0.183  15.012  1.00  0.00     0.304 A 
HETATM    9  C8  UNK     1      19.158   2.775  17.215  1.00  0.00     0.038 A 
HETATM   10  C10 UNK     1      18.812   2.102  19.510  1.00  0.00     0.001 A 
HETATM   11  C11 UNK     1      18.996   3.108  18.558  1.00  0.00     0.003 A 
ENDROOT
BRANCH   4  12
HETATM   12  C6  UNK     1      19.067  -2.670  15.661  1.00  0.00     0.263 C 
HETATM   13  O3  UNK     1      18.008  -3.292  15.714  1.00  0.00    -0.267 OA
HETATM   14  N1  UNK     1      20.318  -3.140  15.288  1.00  0.00    -0.305 N 
HETATM   15  H4  UNK     1      21.120  -2.515  15.308  1.00  0.00     0.170 HD
BRANCH  14  16
HETATM   16  C9  UNK     1      20.662  -4.453  14.881  1.00  0.00     0.160 A 
HETATM   17  C12 UNK     1      20.043  -5.111  13.830  1.00  0.00     0.087 A 
HETATM   18  C13 UNK     1      20.691  -6.317  13.812  1.00  0.00     0.078 A 
HETATM   19  O2  UNK     1      21.626  -6.348  14.796  1.00  0.00    -0.216 OA
HETATM   20  C14 UNK     1      20.576  -7.520  12.978  1.00  0.00     0.079 C 
HETATM   21  N2  UNK     1      21.606  -5.143  15.486  1.00  0.00    -0.110 NA
ENDBRANCH  14  16
ENDBRANCH   4  12
TORSDOF 2
ENDMDL
MODEL 9
REMARK VINA RESULT:      -8.2      3.158      6.994
REMARK  2 active torsions:
REMARK  status: ('A' for Active; 'I' for Inactive)
REMARK       I    between atoms: C6_12  and  N1_5 
REMARK    1  A    between atoms: C9_15  and  N1_5 
REMARK    2  A    between atoms: C2_8  and  C6_12 
ROOT
HETATM    1  O1  UNK     1      18.408   1.434  32.042  1.00  0.00    -0.274 OA
HETATM    2  O4  UNK     1      18.257   3.213  30.616  1.00  0.00    -0.259 OA
HETATM    3  C1  UNK     1      18.411   1.815  34.442  1.00  0.00    -0.001 A 
HETATM    4  C2  UNK     1      18.252   3.705  32.934  1.00  0.00     0.108 A 
HETATM    5  C3  UNK     1      18.461   0.943  33.360  1.00  0.00     0.089 A 
HETATM    6  C4  UNK     1      18.303   3.244  34.189  1.00  0.00     0.037 A 
HETATM    7  C5  UNK     1      18.468   1.291  35.736  1.00  0.00     0.014 A 
HETATM    8  C7  UNK     1      18.303   2.794  31.768  1.00  0.00     0.304 A 
HETATM    9  C8  UNK     1      18.566  -0.436  33.535  1.00  0.00     0.038 A 
HETATM   10  C10 UNK     1      18.573  -0.090  35.926  1.00  0.00     0.001 A 
HETATM   11  C11 UNK     1      18.621  -0.952  34.828  1.00  0.00     0.003 A 
ENDROOT
BRANCH   4  12
HETATM   12  C6  UNK     1      18.142   5.161  32.781  1.00  0.00     0.263 C 
HETATM   13  O3  UNK     1      19.130   5.870  32.963  1.00  0.00    -0.267 OA
HETATM   14  N1  UNK     1      16.858   5.555  32.434  1.00  0.00    -0.305 N 
HETATM   15  H4  UNK     1      16.125   4.857  32.334  1.00  0.00     0.170 HD
BRANCH  14  16
HETATM   16  C9  UNK     1      16.390   6.872  32.207  1.00  0.00     0.160 A 
HETATM   17  C12 UNK     1      15.713   7.615  33.161  1.00  0.00     0.087 A 
HETATM   18  C13 UNK     1      15.469   8.791  32.504  1.00  0.00     0.078 A 
HETATM   19  O2  UNK     1      15.978   8.726  31.247  1.00  0.00    -0.216 OA
HETATM   20  C14 UNK     1      14.801  10.043  32.878  1.00  0.00     0.079 C 
HETATM   21  N2  UNK     1      16.573   7.486  31.056  1.00  0.00    -0.110 NA
ENDBRANCH  14  16
ENDBRANCH   4  12
TORSDOF 2
ENDMDL
MODEL 10
REMARK VINA RESULT:      -8.2      9.142     10.394
REMARK  2 active torsions:
REMARK  status: ('A' for Active; 'I' for Inactive)
REMARK       I    between atoms: C6_12  and  N1_5 
REMARK    1  A    between atoms: C9_15  and  N1_5 
REMARK    2  A    between atoms: C2_8  and  C6_12 
ROOT
HETATM    1  O1  UNK     1      19.490  -0.946  34.815  1.00  0.00    -0.274 OA
HETATM    2  O4  UNK     1      20.551  -2.887  34.243  1.00  0.00    -0.259 OA
HETATM    3  C1  UNK     1      18.414  -0.760  36.987  1.00  0.00    -0.001 A 
HETATM    4  C2  UNK     1      19.537  -2.821  36.383  1.00  0.00     0.108 A 
HETATM    5  C3  UNK     1      18.752  -0.204  35.758  1.00  0.00     0.089 A 
HETATM    6  C4  UNK     1      18.835  -2.121  37.283  1.00  0.00     0.037 A 
HETATM    7  C5  UNK     1      17.680   0.006  37.896  1.00  0.00     0.014 A 
HETATM    8  C7  UNK     1      19.908  -2.248  35.070  1.00  0.00     0.304 A 
HETATM    9  C8  UNK     1      18.379   1.093  35.413  1.00  0.00     0.038 A 
HETATM   10  C10 UNK     1      17.298   1.309  37.563  1.00  0.00     0.001 A 
HETATM   11  C11 UNK     1      17.648   1.851  36.324  1.00  0.00     0.003 A 
ENDROOT
BRANCH   4  12
HETATM   12  C6  UNK     1      19.916  -4.184  36.775  1.00  0.00     0.263 C 
HETATM   13  O3  UNK     1      19.276  -5.143  36.346  1.00  0.00    -0.267 OA
HETATM   14  N1  UNK     1      21.010  -4.198  37.628  1.00  0.00    -0.305 N 
HETATM   15  H4  UNK     1      21.434  -3.321  37.920  1.00  0.00     0.170 HD
BRANCH  14  16
HETATM   16  C9  UNK     1      21.643  -5.327  38.203  1.00  0.00     0.160 A 
HETATM   17  C12 UNK     1      20.949  -6.407  38.724  1.00  0.00     0.087 A 
HETATM   18  C13 UNK     1      21.956  -7.229  39.154  1.00  0.00     0.078 A 
HETATM   19  O2  UNK     1      23.158  -6.653  38.892  1.00  0.00    -0.216 OA
HETATM   20  C14 UNK     1      21.986  -8.543  39.807  1.00  0.00     0.079 C 
HETATM   21  N2  UNK     1      22.954  -5.425  38.278  1.00  0.00    -0.110 NA
ENDBRANCH  14  16
ENDBRANCH   4  12
TORSDOF 2
ENDMDL
