MODEL 1
REMARK VINA RESULT:      -8.7      0.000      0.000
REMARK  3 active torsions:
REMARK  status: ('A' for Active; 'I' for Inactive)
REMARK    1  A    between atoms: C14_20  and  N2_6 
REMARK    2  A    between atoms: C6_12  and  C9_15 
REMARK    3  A    between atoms: C14_20  and  C9_15 
ROOT
HETATM    1  S1  UNK     1      18.401   6.514  30.878  1.00  0.00    -0.084 SA
HETATM    2  O1  UNK     1      18.765   0.502  32.633  1.00  0.00    -0.274 OA
HETATM    3  O2  UNK     1      17.937   2.380  33.621  1.00  0.00    -0.259 OA
HETATM    4  N1  UNK     1      17.376   4.501  32.136  1.00  0.00    -0.244 NA
HETATM    5  C1  UNK     1      18.722   2.624  31.381  1.00  0.00     0.070 A 
HETATM    6  C2  UNK     1      19.559   0.579  30.343  1.00  0.00    -0.001 A 
HETATM    7  C3  UNK     1      18.413   4.032  31.361  1.00  0.00     0.080 A 
HETATM    8  C4  UNK     1      19.246   1.997  30.315  1.00  0.00     0.034 A 
HETATM    9  C5  UNK     1      19.314  -0.138  31.506  1.00  0.00     0.089 A 
HETATM   10  C6  UNK     1      17.277   5.800  31.962  1.00  0.00     0.082 A 
HETATM   11  C7  UNK     1      18.439   1.856  32.632  1.00  0.00     0.301 A 
HETATM   12  C8  UNK     1      20.102  -0.088  29.242  1.00  0.00     0.014 A 
HETATM   13  C10 UNK     1      19.088   4.966  30.611  1.00  0.00     0.084 A 
HETATM   14  C11 UNK     1      19.594  -1.499  31.604  1.00  0.00     0.038 A 
HETATM   15  C12 UNK     1      20.389  -1.453  29.323  1.00  0.00     0.001 A 
HETATM   16  C13 UNK     1      20.135  -2.158  30.502  1.00  0.00     0.003 A 
ENDROOT
BRANCH  10  17
HETATM   17  C9  UNK     1      16.276   6.660  32.629  1.00  0.00     0.136 C 
BRANCH  17  18
HETATM   18  C14 UNK     1      16.832   7.242  33.924  1.00  0.00     0.077 C 
HETATM   19  S2  UNK     1      16.554   8.821  34.401  1.00  0.00    -0.066 SA
BRANCH  18  20
HETATM   20  N2  UNK     1      17.598   6.386  34.671  1.00  0.00    -0.393 N 
HETATM   21  H10 UNK     1      18.191   5.692  34.228  1.00  0.00     0.156 HD
HETATM   22  H9  UNK     1      17.610   6.414  35.686  1.00  0.00     0.156 HD
ENDBRANCH  18  20
ENDBRANCH  17  18
ENDBRANCH  10  17
TORSDOF 3
ENDMDL
MODEL 2
REMARK VINA RESULT:      -7.8      6.302      8.639
REMARK  3 active torsions:
REMARK  status: ('A' for Active; 'I' for Inactive)
REMARK    1  A    between atoms: C14_20  and  N2_6 
REMARK    2  A    between atoms: C6_12  and  C9_15 
REMARK    3  A    between atoms: C14_20  and  C9_15 
ROOT
HETATM    1  S1  UNK     1      20.123  -2.940  37.112  1.00  0.00    -0.084 SA
HETATM    2  O1  UNK     1      20.904  -2.716  30.892  1.00  0.00    -0.274 OA
HETATM    3  O2  UNK     1      21.375  -4.280  32.480  1.00  0.00    -0.259 OA
HETATM    4  N1  UNK     1      20.166  -4.161  34.834  1.00  0.00    -0.244 NA
HETATM    5  C1  UNK     1      20.201  -2.341  33.224  1.00  0.00     0.070 A 
HETATM    6  C2  UNK     1      19.676  -0.711  31.483  1.00  0.00    -0.001 A 
HETATM    7  C3  UNK     1      20.174  -2.806  34.588  1.00  0.00     0.080 A 
HETATM    8  C4  UNK     1      19.640  -1.176  32.859  1.00  0.00     0.034 A 
HETATM    9  C5  UNK     1      20.311  -1.493  30.529  1.00  0.00     0.089 A 
HETATM   10  C6  UNK     1      20.139  -4.351  36.134  1.00  0.00     0.082 A 
HETATM   11  C7  UNK     1      20.873  -3.197  32.199  1.00  0.00     0.301 A 
HETATM   12  C8  UNK     1      19.095   0.497  31.089  1.00  0.00     0.014 A 
HETATM   13  C10 UNK     1      20.154  -1.984  35.689  1.00  0.00     0.084 A 
HETATM   14  C11 UNK     1      20.386  -1.106  29.193  1.00  0.00     0.038 A 
HETATM   15  C12 UNK     1      19.161   0.900  29.752  1.00  0.00     0.001 A 
HETATM   16  C13 UNK     1      19.805   0.100  28.806  1.00  0.00     0.003 A 
ENDROOT
BRANCH  10  17
HETATM   17  C9  UNK     1      20.124  -5.678  36.786  1.00  0.00     0.136 C 
BRANCH  17  18
HETATM   18  C14 UNK     1      18.795  -6.387  36.550  1.00  0.00     0.077 C 
HETATM   19  S2  UNK     1      18.681  -8.036  36.288  1.00  0.00    -0.066 SA
BRANCH  18  20
HETATM   20  N2  UNK     1      17.690  -5.578  36.549  1.00  0.00    -0.393 N 
HETATM   21  H10 UNK     1      17.748  -4.613  36.856  1.00  0.00     0.156 HD
HETATM   22  H9  UNK     1      16.779  -5.902  36.237  1.00  0.00     0.156 HD
ENDBRANCH  18  20
ENDBRANCH  17  18
ENDBRANCH  10  17
TORSDOF 3
ENDMDL
MODEL 3
REMARK VINA RESULT:      -7.6      8.164     10.945
REMARK  3 active torsions:
REMARK  status: ('A' for Active; 'I' for Inactive)
REMARK    1  A    between atoms: C14_20  and  N2_6 
REMARK    2  A    between atoms: C6_12  and  C9_15 
REMARK    3  A    between atoms: C14_20  and  C9_15 
ROOT
HETATM    1  S1  UNK     1      20.868  -6.437  37.899  1.00  0.00    -0.084 SA
HETATM    2  O1  UNK     1      19.528  -1.218  34.688  1.00  0.00    -0.274 OA
HETATM    3  O2  UNK     1      20.519  -3.193  34.134  1.00  0.00    -0.259 OA
HETATM    4  N1  UNK     1      20.162  -5.314  35.680  1.00  0.00    -0.244 NA
HETATM    5  C1  UNK     1      19.638  -3.037  36.346  1.00  0.00     0.070 A 
HETATM    6  C2  UNK     1      18.546  -0.921  36.884  1.00  0.00    -0.001 A 
HETATM    7  C3  UNK     1      20.073  -4.370  36.679  1.00  0.00     0.080 A 
HETATM    8  C4  UNK     1      18.976  -2.266  37.224  1.00  0.00     0.034 A 
HETATM    9  C5  UNK     1      18.835  -0.425  35.621  1.00  0.00     0.089 A 
HETATM   10  C6  UNK     1      20.573  -6.446  36.208  1.00  0.00     0.082 A 
HETATM   11  C7  UNK     1      19.940  -2.516  34.978  1.00  0.00     0.301 A 
HETATM   12  C8  UNK     1      17.854  -0.109  37.786  1.00  0.00     0.014 A 
HETATM   13  C10 UNK     1      20.413  -4.785  37.945  1.00  0.00     0.084 A 
HETATM   14  C11 UNK     1      18.455   0.857  35.230  1.00  0.00     0.038 A 
HETATM   15  C12 UNK     1      17.465   1.181  37.409  1.00  0.00     0.001 A 
HETATM   16  C13 UNK     1      17.766   1.662  36.134  1.00  0.00     0.003 A 
ENDROOT
BRANCH  10  17
HETATM   17  C9  UNK     1      20.790  -7.695  35.447  1.00  0.00     0.136 C 
BRANCH  17  18
HETATM   18  C14 UNK     1      20.185  -8.891  36.174  1.00  0.00     0.077 C 
HETATM   19  S2  UNK     1      21.091 -10.214  36.652  1.00  0.00    -0.066 SA
BRANCH  18  20
HETATM   20  N2  UNK     1      18.836  -8.820  36.397  1.00  0.00    -0.393 N 
HETATM   21  H10 UNK     1      18.468  -8.466  37.274  1.00  0.00     0.156 HD
HETATM   22  H9  UNK     1      18.155  -9.108  35.701  1.00  0.00     0.156 HD
ENDBRANCH  18  20
ENDBRANCH  17  18
ENDBRANCH  10  17
TORSDOF 3
ENDMDL
MODEL 4
REMARK VINA RESULT:      -7.5      2.088      2.511
REMARK  3 active torsions:
REMARK  status: ('A' for Active; 'I' for Inactive)
REMARK    1  A    between atoms: C14_20  and  N2_6 
REMARK    2  A    between atoms: C6_12  and  C9_15 
REMARK    3  A    between atoms: C14_20  and  C9_15 
ROOT
HETATM    1  S1  UNK     1      17.664   5.431  33.407  1.00  0.00    -0.084 SA
HETATM    2  O1  UNK     1      18.844   1.494  28.668  1.00  0.00    -0.274 OA
HETATM    3  O2  UNK     1      18.049   3.626  28.779  1.00  0.00    -0.259 OA
HETATM    4  N1  UNK     1      18.447   5.058  30.971  1.00  0.00    -0.244 NA
HETATM    5  C1  UNK     1      18.747   2.651  30.841  1.00  0.00     0.070 A 
HETATM    6  C2  UNK     1      19.634   0.382  30.672  1.00  0.00    -0.001 A 
HETATM    7  C3  UNK     1      18.390   3.830  31.590  1.00  0.00     0.080 A 
HETATM    8  C4  UNK     1      19.282   1.570  31.432  1.00  0.00     0.034 A 
HETATM    9  C5  UNK     1      19.403   0.371  29.304  1.00  0.00     0.089 A 
HETATM   10  C6  UNK     1      18.084   5.980  31.835  1.00  0.00     0.082 A 
HETATM   11  C7  UNK     1      18.510   2.652  29.366  1.00  0.00     0.301 A 
HETATM   12  C8  UNK     1      20.194  -0.749  31.272  1.00  0.00     0.014 A 
HETATM   13  C10 UNK     1      17.989   3.824  32.905  1.00  0.00     0.084 A 
HETATM   14  C11 UNK     1      19.714  -0.735  28.515  1.00  0.00     0.038 A 
HETATM   15  C12 UNK     1      20.511  -1.867  30.495  1.00  0.00     0.001 A 
HETATM   16  C13 UNK     1      20.271  -1.860  29.119  1.00  0.00     0.003 A 
ENDROOT
BRANCH  10  17
HETATM   17  C9  UNK     1      18.019   7.427  31.538  1.00  0.00     0.136 C 
BRANCH  17  18
HETATM   18  C14 UNK     1      16.683   8.016  31.977  1.00  0.00     0.077 C 
HETATM   19  S2  UNK     1      16.511   8.943  33.359  1.00  0.00    -0.066 SA
BRANCH  18  20
HETATM   20  N2  UNK     1      15.617   7.718  31.169  1.00  0.00    -0.393 N 
HETATM   21  H10 UNK     1      15.145   8.442  30.637  1.00  0.00     0.156 HD
HETATM   22  H9  UNK     1      15.263   6.772  31.065  1.00  0.00     0.156 HD
ENDBRANCH  18  20
ENDBRANCH  17  18
ENDBRANCH  10  17
TORSDOF 3
ENDMDL
MODEL 5
REMARK VINA RESULT:      -7.4      3.916      6.873
REMARK  3 active torsions:
REMARK  status: ('A' for Active; 'I' for Inactive)
REMARK    1  A    between atoms: C14_20  and  N2_6 
REMARK    2  A    between atoms: C6_12  and  C9_15 
REMARK    3  A    between atoms: C14_20  and  C9_15 
ROOT
HETATM    1  S1  UNK     1      20.121  -1.082  29.124  1.00  0.00    -0.084 SA
HETATM    2  O1  UNK     1      17.787   3.347  32.904  1.00  0.00    -0.274 OA
HETATM    3  O2  UNK     1      18.076   1.097  33.111  1.00  0.00    -0.259 OA
HETATM    4  N1  UNK     1      19.778  -0.156  31.513  1.00  0.00    -0.244 NA
HETATM    5  C1  UNK     1      18.950   2.096  31.128  1.00  0.00     0.070 A 
HETATM    6  C2  UNK     1      18.659   4.515  30.967  1.00  0.00    -0.001 A 
HETATM    7  C3  UNK     1      19.416   0.829  30.622  1.00  0.00     0.080 A 
HETATM    8  C4  UNK     1      19.136   3.242  30.453  1.00  0.00     0.034 A 
HETATM    9  C5  UNK     1      17.990   4.537  32.183  1.00  0.00     0.089 A 
HETATM   10  C6  UNK     1      20.168  -1.212  30.835  1.00  0.00     0.082 A 
HETATM   11  C7  UNK     1      18.246   2.114  32.447  1.00  0.00     0.301 A 
HETATM   12  C8  UNK     1      18.847   5.715  30.278  1.00  0.00     0.014 A 
HETATM   13  C10 UNK     1      19.530   0.520  29.288  1.00  0.00     0.084 A 
HETATM   14  C11 UNK     1      17.504   5.721  32.732  1.00  0.00     0.038 A 
HETATM   15  C12 UNK     1      18.365   6.912  30.815  1.00  0.00     0.001 A 
HETATM   16  C13 UNK     1      17.694   6.915  32.040  1.00  0.00     0.003 A 
ENDROOT
BRANCH  10  17
HETATM   17  C9  UNK     1      20.632  -2.476  31.447  1.00  0.00     0.136 C 
BRANCH  17  18
HETATM   18  C14 UNK     1      21.041  -2.261  32.900  1.00  0.00     0.077 C 
HETATM   19  S2  UNK     1      20.011  -2.556  34.185  1.00  0.00    -0.066 SA
BRANCH  18  20
HETATM   20  N2  UNK     1      22.313  -1.789  33.088  1.00  0.00    -0.393 N 
HETATM   21  H10 UNK     1      22.837  -2.014  33.927  1.00  0.00     0.156 HD
HETATM   22  H9  UNK     1      22.783  -1.206  32.401  1.00  0.00     0.156 HD
ENDBRANCH  18  20
ENDBRANCH  17  18
ENDBRANCH  10  17
TORSDOF 3
ENDMDL
MODEL 6
REMARK VINA RESULT:      -7.3      4.015      8.921
REMARK  3 active torsions:
REMARK  status: ('A' for Active; 'I' for Inactive)
REMARK    1  A    between atoms: C14_20  and  N2_6 
REMARK    2  A    between atoms: C6_12  and  C9_15 
REMARK    3  A    between atoms: C14_20  and  C9_15 
ROOT
HETATM    1  S1  UNK     1      20.245   6.457  33.031  1.00  0.00    -0.084 SA
HETATM    2  O1  UNK     1      14.928   9.628  32.014  1.00  0.00    -0.274 OA
HETATM    3  O2  UNK     1      16.250   8.313  30.704  1.00  0.00    -0.259 OA
HETATM    4  N1  UNK     1      17.960   6.637  31.835  1.00  0.00    -0.244 NA
HETATM    5  C1  UNK     1      16.855   8.456  33.007  1.00  0.00     0.070 A 
HETATM    6  C2  UNK     1      15.388   9.839  34.385  1.00  0.00    -0.001 A 
HETATM    7  C3  UNK     1      17.996   7.595  32.823  1.00  0.00     0.080 A 
HETATM    8  C4  UNK     1      16.536   8.966  34.208  1.00  0.00     0.034 A 
HETATM    9  C5  UNK     1      14.610  10.152  33.279  1.00  0.00     0.089 A 
HETATM   10  C6  UNK     1      19.095   5.974  31.851  1.00  0.00     0.082 A 
HETATM   11  C7  UNK     1      16.013   8.777  31.814  1.00  0.00     0.301 A 
HETATM   12  C8  UNK     1      15.042  10.374  35.627  1.00  0.00     0.014 A 
HETATM   13  C10 UNK     1      19.145   7.655  33.575  1.00  0.00     0.084 A 
HETATM   14  C11 UNK     1      13.497  10.985  33.376  1.00  0.00     0.038 A 
HETATM   15  C12 UNK     1      13.929  11.212  35.743  1.00  0.00     0.001 A 
HETATM   16  C13 UNK     1      13.158  11.516  34.619  1.00  0.00     0.003 A 
ENDROOT
BRANCH  10  17
HETATM   17  C9  UNK     1      19.430   4.864  30.933  1.00  0.00     0.136 C 
BRANCH  17  18
HETATM   18  C14 UNK     1      18.491   3.681  31.142  1.00  0.00     0.077 C 
HETATM   19  S2  UNK     1      18.321   2.450  30.021  1.00  0.00    -0.066 SA
BRANCH  18  20
HETATM   20  N2  UNK     1      17.774   3.699  32.309  1.00  0.00    -0.393 N 
HETATM   21  H10 UNK     1      16.761   3.659  32.302  1.00  0.00     0.156 HD
HETATM   22  H9  UNK     1      18.222   3.744  33.220  1.00  0.00     0.156 HD
ENDBRANCH  18  20
ENDBRANCH  17  18
ENDBRANCH  10  17
TORSDOF 3
ENDMDL
MODEL 7
REMARK VINA RESULT:      -7.0      4.359      6.796
REMARK  3 active torsions:
REMARK  status: ('A' for Active; 'I' for Inactive)
REMARK    1  A    between atoms: C14_20  and  N2_6 
REMARK    2  A    between atoms: C6_12  and  C9_15 
REMARK    3  A    between atoms: C14_20  and  C9_15 
ROOT
HETATM    1  S1  UNK     1      17.994   0.820  37.033  1.00  0.00    -0.084 SA
HETATM    2  O1  UNK     1      18.925   2.562  31.079  1.00  0.00    -0.274 OA
HETATM    3  O2  UNK     1      18.899   0.547  32.141  1.00  0.00    -0.259 OA
HETATM    4  N1  UNK     1      17.730   0.330  34.508  1.00  0.00    -0.244 NA
HETATM    5  C1  UNK     1      18.314   2.445  33.463  1.00  0.00     0.070 A 
HETATM    6  C2  UNK     1      18.310   4.579  32.277  1.00  0.00    -0.001 A 
HETATM    7  C3  UNK     1      18.129   1.641  34.645  1.00  0.00     0.080 A 
HETATM    8  C4  UNK     1      18.117   3.773  33.471  1.00  0.00     0.034 A 
HETATM    9  C5  UNK     1      18.714   3.953  31.106  1.00  0.00     0.089 A 
HETATM   10  C6  UNK     1      17.626  -0.204  35.705  1.00  0.00     0.082 A 
HETATM   11  C7  UNK     1      18.733   1.761  32.202  1.00  0.00     0.301 A 
HETATM   12  C8  UNK     1      18.107   5.961  32.268  1.00  0.00     0.014 A 
HETATM   13  C10 UNK     1      18.325   2.090  35.930  1.00  0.00     0.084 A 
HETATM   14  C11 UNK     1      18.921   4.664  29.926  1.00  0.00     0.038 A 
HETATM   15  C12 UNK     1      18.310   6.690  31.092  1.00  0.00     0.001 A 
HETATM   16  C13 UNK     1      18.717   6.042  29.924  1.00  0.00     0.003 A 
ENDROOT
BRANCH  10  17
HETATM   17  C9  UNK     1      17.219  -1.601  35.966  1.00  0.00     0.136 C 
BRANCH  17  18
HETATM   18  C14 UNK     1      18.436  -2.489  36.202  1.00  0.00     0.077 C 
HETATM   19  S2  UNK     1      19.984  -2.046  35.746  1.00  0.00    -0.066 SA
BRANCH  18  20
HETATM   20  N2  UNK     1      18.176  -3.694  36.800  1.00  0.00    -0.393 N 
HETATM   21  H10 UNK     1      18.717  -4.520  36.571  1.00  0.00     0.156 HD
HETATM   22  H9  UNK     1      17.444  -3.808  37.496  1.00  0.00     0.156 HD
ENDBRANCH  18  20
ENDBRANCH  17  18
ENDBRANCH  10  17
TORSDOF 3
ENDMDL
MODEL 8
REMARK VINA RESULT:      -6.9     13.124     15.129
REMARK  3 active torsions:
REMARK  status: ('A' for Active; 'I' for Inactive)
REMARK    1  A    between atoms: C14_20  and  N2_6 
REMARK    2  A    between atoms: C6_12  and  C9_15 
REMARK    3  A    between atoms: C14_20  and  C9_15 
ROOT
HETATM    1  S1  UNK     1      28.476  -9.374  39.142  1.00  0.00    -0.084 SA
HETATM    2  O1  UNK     1      23.482  -5.588  38.871  1.00  0.00    -0.274 OA
HETATM    3  O2  UNK     1      25.731  -5.228  38.842  1.00  0.00    -0.259 OA
HETATM    4  N1  UNK     1      27.368  -7.220  38.239  1.00  0.00    -0.244 NA
HETATM    5  C1  UNK     1      25.027  -7.507  38.823  1.00  0.00     0.070 A 
HETATM    6  C2  UNK     1      22.610  -7.850  38.810  1.00  0.00    -0.001 A 
HETATM    7  C3  UNK     1      26.385  -7.990  38.819  1.00  0.00     0.080 A 
HETATM    8  C4  UNK     1      23.976  -8.343  38.801  1.00  0.00     0.034 A 
HETATM    9  C5  UNK     1      22.393  -6.479  38.848  1.00  0.00     0.089 A 
HETATM   10  C6  UNK     1      28.516  -7.852  38.349  1.00  0.00     0.082 A 
HETATM   11  C7  UNK     1      24.802  -6.030  38.848  1.00  0.00     0.301 A 
HETATM   12  C8  UNK     1      21.507  -8.707  38.785  1.00  0.00     0.014 A 
HETATM   13  C10 UNK     1      26.786  -9.187  39.363  1.00  0.00     0.084 A 
HETATM   14  C11 UNK     1      21.110  -5.938  38.862  1.00  0.00     0.038 A 
HETATM   15  C12 UNK     1      20.212  -8.180  38.799  1.00  0.00     0.001 A 
HETATM   16  C13 UNK     1      20.014  -6.798  38.837  1.00  0.00     0.003 A 
ENDROOT
BRANCH  10  17
HETATM   17  C9  UNK     1      29.806  -7.338  37.843  1.00  0.00     0.136 C 
BRANCH  17  18
HETATM   18  C14 UNK     1      29.713  -5.851  37.519  1.00  0.00     0.077 C 
HETATM   19  S2  UNK     1      29.861  -4.658  38.683  1.00  0.00    -0.066 SA
BRANCH  18  20
HETATM   20  N2  UNK     1      29.481  -5.551  36.202  1.00  0.00    -0.393 N 
HETATM   21  H10 UNK     1      30.114  -5.864  35.474  1.00  0.00     0.156 HD
HETATM   22  H9  UNK     1      28.671  -5.017  35.903  1.00  0.00     0.156 HD
ENDBRANCH  18  20
ENDBRANCH  17  18
ENDBRANCH  10  17
TORSDOF 3
ENDMDL
MODEL 9
REMARK VINA RESULT:      -6.9     23.005     24.121
REMARK  3 active torsions:
REMARK  status: ('A' for Active; 'I' for Inactive)
REMARK    1  A    between atoms: C14_20  and  N2_6 
REMARK    2  A    between atoms: C6_12  and  C9_15 
REMARK    3  A    between atoms: C14_20  and  C9_15 
ROOT
HETATM    1  S1  UNK     1       8.347   8.102   9.112  1.00  0.00    -0.084 SA
HETATM    2  O1  UNK     1      14.345   6.624  10.207  1.00  0.00    -0.274 OA
HETATM    3  O2  UNK     1      12.393   5.455  10.314  1.00  0.00    -0.259 OA
HETATM    4  N1  UNK     1      10.254   6.358   9.039  1.00  0.00    -0.244 NA
HETATM    5  C1  UNK     1      12.243   7.683   9.476  1.00  0.00     0.070 A 
HETATM    6  C2  UNK     1      14.363   8.887   9.336  1.00  0.00    -0.001 A 
HETATM    7  C3  UNK     1      10.816   7.587   9.303  1.00  0.00     0.080 A 
HETATM    8  C4  UNK     1      12.925   8.795   9.153  1.00  0.00     0.034 A 
HETATM    9  C5  UNK     1      15.042   7.797   9.863  1.00  0.00     0.089 A 
HETATM   10  C6  UNK     1       8.954   6.508   8.919  1.00  0.00     0.082 A 
HETATM   11  C7  UNK     1      12.969   6.499  10.029  1.00  0.00     0.301 A 
HETATM   12  C8  UNK     1      15.086  10.034   9.002  1.00  0.00     0.014 A 
HETATM   13  C10 UNK     1       9.949   8.652   9.381  1.00  0.00     0.084 A 
HETATM   14  C11 UNK     1      16.420   7.818  10.067  1.00  0.00     0.038 A 
HETATM   15  C12 UNK     1      16.469  10.072   9.201  1.00  0.00     0.001 A 
HETATM   16  C13 UNK     1      17.134   8.966   9.732  1.00  0.00     0.003 A 
ENDROOT
BRANCH  10  17
HETATM   17  C9  UNK     1       8.007   5.408   8.634  1.00  0.00     0.136 C 
BRANCH  17  18
HETATM   18  C14 UNK     1       7.720   4.595   9.891  1.00  0.00     0.077 C 
HETATM   19  S2  UNK     1       6.214   4.550  10.618  1.00  0.00    -0.066 SA
BRANCH  18  20
HETATM   20  N2  UNK     1       8.790   3.909  10.403  1.00  0.00    -0.393 N 
HETATM   21  H10 UNK     1       9.732   4.086  10.072  1.00  0.00     0.156 HD
HETATM   22  H9  UNK     1       8.688   3.210  11.133  1.00  0.00     0.156 HD
ENDBRANCH  18  20
ENDBRANCH  17  18
ENDBRANCH  10  17
TORSDOF 3
ENDMDL
MODEL 10
REMARK VINA RESULT:      -6.9     24.168     25.758
REMARK  3 active torsions:
REMARK  status: ('A' for Active; 'I' for Inactive)
REMARK    1  A    between atoms: C14_20  and  N2_6 
REMARK    2  A    between atoms: C6_12  and  C9_15 
REMARK    3  A    between atoms: C14_20  and  C9_15 
ROOT
HETATM    1  S1  UNK     1      15.042   9.969   9.170  1.00  0.00    -0.084 SA
HETATM    2  O1  UNK     1      20.658  12.579   8.168  1.00  0.00    -0.274 OA
HETATM    3  O2  UNK     1      19.786  11.328   9.860  1.00  0.00    -0.259 OA
HETATM    4  N1  UNK     1      17.613   9.876   9.427  1.00  0.00    -0.244 NA
HETATM    5  C1  UNK     1      18.389  11.643   7.952  1.00  0.00     0.070 A 
HETATM    6  C2  UNK     1      19.377  12.952   6.143  1.00  0.00    -0.001 A 
HETATM    7  C3  UNK     1      17.314  10.882   8.537  1.00  0.00     0.080 A 
HETATM    8  C4  UNK     1      18.292  12.182   6.725  1.00  0.00     0.034 A 
HETATM    9  C5  UNK     1      20.538  13.136   6.882  1.00  0.00     0.089 A 
HETATM   10  C6  UNK     1      16.490   9.322   9.828  1.00  0.00     0.082 A 
HETATM   11  C7  UNK     1      19.642  11.823   8.747  1.00  0.00     0.301 A 
HETATM   12  C8  UNK     1      19.292  13.516   4.868  1.00  0.00     0.014 A 
HETATM   13  C10 UNK     1      15.981  11.087   8.269  1.00  0.00     0.084 A 
HETATM   14  C11 UNK     1      21.616  13.866   6.387  1.00  0.00     0.038 A 
HETATM   15  C12 UNK     1      20.365  14.252   4.356  1.00  0.00     0.001 A 
HETATM   16  C13 UNK     1      21.525  14.427   5.114  1.00  0.00     0.003 A 
ENDROOT
BRANCH  10  17
HETATM   17  C9  UNK     1      16.404   8.203  10.790  1.00  0.00     0.136 C 
BRANCH  17  18
HETATM   18  C14 UNK     1      16.682   6.870  10.104  1.00  0.00     0.077 C 
HETATM   19  S2  UNK     1      15.519   5.678   9.935  1.00  0.00    -0.066 SA
BRANCH  18  20
HETATM   20  N2  UNK     1      17.961   6.701   9.645  1.00  0.00    -0.393 N 
HETATM   21  H10 UNK     1      18.143   6.468   8.675  1.00  0.00     0.156 HD
HETATM   22  H9  UNK     1      18.772   6.808  10.247  1.00  0.00     0.156 HD
ENDBRANCH  18  20
ENDBRANCH  17  18
ENDBRANCH  10  17
TORSDOF 3
ENDMDL
