MODEL 1
REMARK VINA RESULT:      -7.4      0.000      0.000
REMARK  2 active torsions:
REMARK  status: ('A' for Active; 'I' for Inactive)
REMARK    1  A    between atoms: C8_16  and  N1_8 
REMARK    2  A    between atoms: C10_18  and  C4_12 
ROOT
HETATM    1 Cl1  UNK     1      18.689   3.610  29.675  1.00  0.00    -0.077 Cl
HETATM    2  O1  UNK     1      19.048   0.007  31.421  1.00  0.00    -0.307 OA
HETATM    3  O2  UNK     1      17.955   3.771  32.531  1.00  0.00    -0.286 OA
HETATM    4  C1  UNK     1      18.295   1.529  33.153  1.00  0.00     0.052 A 
HETATM    5  C2  UNK     1      18.677   0.266  32.715  1.00  0.00     0.090 A 
HETATM    6  C3  UNK     1      18.286   2.643  32.191  1.00  0.00     0.209 A 
HETATM    7  C4  UNK     1      19.047   1.047  30.499  1.00  0.00     0.143 A 
HETATM    8  C5  UNK     1      17.925   1.732  34.485  1.00  0.00     0.054 A 
HETATM    9  C6  UNK     1      18.697   2.309  30.805  1.00  0.00     0.120 A 
HETATM   10  C7  UNK     1      18.693  -0.808  33.606  1.00  0.00     0.041 A 
HETATM   11  C8  UNK     1      17.942   0.658  35.376  1.00  0.00     0.104 A 
HETATM   12  C9  UNK     1      18.325  -0.610  34.938  1.00  0.00     0.039 A 
ENDROOT
BRANCH   7  13
HETATM   13  C10 UNK     1      19.480   0.575  29.141  1.00  0.00     0.412 C 
HETATM   14  F1  UNK     1      19.818  -0.733  29.188  1.00  0.00    -0.207 F 
HETATM   15  F2  UNK     1      18.465   0.696  28.259  1.00  0.00    -0.207 F 
ENDBRANCH   7  13
BRANCH  11  16
HETATM   16  N1  UNK     1      17.568   0.855  36.732  1.00  0.00    -0.116 N 
HETATM   17  O3  UNK     1      18.309   1.545  37.473  1.00  0.00    -0.532 OA
HETATM   18  O4  UNK     1      16.507   0.332  37.151  1.00  0.00    -0.532 OA
ENDBRANCH  11  16
TORSDOF 2
ENDMDL
MODEL 2
REMARK VINA RESULT:      -7.3     14.445     17.461
REMARK  2 active torsions:
REMARK  status: ('A' for Active; 'I' for Inactive)
REMARK    1  A    between atoms: C8_16  and  N1_8 
REMARK    2  A    between atoms: C10_18  and  C4_12 
ROOT
HETATM    1 Cl1  UNK     1      19.589   2.982  18.244  1.00  0.00    -0.077 Cl
HETATM    2  O1  UNK     1      18.462  -0.867  17.970  1.00  0.00    -0.307 OA
HETATM    3  O2  UNK     1      19.800   2.042  15.452  1.00  0.00    -0.286 OA
HETATM    4  C1  UNK     1      19.071  -0.176  15.726  1.00  0.00     0.052 A 
HETATM    5  C2  UNK     1      18.619  -1.128  16.634  1.00  0.00     0.090 A 
HETATM    6  C3  UNK     1      19.397   1.173  16.214  1.00  0.00     0.209 A 
HETATM    7  C4  UNK     1      18.765   0.402  18.449  1.00  0.00     0.143 A 
HETATM    8  C5  UNK     1      19.212  -0.501  14.375  1.00  0.00     0.054 A 
HETATM    9  C6  UNK     1      19.209   1.402  17.668  1.00  0.00     0.120 A 
HETATM   10  C7  UNK     1      18.304  -2.416  16.198  1.00  0.00     0.041 A 
HETATM   11  C8  UNK     1      18.896  -1.789  13.939  1.00  0.00     0.104 A 
HETATM   12  C9  UNK     1      18.443  -2.745  14.849  1.00  0.00     0.039 A 
ENDROOT
BRANCH   7  13
HETATM   13  C10 UNK     1      18.532   0.499  19.929  1.00  0.00     0.412 C 
HETATM   14  F1  UNK     1      19.706   0.683  20.574  1.00  0.00    -0.207 F 
HETATM   15  F2  UNK     1      17.749   1.563  20.210  1.00  0.00    -0.207 F 
ENDBRANCH   7  13
BRANCH  11  16
HETATM   16  N1  UNK     1      19.036  -2.128  12.567  1.00  0.00    -0.116 N 
HETATM   17  O3  UNK     1      19.457  -3.270  12.263  1.00  0.00    -0.532 OA
HETATM   18  O4  UNK     1      18.735  -1.276  11.696  1.00  0.00    -0.532 OA
ENDBRANCH  11  16
TORSDOF 2
ENDMDL
MODEL 3
REMARK VINA RESULT:      -7.3      2.116      3.124
REMARK  2 active torsions:
REMARK  status: ('A' for Active; 'I' for Inactive)
REMARK    1  A    between atoms: C8_16  and  N1_8 
REMARK    2  A    between atoms: C10_18  and  C4_12 
ROOT
HETATM    1 Cl1  UNK     1      20.552  -2.487  30.697  1.00  0.00    -0.077 Cl
HETATM    2  O1  UNK     1      18.728   0.831  32.047  1.00  0.00    -0.307 OA
HETATM    3  O2  UNK     1      20.009  -2.715  33.591  1.00  0.00    -0.286 OA
HETATM    4  C1  UNK     1      18.971  -0.638  33.962  1.00  0.00     0.052 A 
HETATM    5  C2  UNK     1      18.555   0.554  33.379  1.00  0.00     0.090 A 
HETATM    6  C3  UNK     1      19.625  -1.652  33.120  1.00  0.00     0.209 A 
HETATM    7  C4  UNK     1      19.344  -0.115  31.237  1.00  0.00     0.143 A 
HETATM    8  C5  UNK     1      18.768  -0.865  35.326  1.00  0.00     0.054 A 
HETATM    9  C6  UNK     1      19.787  -1.302  31.688  1.00  0.00     0.120 A 
HETATM   10  C7  UNK     1      17.933   1.532  34.155  1.00  0.00     0.041 A 
HETATM   11  C8  UNK     1      18.145   0.114  36.102  1.00  0.00     0.104 A 
HETATM   12  C9  UNK     1      17.728   1.311  35.518  1.00  0.00     0.039 A 
ENDROOT
BRANCH   7  13
HETATM   13  C10 UNK     1      19.444   0.363  29.817  1.00  0.00     0.412 C 
HETATM   14  F1  UNK     1      19.068   1.658  29.733  1.00  0.00    -0.207 F 
HETATM   15  F2  UNK     1      20.723   0.289  29.389  1.00  0.00    -0.207 F 
ENDBRANCH   7  13
BRANCH  11  16
HETATM   16  N1  UNK     1      17.935  -0.107  37.489  1.00  0.00    -0.116 N 
HETATM   17  O3  UNK     1      17.929   0.877  38.267  1.00  0.00    -0.532 OA
HETATM   18  O4  UNK     1      17.762  -1.280  37.898  1.00  0.00    -0.532 OA
ENDBRANCH  11  16
TORSDOF 2
ENDMDL
MODEL 4
REMARK VINA RESULT:      -7.3      3.188      5.027
REMARK  2 active torsions:
REMARK  status: ('A' for Active; 'I' for Inactive)
REMARK    1  A    between atoms: C8_16  and  N1_8 
REMARK    2  A    between atoms: C10_18  and  C4_12 
ROOT
HETATM    1 Cl1  UNK     1      18.579  -0.256  32.448  1.00  0.00    -0.077 Cl
HETATM    2  O1  UNK     1      19.183   2.644  29.730  1.00  0.00    -0.307 OA
HETATM    3  O2  UNK     1      17.942   2.388  33.601  1.00  0.00    -0.286 OA
HETATM    4  C1  UNK     1      18.412   3.752  31.746  1.00  0.00     0.052 A 
HETATM    5  C2  UNK     1      18.843   3.776  30.423  1.00  0.00     0.090 A 
HETATM    6  C3  UNK     1      18.314   2.457  32.438  1.00  0.00     0.209 A 
HETATM    7  C4  UNK     1      19.095   1.412  30.367  1.00  0.00     0.143 A 
HETATM    8  C5  UNK     1      18.080   4.940  32.402  1.00  0.00     0.054 A 
HETATM    9  C6  UNK     1      18.693   1.264  31.642  1.00  0.00     0.120 A 
HETATM   10  C7  UNK     1      18.946   4.991  29.744  1.00  0.00     0.041 A 
HETATM   11  C8  UNK     1      18.183   6.154  31.722  1.00  0.00     0.104 A 
HETATM   12  C9  UNK     1      18.615   6.180  30.396  1.00  0.00     0.039 A 
ENDROOT
BRANCH   7  13
HETATM   13  C10 UNK     1      19.506   0.293  29.454  1.00  0.00     0.412 C 
HETATM   14  F1  UNK     1      19.046   0.520  28.204  1.00  0.00    -0.207 F 
HETATM   15  F2  UNK     1      20.853   0.222  29.379  1.00  0.00    -0.207 F 
ENDBRANCH   7  13
BRANCH  11  16
HETATM   16  N1  UNK     1      17.847   7.367  32.380  1.00  0.00    -0.116 N 
HETATM   17  O3  UNK     1      17.031   8.149  31.836  1.00  0.00    -0.532 OA
HETATM   18  O4  UNK     1      18.378   7.624  33.488  1.00  0.00    -0.532 OA
ENDBRANCH  11  16
TORSDOF 2
ENDMDL
MODEL 5
REMARK VINA RESULT:      -7.3      1.555      1.854
REMARK  2 active torsions:
REMARK  status: ('A' for Active; 'I' for Inactive)
REMARK    1  A    between atoms: C8_16  and  N1_8 
REMARK    2  A    between atoms: C10_18  and  C4_12 
ROOT
HETATM    1 Cl1  UNK     1      18.941   1.592  29.994  1.00  0.00    -0.077 Cl
HETATM    2  O1  UNK     1      19.374  -1.192  32.861  1.00  0.00    -0.307 OA
HETATM    3  O2  UNK     1      17.904   2.596  32.572  1.00  0.00    -0.286 OA
HETATM    4  C1  UNK     1      18.337   0.725  33.927  1.00  0.00     0.052 A 
HETATM    5  C2  UNK     1      18.852  -0.567  33.964  1.00  0.00     0.090 A 
HETATM    6  C3  UNK     1      18.348   1.459  32.652  1.00  0.00     0.209 A 
HETATM    7  C4  UNK     1      19.394  -0.514  31.649  1.00  0.00     0.143 A 
HETATM    8  C5  UNK     1      17.817   1.310  35.084  1.00  0.00     0.054 A 
HETATM    9  C6  UNK     1      18.924   0.737  31.491  1.00  0.00     0.120 A 
HETATM   10  C7  UNK     1      18.852  -1.285  35.160  1.00  0.00     0.041 A 
HETATM   11  C8  UNK     1      17.818   0.592  36.280  1.00  0.00     0.104 A 
HETATM   12  C9  UNK     1      18.334  -0.704  36.319  1.00  0.00     0.039 A 
ENDROOT
BRANCH   7  13
HETATM   13  C10 UNK     1      19.999  -1.354  30.561  1.00  0.00     0.412 C 
HETATM   14  F1  UNK     1      21.101  -0.750  30.064  1.00  0.00    -0.207 F 
HETATM   15  F2  UNK     1      20.386  -2.550  31.056  1.00  0.00    -0.207 F 
ENDBRANCH   7  13
BRANCH  11  16
HETATM   16  N1  UNK     1      17.292   1.179  37.462  1.00  0.00    -0.116 N 
HETATM   17  O3  UNK     1      17.977   1.149  38.512  1.00  0.00    -0.532 OA
HETATM   18  O4  UNK     1      16.156   1.710  37.422  1.00  0.00    -0.532 OA
ENDBRANCH  11  16
TORSDOF 2
ENDMDL
MODEL 6
REMARK VINA RESULT:      -7.2      2.380      3.314
REMARK  2 active torsions:
REMARK  status: ('A' for Active; 'I' for Inactive)
REMARK    1  A    between atoms: C8_16  and  N1_8 
REMARK    2  A    between atoms: C10_18  and  C4_12 
ROOT
HETATM    1 Cl1  UNK     1      20.264  -0.703  28.618  1.00  0.00    -0.077 Cl
HETATM    2  O1  UNK     1      18.568   1.302  31.662  1.00  0.00    -0.307 OA
HETATM    3  O2  UNK     1      20.376  -2.304  31.098  1.00  0.00    -0.286 OA
HETATM    4  C1  UNK     1      19.313  -0.817  32.576  1.00  0.00     0.052 A 
HETATM    5  C2  UNK     1      18.706   0.427  32.708  1.00  0.00     0.090 A 
HETATM    6  C3  UNK     1      19.833  -1.219  31.260  1.00  0.00     0.209 A 
HETATM    7  C4  UNK     1      19.052   0.939  30.411  1.00  0.00     0.143 A 
HETATM    8  C5  UNK     1      19.426  -1.667  33.680  1.00  0.00     0.054 A 
HETATM    9  C6  UNK     1      19.658  -0.236  30.163  1.00  0.00     0.120 A 
HETATM   10  C7  UNK     1      18.205   0.833  33.945  1.00  0.00     0.041 A 
HETATM   11  C8  UNK     1      18.925  -1.260  34.917  1.00  0.00     0.104 A 
HETATM   12  C9  UNK     1      18.316  -0.012  35.050  1.00  0.00     0.039 A 
ENDROOT
BRANCH   7  13
HETATM   13  C10 UNK     1      18.812   2.019  29.396  1.00  0.00     0.412 C 
HETATM   14  F1  UNK     1      17.566   1.908  28.883  1.00  0.00    -0.207 F 
HETATM   15  F2  UNK     1      18.898   3.235  29.979  1.00  0.00    -0.207 F 
ENDBRANCH   7  13
BRANCH  11  16
HETATM   16  N1  UNK     1      19.035  -2.118  36.044  1.00  0.00    -0.116 N 
HETATM   17  O3  UNK     1      18.133  -2.094  36.916  1.00  0.00    -0.532 OA
HETATM   18  O4  UNK     1      20.032  -2.874  36.137  1.00  0.00    -0.532 OA
ENDBRANCH  11  16
TORSDOF 2
ENDMDL
MODEL 7
REMARK VINA RESULT:      -7.2      4.306      6.036
REMARK  2 active torsions:
REMARK  status: ('A' for Active; 'I' for Inactive)
REMARK    1  A    between atoms: C8_16  and  N1_8 
REMARK    2  A    between atoms: C10_18  and  C4_12 
ROOT
HETATM    1 Cl1  UNK     1      17.016   0.941  36.263  1.00  0.00    -0.077 Cl
HETATM    2  O1  UNK     1      19.348  -1.844  34.543  1.00  0.00    -0.307 OA
HETATM    3  O2  UNK     1      17.570   1.654  33.451  1.00  0.00    -0.286 OA
HETATM    4  C1  UNK     1      18.915  -0.174  32.838  1.00  0.00     0.052 A 
HETATM    5  C2  UNK     1      19.498  -1.361  33.269  1.00  0.00     0.090 A 
HETATM    6  C3  UNK     1      18.100   0.603  33.785  1.00  0.00     0.209 A 
HETATM    7  C4  UNK     1      18.581  -1.125  35.451  1.00  0.00     0.143 A 
HETATM    8  C5  UNK     1      19.103   0.270  31.527  1.00  0.00     0.054 A 
HETATM    9  C6  UNK     1      17.970   0.035  35.150  1.00  0.00     0.120 A 
HETATM   10  C7  UNK     1      20.276  -2.116  32.391  1.00  0.00     0.041 A 
HETATM   11  C8  UNK     1      19.881  -0.487  30.649  1.00  0.00     0.104 A 
HETATM   12  C9  UNK     1      20.467  -1.677  31.080  1.00  0.00     0.039 A 
ENDROOT
BRANCH   7  13
HETATM   13  C10 UNK     1      18.532  -1.807  36.788  1.00  0.00     0.412 C 
HETATM   14  F1  UNK     1      17.501  -2.679  36.828  1.00  0.00    -0.207 F 
HETATM   15  F2  UNK     1      19.664  -2.515  36.992  1.00  0.00    -0.207 F 
ENDBRANCH   7  13
BRANCH  11  16
HETATM   16  N1  UNK     1      20.079  -0.044  29.314  1.00  0.00    -0.116 N 
HETATM   17  O3  UNK     1      20.938  -0.619  28.604  1.00  0.00    -0.532 OA
HETATM   18  O4  UNK     1      19.389   0.911  28.882  1.00  0.00    -0.532 OA
ENDBRANCH  11  16
TORSDOF 2
ENDMDL
MODEL 8
REMARK VINA RESULT:      -7.2      6.194      7.578
REMARK  2 active torsions:
REMARK  status: ('A' for Active; 'I' for Inactive)
REMARK    1  A    between atoms: C8_16  and  N1_8 
REMARK    2  A    between atoms: C10_18  and  C4_12 
ROOT
HETATM    1 Cl1  UNK     1      21.224   6.154  32.666  1.00  0.00    -0.077 Cl
HETATM    2  O1  UNK     1      17.596   6.976  31.143  1.00  0.00    -0.307 OA
HETATM    3  O2  UNK     1      19.742   7.977  34.457  1.00  0.00    -0.286 OA
HETATM    4  C1  UNK     1      17.745   8.192  33.237  1.00  0.00     0.052 A 
HETATM    5  C2  UNK     1      17.061   7.815  32.086  1.00  0.00     0.090 A 
HETATM    6  C3  UNK     1      19.103   7.671  33.459  1.00  0.00     0.209 A 
HETATM    7  C4  UNK     1      18.877   6.474  31.337  1.00  0.00     0.143 A 
HETATM    8  C5  UNK     1      17.148   9.051  34.163  1.00  0.00     0.054 A 
HETATM    9  C6  UNK     1      19.633   6.767  32.409  1.00  0.00     0.120 A 
HETATM   10  C7  UNK     1      15.772   8.295  31.850  1.00  0.00     0.041 A 
HETATM   11  C8  UNK     1      15.859   9.531  33.926  1.00  0.00     0.104 A 
HETATM   12  C9  UNK     1      15.172   9.154  32.772  1.00  0.00     0.039 A 
ENDROOT
BRANCH   7  13
HETATM   13  C10 UNK     1      19.291   5.577  30.206  1.00  0.00     0.412 C 
HETATM   14  F1  UNK     1      20.418   6.047  29.628  1.00  0.00    -0.207 F 
HETATM   15  F2  UNK     1      19.564   4.338  30.668  1.00  0.00    -0.207 F 
ENDBRANCH   7  13
BRANCH  11  16
HETATM   16  N1  UNK     1      15.244  10.405  34.862  1.00  0.00    -0.116 N 
HETATM   17  O3  UNK     1      15.927  11.323  35.375  1.00  0.00    -0.532 OA
HETATM   18  O4  UNK     1      14.034  10.234  35.149  1.00  0.00    -0.532 OA
ENDBRANCH  11  16
TORSDOF 2
ENDMDL
MODEL 9
REMARK VINA RESULT:      -7.1      4.650      6.449
REMARK  2 active torsions:
REMARK  status: ('A' for Active; 'I' for Inactive)
REMARK    1  A    between atoms: C8_16  and  N1_8 
REMARK    2  A    between atoms: C10_18  and  C4_12 
ROOT
HETATM    1 Cl1  UNK     1      18.064  -1.641  37.412  1.00  0.00    -0.077 Cl
HETATM    2  O1  UNK     1      20.422  -2.978  34.444  1.00  0.00    -0.307 OA
HETATM    3  O2  UNK     1      17.683  -0.011  34.978  1.00  0.00    -0.286 OA
HETATM    4  C1  UNK     1      19.193  -1.094  33.538  1.00  0.00     0.052 A 
HETATM    5  C2  UNK     1      20.119  -2.125  33.416  1.00  0.00     0.090 A 
HETATM    6  C3  UNK     1      18.504  -0.905  34.824  1.00  0.00     0.209 A 
HETATM    7  C4  UNK     1      19.781  -2.816  35.666  1.00  0.00     0.143 A 
HETATM    8  C5  UNK     1      18.925  -0.253  32.454  1.00  0.00     0.054 A 
HETATM    9  C6  UNK     1      18.869  -1.857  35.903  1.00  0.00     0.120 A 
HETATM   10  C7  UNK     1      20.787  -2.324  32.207  1.00  0.00     0.041 A 
HETATM   11  C8  UNK     1      19.593  -0.454  31.245  1.00  0.00     0.104 A 
HETATM   12  C9  UNK     1      20.522  -1.487  31.121  1.00  0.00     0.039 A 
ENDROOT
BRANCH   7  13
HETATM   13  C10 UNK     1      20.240  -3.839  36.665  1.00  0.00     0.412 C 
HETATM   14  F1  UNK     1      20.619  -3.232  37.812  1.00  0.00    -0.207 F 
HETATM   15  F2  UNK     1      19.228  -4.679  36.972  1.00  0.00    -0.207 F 
ENDBRANCH   7  13
BRANCH  11  16
HETATM   16  N1  UNK     1      19.327   0.395  30.138  1.00  0.00    -0.116 N 
HETATM   17  O3  UNK     1      18.326   1.150  30.178  1.00  0.00    -0.532 OA
HETATM   18  O4  UNK     1      20.101   0.365  29.151  1.00  0.00    -0.532 OA
ENDBRANCH  11  16
TORSDOF 2
ENDMDL
MODEL 10
REMARK VINA RESULT:      -7.0      3.170      4.247
REMARK  2 active torsions:
REMARK  status: ('A' for Active; 'I' for Inactive)
REMARK    1  A    between atoms: C8_16  and  N1_8 
REMARK    2  A    between atoms: C10_18  and  C4_12 
ROOT
HETATM    1 Cl1  UNK     1      19.344   0.166  28.580  1.00  0.00    -0.077 Cl
HETATM    2  O1  UNK     1      18.894   0.860  32.514  1.00  0.00    -0.307 OA
HETATM    3  O2  UNK     1      18.625   2.992  29.054  1.00  0.00    -0.286 OA
HETATM    4  C1  UNK     1      18.464   2.971  31.399  1.00  0.00     0.052 A 
HETATM    5  C2  UNK     1      18.571   2.191  32.546  1.00  0.00     0.090 A 
HETATM    6  C3  UNK     1      18.709   2.346  30.090  1.00  0.00     0.209 A 
HETATM    7  C4  UNK     1      19.129   0.253  31.287  1.00  0.00     0.143 A 
HETATM    8  C5  UNK     1      18.131   4.324  31.493  1.00  0.00     0.054 A 
HETATM    9  C6  UNK     1      19.055   0.903  30.112  1.00  0.00     0.120 A 
HETATM   10  C7  UNK     1      18.343   2.760  33.800  1.00  0.00     0.041 A 
HETATM   11  C8  UNK     1      17.904   4.892  32.748  1.00  0.00     0.104 A 
HETATM   12  C9  UNK     1      18.010   4.111  33.900  1.00  0.00     0.039 A 
ENDROOT
BRANCH   7  13
HETATM   13  C10 UNK     1      19.467  -1.201  31.450  1.00  0.00     0.412 C 
HETATM   14  F1  UNK     1      20.808  -1.368  31.468  1.00  0.00    -0.207 F 
HETATM   15  F2  UNK     1      18.990  -1.662  32.627  1.00  0.00    -0.207 F 
ENDBRANCH   7  13
BRANCH  11  16
HETATM   16  N1  UNK     1      17.564   6.267  32.854  1.00  0.00    -0.116 N 
HETATM   17  O3  UNK     1      16.497   6.586  33.431  1.00  0.00    -0.532 OA
HETATM   18  O4  UNK     1      18.340   7.124  32.367  1.00  0.00    -0.532 OA
ENDBRANCH  11  16
TORSDOF 2
ENDMDL
