MODEL 1
REMARK VINA RESULT:      -6.8      0.000      0.000
REMARK  2 active torsions:
REMARK  status: ('A' for Active; 'I' for Inactive)
REMARK    1  A    between atoms: C1_3  and  C3_5 
REMARK    2  A    between atoms: C2_4  and  C4_6 
ROOT
HETATM    1 Cl1  UNK     1      19.173   9.151  34.085  1.00  0.00    -0.082 Cl
HETATM    2 Cl2  UNK     1      21.224   6.890  33.041  1.00  0.00    -0.082 Cl
HETATM    3  C3  UNK     1      18.631   7.710  33.267  1.00  0.00     0.066 C 
HETATM    4  C4  UNK     1      19.504   6.766  32.834  1.00  0.00     0.066 C 
ENDROOT
BRANCH   3   5
HETATM    5  C1  UNK     1      17.190   7.621  33.100  1.00  0.00    -0.013 A 
HETATM    6  C5  UNK     1      16.370   7.417  34.210  1.00  0.00     0.013 A 
HETATM    7  C9  UNK     1      14.987   7.331  34.051  1.00  0.00     0.001 A 
HETATM    8  C13 UNK     1      14.423   7.449  32.780  1.00  0.00     0.000 A 
HETATM    9  C11 UNK     1      15.243   7.653  31.669  1.00  0.00     0.001 A 
HETATM   10  C7  UNK     1      16.626   7.739  31.830  1.00  0.00     0.013 A 
ENDBRANCH   3   5
BRANCH   4  11
HETATM   11  C2  UNK     1      19.075   5.542  32.142  1.00  0.00    -0.013 A 
HETATM   12  C6  UNK     1      19.327   5.402  30.786  1.00  0.00     0.013 A 
HETATM   13  C10 UNK     1      18.919   4.240  30.129  1.00  0.00     0.001 A 
HETATM   14  C14 UNK     1      18.263   3.233  30.837  1.00  0.00     0.000 A 
HETATM   15  C12 UNK     1      18.015   3.387  32.200  1.00  0.00     0.001 A 
HETATM   16  C8  UNK     1      18.423   4.549  32.857  1.00  0.00     0.013 A 
ENDBRANCH   4  11
TORSDOF 2
ENDMDL
MODEL 2
REMARK VINA RESULT:      -6.8      0.028      4.201
REMARK  2 active torsions:
REMARK  status: ('A' for Active; 'I' for Inactive)
REMARK    1  A    between atoms: C1_3  and  C3_5 
REMARK    2  A    between atoms: C2_4  and  C4_6 
ROOT
HETATM    1 Cl1  UNK     1      21.214   6.867  33.048  1.00  0.00    -0.082 Cl
HETATM    2 Cl2  UNK     1      19.167   9.138  34.080  1.00  0.00    -0.082 Cl
HETATM    3  C3  UNK     1      19.490   6.734  32.830  1.00  0.00     0.066 C 
HETATM    4  C4  UNK     1      18.639   7.696  33.268  1.00  0.00     0.066 C 
ENDROOT
BRANCH   3   5
HETATM    5  C1  UNK     1      19.063   5.522  32.150  1.00  0.00    -0.013 A 
HETATM    6  C5  UNK     1      18.402   4.519  32.859  1.00  0.00     0.013 A 
HETATM    7  C9  UNK     1      17.992   3.356  32.208  1.00  0.00     0.001 A 
HETATM    8  C13 UNK     1      18.242   3.196  30.845  1.00  0.00     0.000 A 
HETATM    9  C11 UNK     1      18.903   4.199  30.134  1.00  0.00     0.001 A 
HETATM   10  C7  UNK     1      19.313   5.362  30.787  1.00  0.00     0.013 A 
ENDBRANCH   3   5
BRANCH   4  11
HETATM   11  C2  UNK     1      17.182   7.609  33.098  1.00  0.00    -0.013 A 
HETATM   12  C6  UNK     1      16.635   7.728  31.829  1.00  0.00     0.013 A 
HETATM   13  C10 UNK     1      15.252   7.646  31.668  1.00  0.00     0.001 A 
HETATM   14  C14 UNK     1      14.431   7.446  32.778  1.00  0.00     0.000 A 
HETATM   15  C12 UNK     1      14.994   7.329  34.049  1.00  0.00     0.001 A 
HETATM   16  C8  UNK     1      16.377   7.411  34.210  1.00  0.00     0.013 A 
ENDBRANCH   4  11
TORSDOF 2
ENDMDL
MODEL 3
REMARK VINA RESULT:      -6.4      2.354      3.864
REMARK  2 active torsions:
REMARK  status: ('A' for Active; 'I' for Inactive)
REMARK    1  A    between atoms: C1_3  and  C3_5 
REMARK    2  A    between atoms: C2_4  and  C4_6 
ROOT
HETATM    1 Cl1  UNK     1      15.086   9.362  34.146  1.00  0.00    -0.082 Cl
HETATM    2 Cl2  UNK     1      14.472   6.960  32.082  1.00  0.00    -0.082 Cl
HETATM    3  C3  UNK     1      16.354   8.396  33.441  1.00  0.00     0.066 C 
HETATM    4  C4  UNK     1      16.082   7.388  32.573  1.00  0.00     0.066 C 
ENDROOT
BRANCH   3   5
HETATM    5  C1  UNK     1      17.695   8.765  33.861  1.00  0.00    -0.013 A 
HETATM    6  C5  UNK     1      18.532   7.812  34.442  1.00  0.00     0.013 A 
HETATM    7  C9  UNK     1      19.819   8.165  34.846  1.00  0.00     0.001 A 
HETATM    8  C13 UNK     1      20.271   9.473  34.668  1.00  0.00     0.000 A 
HETATM    9  C11 UNK     1      19.435  10.427  34.086  1.00  0.00     0.001 A 
HETATM   10  C7  UNK     1      18.147  10.073  33.683  1.00  0.00     0.013 A 
ENDBRANCH   3   5
BRANCH   4  11
HETATM   11  C2  UNK     1      17.131   6.557  31.964  1.00  0.00    -0.013 A 
HETATM   12  C6  UNK     1      17.426   5.320  32.516  1.00  0.00     0.013 A 
HETATM   13  C10 UNK     1      18.422   4.531  31.938  1.00  0.00     0.001 A 
HETATM   14  C14 UNK     1      19.110   4.990  30.815  1.00  0.00     0.000 A 
HETATM   15  C12 UNK     1      18.804   6.237  30.270  1.00  0.00     0.001 A 
HETATM   16  C8  UNK     1      17.808   7.026  30.848  1.00  0.00     0.013 A 
ENDBRANCH   4  11
TORSDOF 2
ENDMDL
MODEL 4
REMARK VINA RESULT:      -6.0     17.245     18.943
REMARK  2 active torsions:
REMARK  status: ('A' for Active; 'I' for Inactive)
REMARK    1  A    between atoms: C1_3  and  C3_5 
REMARK    2  A    between atoms: C2_4  and  C4_6 
ROOT
HETATM    1 Cl1  UNK     1      26.937  -4.932  38.655  1.00  0.00    -0.082 Cl
HETATM    2 Cl2  UNK     1      29.883  -4.007  37.718  1.00  0.00    -0.082 Cl
HETATM    3  C3  UNK     1      28.187  -6.077  38.251  1.00  0.00     0.066 C 
HETATM    4  C4  UNK     1      29.422  -5.676  37.859  1.00  0.00     0.066 C 
ENDROOT
BRANCH   3   5
HETATM    5  C1  UNK     1      27.787  -7.470  38.373  1.00  0.00    -0.013 A 
HETATM    6  C5  UNK     1      27.864  -8.112  39.608  1.00  0.00     0.013 A 
HETATM    7  C9  UNK     1      27.480  -9.448  39.726  1.00  0.00     0.001 A 
HETATM    8  C13 UNK     1      27.020 -10.142  38.607  1.00  0.00     0.000 A 
HETATM    9  C11 UNK     1      26.943  -9.500  37.371  1.00  0.00     0.001 A 
HETATM   10  C7  UNK     1      27.327  -8.163  37.254  1.00  0.00     0.013 A 
ENDBRANCH   3   5
BRANCH   4  11
HETATM   11  C2  UNK     1      30.495  -6.620  37.512  1.00  0.00    -0.013 A 
HETATM   12  C6  UNK     1      31.322  -7.108  38.512  1.00  0.00     0.013 A 
HETATM   13  C10 UNK     1      32.340  -8.004  38.183  1.00  0.00     0.001 A 
HETATM   14  C14 UNK     1      32.518  -8.400  36.858  1.00  0.00     0.000 A 
HETATM   15  C12 UNK     1      31.680  -7.901  35.862  1.00  0.00     0.001 A 
HETATM   16  C8  UNK     1      30.662  -7.005  36.191  1.00  0.00     0.013 A 
ENDBRANCH   4  11
TORSDOF 2
ENDMDL
MODEL 5
REMARK VINA RESULT:      -5.9     13.099     15.806
REMARK  2 active torsions:
REMARK  status: ('A' for Active; 'I' for Inactive)
REMARK    1  A    between atoms: C1_3  and  C3_5 
REMARK    2  A    between atoms: C2_4  and  C4_6 
ROOT
HETATM    1 Cl1  UNK     1      22.010 -10.136  34.744  1.00  0.00    -0.082 Cl
HETATM    2 Cl2  UNK     1      20.939  -7.453  33.308  1.00  0.00    -0.082 Cl
HETATM    3  C3  UNK     1      20.963  -9.003  35.554  1.00  0.00     0.066 C 
HETATM    4  C4  UNK     1      20.519  -7.877  34.939  1.00  0.00     0.066 C 
ENDROOT
BRANCH   3   5
HETATM    5  C1  UNK     1      20.620  -9.371  36.918  1.00  0.00    -0.013 A 
HETATM    6  C5  UNK     1      21.233  -8.724  37.991  1.00  0.00     0.013 A 
HETATM    7  C9  UNK     1      20.905  -9.076  39.300  1.00  0.00     0.001 A 
HETATM    8  C13 UNK     1      19.962 -10.077  39.536  1.00  0.00     0.000 A 
HETATM    9  C11 UNK     1      19.348 -10.725  38.463  1.00  0.00     0.001 A 
HETATM   10  C7  UNK     1      19.677 -10.371  37.154  1.00  0.00     0.013 A 
ENDBRANCH   3   5
BRANCH   4  11
HETATM   11  C2  UNK     1      19.636  -6.904  35.598  1.00  0.00    -0.013 A 
HETATM   12  C6  UNK     1      20.156  -5.692  36.026  1.00  0.00     0.013 A 
HETATM   13  C10 UNK     1      19.318  -4.769  36.652  1.00  0.00     0.001 A 
HETATM   14  C14 UNK     1      17.969  -5.070  36.844  1.00  0.00     0.000 A 
HETATM   15  C12 UNK     1      17.459  -6.293  36.410  1.00  0.00     0.001 A 
HETATM   16  C8  UNK     1      18.297  -7.216  35.784  1.00  0.00     0.013 A 
ENDBRANCH   4  11
TORSDOF 2
ENDMDL
MODEL 6
REMARK VINA RESULT:      -5.9     13.185     15.542
REMARK  2 active torsions:
REMARK  status: ('A' for Active; 'I' for Inactive)
REMARK    1  A    between atoms: C1_3  and  C3_5 
REMARK    2  A    between atoms: C2_4  and  C4_6 
ROOT
HETATM    1 Cl1  UNK     1      21.011  -7.589  33.333  1.00  0.00    -0.082 Cl
HETATM    2 Cl2  UNK     1      22.101 -10.225  34.840  1.00  0.00    -0.082 Cl
HETATM    3  C3  UNK     1      20.555  -7.980  34.969  1.00  0.00     0.066 C 
HETATM    4  C4  UNK     1      21.020  -9.092  35.592  1.00  0.00     0.066 C 
ENDROOT
BRANCH   3   5
HETATM    5  C1  UNK     1      19.650  -7.024  35.585  1.00  0.00    -0.013 A 
HETATM    6  C5  UNK     1      20.138  -5.806  36.057  1.00  0.00     0.013 A 
HETATM    7  C9  UNK     1      19.271  -4.887  36.649  1.00  0.00     0.001 A 
HETATM    8  C13 UNK     1      17.914  -5.188  36.768  1.00  0.00     0.000 A 
HETATM    9  C11 UNK     1      17.424  -6.406  36.296  1.00  0.00     0.001 A 
HETATM   10  C7  UNK     1      18.293  -7.324  35.704  1.00  0.00     0.013 A 
ENDBRANCH   3   5
BRANCH   4  11
HETATM   11  C2  UNK     1      20.652  -9.447  36.970  1.00  0.00    -0.013 A 
HETATM   12  C6  UNK     1      21.273  -8.801  38.029  1.00  0.00     0.013 A 
HETATM   13  C10 UNK     1      20.923  -9.138  39.337  1.00  0.00     0.001 A 
HETATM   14  C14 UNK     1      19.957 -10.117  39.571  1.00  0.00     0.000 A 
HETATM   15  C12 UNK     1      19.341 -10.759  38.497  1.00  0.00     0.001 A 
HETATM   16  C8  UNK     1      19.691 -10.422  37.189  1.00  0.00     0.013 A 
ENDBRANCH   4  11
TORSDOF 2
ENDMDL
MODEL 7
REMARK VINA RESULT:      -5.9     17.170     19.156
REMARK  2 active torsions:
REMARK  status: ('A' for Active; 'I' for Inactive)
REMARK    1  A    between atoms: C1_3  and  C3_5 
REMARK    2  A    between atoms: C2_4  and  C4_6 
ROOT
HETATM    1 Cl1  UNK     1      29.852  -3.988  37.655  1.00  0.00    -0.082 Cl
HETATM    2 Cl2  UNK     1      26.888  -4.898  38.547  1.00  0.00    -0.082 Cl
HETATM    3  C3  UNK     1      29.401  -5.665  37.808  1.00  0.00     0.066 C 
HETATM    4  C4  UNK     1      28.151  -6.035  38.184  1.00  0.00     0.066 C 
ENDROOT
BRANCH   3   5
HETATM    5  C1  UNK     1      30.468  -6.604  37.502  1.00  0.00    -0.013 A 
HETATM    6  C5  UNK     1      30.601  -7.112  36.210  1.00  0.00     0.013 A 
HETATM    7  C9  UNK     1      31.624  -8.013  35.916  1.00  0.00     0.001 A 
HETATM    8  C13 UNK     1      32.515  -8.406  36.914  1.00  0.00     0.000 A 
HETATM    9  C11 UNK     1      32.383  -7.898  38.207  1.00  0.00     0.001 A 
HETATM   10  C7  UNK     1      31.359  -6.997  38.501  1.00  0.00     0.013 A 
ENDBRANCH   3   5
BRANCH   4  11
HETATM   11  C2  UNK     1      27.743  -7.441  38.322  1.00  0.00    -0.013 A 
HETATM   12  C6  UNK     1      27.970  -8.102  39.519  1.00  0.00     0.013 A 
HETATM   13  C10 UNK     1      27.584  -9.436  39.649  1.00  0.00     0.001 A 
HETATM   14  C14 UNK     1      26.976 -10.094  38.580  1.00  0.00     0.000 A 
HETATM   15  C12 UNK     1      26.756  -9.417  37.380  1.00  0.00     0.001 A 
HETATM   16  C8  UNK     1      27.142  -8.083  37.250  1.00  0.00     0.013 A 
ENDBRANCH   4  11
TORSDOF 2
ENDMDL
MODEL 8
REMARK VINA RESULT:      -5.8     13.809     15.962
REMARK  2 active torsions:
REMARK  status: ('A' for Active; 'I' for Inactive)
REMARK    1  A    between atoms: C1_3  and  C3_5 
REMARK    2  A    between atoms: C2_4  and  C4_6 
ROOT
HETATM    1 Cl1  UNK     1      18.067  -7.310  35.050  1.00  0.00    -0.082 Cl
HETATM    2 Cl2  UNK     1      18.820  -4.964  37.133  1.00  0.00    -0.082 Cl
HETATM    3  C3  UNK     1      19.397  -7.450  36.168  1.00  0.00     0.066 C 
HETATM    4  C4  UNK     1      19.703  -6.456  37.040  1.00  0.00     0.066 C 
ENDROOT
BRANCH   3   5
HETATM    5  C1  UNK     1      20.127  -8.704  36.078  1.00  0.00    -0.013 A 
HETATM    6  C5  UNK     1      19.753  -9.788  36.872  1.00  0.00     0.013 A 
HETATM    7  C9  UNK     1      20.453 -10.992  36.786  1.00  0.00     0.001 A 
HETATM    8  C13 UNK     1      21.528 -11.111  35.906  1.00  0.00     0.000 A 
HETATM    9  C11 UNK     1      21.904 -10.026  35.111  1.00  0.00     0.001 A 
HETATM   10  C7  UNK     1      21.203  -8.823  35.198  1.00  0.00     0.013 A 
ENDBRANCH   3   5
BRANCH   4  11
HETATM   11  C2  UNK     1      20.819  -6.548  37.993  1.00  0.00    -0.013 A 
HETATM   12  C6  UNK     1      20.807  -7.538  38.963  1.00  0.00     0.013 A 
HETATM   13  C10 UNK     1      21.865  -7.625  39.868  1.00  0.00     0.001 A 
HETATM   14  C14 UNK     1      22.924  -6.719  39.791  1.00  0.00     0.000 A 
HETATM   15  C12 UNK     1      22.923  -5.727  38.811  1.00  0.00     0.001 A 
HETATM   16  C8  UNK     1      21.865  -5.641  37.906  1.00  0.00     0.013 A 
ENDBRANCH   4  11
TORSDOF 2
ENDMDL
MODEL 9
REMARK VINA RESULT:      -5.8     13.834     15.634
REMARK  2 active torsions:
REMARK  status: ('A' for Active; 'I' for Inactive)
REMARK    1  A    between atoms: C1_3  and  C3_5 
REMARK    2  A    between atoms: C2_4  and  C4_6 
ROOT
HETATM    1 Cl1  UNK     1      18.908  -4.937  37.192  1.00  0.00    -0.082 Cl
HETATM    2 Cl2  UNK     1      18.092  -7.258  35.105  1.00  0.00    -0.082 Cl
HETATM    3  C3  UNK     1      19.775  -6.446  37.093  1.00  0.00     0.066 C 
HETATM    4  C4  UNK     1      19.422  -7.414  36.211  1.00  0.00     0.066 C 
ENDROOT
BRANCH   3   5
HETATM    5  C1  UNK     1      20.885  -6.563  38.025  1.00  0.00    -0.013 A 
HETATM    6  C5  UNK     1      20.898  -7.588  38.971  1.00  0.00     0.013 A 
HETATM    7  C9  UNK     1      21.962  -7.701  39.865  1.00  0.00     0.001 A 
HETATM    8  C13 UNK     1      23.016  -6.788  39.813  1.00  0.00     0.000 A 
HETATM    9  C11 UNK     1      23.004  -5.762  38.867  1.00  0.00     0.001 A 
HETATM   10  C7  UNK     1      21.939  -5.650  37.973  1.00  0.00     0.013 A 
ENDBRANCH   3   5
BRANCH   4  11
HETATM   11  C2  UNK     1      20.136  -8.696  36.106  1.00  0.00    -0.013 A 
HETATM   12  C6  UNK     1      21.208  -8.810  35.236  1.00  0.00     0.013 A 
HETATM   13  C10 UNK     1      21.885 -10.026  35.136  1.00  0.00     0.001 A 
HETATM   14  C14 UNK     1      21.479 -11.114  35.909  1.00  0.00     0.000 A 
HETATM   15  C12 UNK     1      20.398 -10.987  36.780  1.00  0.00     0.001 A 
HETATM   16  C8  UNK     1      19.721  -9.770  36.879  1.00  0.00     0.013 A 
ENDBRANCH   4  11
TORSDOF 2
ENDMDL
MODEL 10
REMARK VINA RESULT:      -5.8     17.231     19.166
REMARK  2 active torsions:
REMARK  status: ('A' for Active; 'I' for Inactive)
REMARK    1  A    between atoms: C1_3  and  C3_5 
REMARK    2  A    between atoms: C2_4  and  C4_6 
ROOT
HETATM    1 Cl1  UNK     1      27.645  -6.192  33.062  1.00  0.00    -0.082 Cl
HETATM    2 Cl2  UNK     1      26.990  -6.143  29.903  1.00  0.00    -0.082 Cl
HETATM    3  C3  UNK     1      28.378  -7.308  31.943  1.00  0.00     0.066 C 
HETATM    4  C4  UNK     1      28.095  -7.277  30.616  1.00  0.00     0.066 C 
ENDROOT
BRANCH   3   5
HETATM    5  C1  UNK     1      29.300  -8.252  32.554  1.00  0.00    -0.013 A 
HETATM    6  C5  UNK     1      28.867  -9.536  32.884  1.00  0.00     0.013 A 
HETATM    7  C9  UNK     1      29.751 -10.442  33.470  1.00  0.00     0.001 A 
HETATM    8  C13 UNK     1      31.069 -10.064  33.726  1.00  0.00     0.000 A 
HETATM    9  C11 UNK     1      31.503  -8.779  33.395  1.00  0.00     0.001 A 
HETATM   10  C7  UNK     1      30.618  -7.874  32.809  1.00  0.00     0.013 A 
ENDBRANCH   3   5
BRANCH   4  11
HETATM   11  C2  UNK     1      28.699  -8.207  29.650  1.00  0.00    -0.013 A 
HETATM   12  C6  UNK     1      29.976  -7.958  29.171  1.00  0.00     0.013 A 
HETATM   13  C10 UNK     1      30.548  -8.840  28.254  1.00  0.00     0.001 A 
HETATM   14  C14 UNK     1      29.836  -9.961  27.827  1.00  0.00     0.000 A 
HETATM   15  C12 UNK     1      28.552 -10.199  28.316  1.00  0.00     0.001 A 
HETATM   16  C8  UNK     1      27.979  -9.317  29.233  1.00  0.00     0.013 A 
ENDBRANCH   4  11
TORSDOF 2
ENDMDL
