MODEL 1
REMARK VINA RESULT:      -8.5      0.000      0.000
REMARK  5 active torsions:
REMARK  status: ('A' for Active; 'I' for Inactive)
REMARK    1  A    between atoms: C11_17  and  O2_3 
REMARK    2  A    between atoms: C5_11  and  O2_3 
REMARK    3  A    between atoms: C10_16  and  O3_4 
REMARK    4  A    between atoms: C7_13  and  O3_4 
REMARK    5  A    between atoms: C11_17  and  C14_20 
ROOT
HETATM    1  O1  UNK     1      19.384   4.734  30.271  1.00  0.00    -0.319 OA
HETATM    2  O4  UNK     1      17.600   2.317  33.038  1.00  0.00    -0.284 OA
HETATM    3  C1  UNK     1      18.568   4.417  32.541  1.00  0.00     0.051 A 
HETATM    4  C2  UNK     1      19.172   5.193  31.549  1.00  0.00     0.092 A 
HETATM    5  C3  UNK     1      18.135   3.045  32.213  1.00  0.00     0.220 A 
HETATM    6  C4  UNK     1      19.588   6.493  31.837  1.00  0.00     0.075 A 
HETATM    7  C5  UNK     1      19.399   7.014  33.117  1.00  0.00     0.071 A 
HETATM    8  C6  UNK     1      18.377   4.936  33.823  1.00  0.00     0.021 A 
HETATM    9  C7  UNK     1      18.386   2.602  30.823  1.00  0.00     0.149 A 
HETATM   10  C8  UNK     1      18.795   6.237  34.107  1.00  0.00     0.038 A 
HETATM   11  C9  UNK     1      18.974   3.456  29.981  1.00  0.00     0.184 A 
ENDROOT
BRANCH   9  12
HETATM   12  O3  UNK     1      18.012   1.337  30.437  1.00  0.00    -0.303 OA
BRANCH  12  13
HETATM   13  C10 UNK     1      19.013   0.426  30.238  1.00  0.00     0.098 A 
HETATM   14  C12 UNK     1      19.412  -0.436  31.257  1.00  0.00     0.067 A 
HETATM   15 Cl1  UNK     1      18.663  -0.389  32.810  1.00  0.00    -0.081 Cl
HETATM   16  C15 UNK     1      20.434  -1.356  31.026  1.00  0.00     0.026 A 
HETATM   17  C17 UNK     1      21.055  -1.410  29.778  1.00  0.00     0.002 A 
HETATM   18  C16 UNK     1      20.652  -0.546  28.760  1.00  0.00     0.003 A 
HETATM   19  C13 UNK     1      19.629   0.374  28.991  1.00  0.00     0.039 A 
ENDBRANCH  12  13
ENDBRANCH   9  12
BRANCH   7  20
HETATM   20  O2  UNK     1      19.804   8.281  33.401  1.00  0.00    -0.344 OA
BRANCH  20  21
HETATM   21  C11 UNK     1      19.118   8.963  34.450  1.00  0.00     0.253 C 
BRANCH  21  22
HETATM   22  C14 UNK     1      18.139   9.969  33.882  1.00  0.00     0.146 C 
HETATM   23  O5  UNK     1      18.489  11.081  33.490  1.00  0.00    -0.296 OA
HETATM   24  C18 UNK     1      16.698   9.536  33.821  1.00  0.00     0.093 C 
ENDBRANCH  21  22
ENDBRANCH  20  21
ENDBRANCH   7  20
TORSDOF 5
ENDMDL
MODEL 2
REMARK VINA RESULT:      -8.5     22.849     24.534
REMARK  5 active torsions:
REMARK  status: ('A' for Active; 'I' for Inactive)
REMARK    1  A    between atoms: C11_17  and  O2_3 
REMARK    2  A    between atoms: C5_11  and  O2_3 
REMARK    3  A    between atoms: C10_16  and  O3_4 
REMARK    4  A    between atoms: C7_13  and  O3_4 
REMARK    5  A    between atoms: C11_17  and  C14_20 
ROOT
HETATM    1  O1  UNK     1      13.576   9.423   9.107  1.00  0.00    -0.319 OA
HETATM    2  O4  UNK     1      13.759   5.493  10.200  1.00  0.00    -0.284 OA
HETATM    3  C1  UNK     1      14.911   7.526   9.838  1.00  0.00     0.051 A 
HETATM    4  C2  UNK     1      14.781   8.863   9.456  1.00  0.00     0.092 A 
HETATM    5  C3  UNK     1      13.710   6.671   9.873  1.00  0.00     0.220 A 
HETATM    6  C4  UNK     1      15.904   9.690   9.417  1.00  0.00     0.075 A 
HETATM    7  C5  UNK     1      17.155   9.178   9.761  1.00  0.00     0.071 A 
HETATM    8  C6  UNK     1      16.163   7.011  10.184  1.00  0.00     0.021 A 
HETATM    9  C7  UNK     1      12.439   7.324   9.489  1.00  0.00     0.149 A 
HETATM   10  C8  UNK     1      17.283   7.841  10.144  1.00  0.00     0.038 A 
HETATM   11  C9  UNK     1      12.466   8.615   9.145  1.00  0.00     0.184 A 
ENDROOT
BRANCH   9  12
HETATM   12  O3  UNK     1      11.273   6.595   9.495  1.00  0.00    -0.303 OA
BRANCH  12  13
HETATM   13  C10 UNK     1      10.597   6.493   8.310  1.00  0.00     0.098 A 
HETATM   14  C12 UNK     1       9.234   6.767   8.236  1.00  0.00     0.067 A 
HETATM   15 Cl1  UNK     1       8.341   7.243   9.633  1.00  0.00    -0.081 Cl
HETATM   16  C15 UNK     1       8.570   6.655   7.015  1.00  0.00     0.026 A 
HETATM   17  C17 UNK     1       9.272   6.269   5.872  1.00  0.00     0.002 A 
HETATM   18  C16 UNK     1      10.637   5.997   5.951  1.00  0.00     0.003 A 
HETATM   19  C13 UNK     1      11.301   6.109   7.173  1.00  0.00     0.039 A 
ENDBRANCH  12  13
ENDBRANCH   9  12
BRANCH   7  20
HETATM   20  O2  UNK     1      18.252   9.982   9.724  1.00  0.00    -0.344 OA
BRANCH  20  21
HETATM   21  C11 UNK     1      18.068  11.310   9.237  1.00  0.00     0.253 C 
BRANCH  21  22
HETATM   22  C14 UNK     1      18.864  11.529   7.967  1.00  0.00     0.146 C 
HETATM   23  O5  UNK     1      20.024  11.138   7.841  1.00  0.00    -0.296 OA
HETATM   24  C18 UNK     1      18.157  12.256   6.854  1.00  0.00     0.093 C 
ENDBRANCH  21  22
ENDBRANCH  20  21
ENDBRANCH   7  20
TORSDOF 5
ENDMDL
MODEL 3
REMARK VINA RESULT:      -8.2      2.780      8.548
REMARK  5 active torsions:
REMARK  status: ('A' for Active; 'I' for Inactive)
REMARK    1  A    between atoms: C11_17  and  O2_3 
REMARK    2  A    between atoms: C5_11  and  O2_3 
REMARK    3  A    between atoms: C10_16  and  O3_4 
REMARK    4  A    between atoms: C7_13  and  O3_4 
REMARK    5  A    between atoms: C11_17  and  C14_20 
ROOT
HETATM    1  O1  UNK     1      18.101   4.253  33.544  1.00  0.00    -0.319 OA
HETATM    2  O4  UNK     1      18.595   7.166  30.725  1.00  0.00    -0.284 OA
HETATM    3  C1  UNK     1      18.489   4.856  31.220  1.00  0.00     0.051 A 
HETATM    4  C2  UNK     1      18.313   3.909  32.231  1.00  0.00     0.092 A 
HETATM    5  C3  UNK     1      18.447   6.290  31.566  1.00  0.00     0.220 A 
HETATM    6  C4  UNK     1      18.348   2.548  31.925  1.00  0.00     0.075 A 
HETATM    7  C5  UNK     1      18.559   2.137  30.609  1.00  0.00     0.071 A 
HETATM    8  C6  UNK     1      18.701   4.448  29.901  1.00  0.00     0.021 A 
HETATM    9  C7  UNK     1      18.215   6.604  32.993  1.00  0.00     0.149 A 
HETATM   10  C8  UNK     1      18.735   3.086  29.600  1.00  0.00     0.038 A 
HETATM   11  C9  UNK     1      18.063   5.591  33.850  1.00  0.00     0.184 A 
ENDROOT
BRANCH   9  12
HETATM   12  O3  UNK     1      18.162   7.917  33.398  1.00  0.00    -0.303 OA
BRANCH  12  13
HETATM   13  C10 UNK     1      16.925   8.436  33.666  1.00  0.00     0.098 A 
HETATM   14  C12 UNK     1      16.765   9.782  33.984  1.00  0.00     0.067 A 
HETATM   15 Cl1  UNK     1      18.118  10.850  34.054  1.00  0.00    -0.081 Cl
HETATM   16  C15 UNK     1      15.492  10.285  34.252  1.00  0.00     0.026 A 
HETATM   17  C17 UNK     1      14.384   9.439  34.202  1.00  0.00     0.002 A 
HETATM   18  C16 UNK     1      14.548   8.091  33.883  1.00  0.00     0.003 A 
HETATM   19  C13 UNK     1      15.822   7.589  33.614  1.00  0.00     0.039 A 
ENDBRANCH  12  13
ENDBRANCH   9  12
BRANCH   7  20
HETATM   20  O2  UNK     1      18.595   0.811  30.308  1.00  0.00    -0.344 OA
BRANCH  20  21
HETATM   21  C11 UNK     1      19.714   0.346  29.555  1.00  0.00     0.253 C 
BRANCH  21  22
HETATM   22  C14 UNK     1      20.521  -0.652  30.359  1.00  0.00     0.146 C 
HETATM   23  O5  UNK     1      21.196  -0.321  31.333  1.00  0.00    -0.296 OA
HETATM   24  C18 UNK     1      20.457  -2.085  29.901  1.00  0.00     0.093 C 
ENDBRANCH  21  22
ENDBRANCH  20  21
ENDBRANCH   7  20
TORSDOF 5
ENDMDL
MODEL 4
REMARK VINA RESULT:      -8.1      3.291      9.108
REMARK  5 active torsions:
REMARK  status: ('A' for Active; 'I' for Inactive)
REMARK    1  A    between atoms: C11_17  and  O2_3 
REMARK    2  A    between atoms: C5_11  and  O2_3 
REMARK    3  A    between atoms: C10_16  and  O3_4 
REMARK    4  A    between atoms: C7_13  and  O3_4 
REMARK    5  A    between atoms: C11_17  and  C14_20 
ROOT
HETATM    1  O1  UNK     1      16.133   6.509  32.888  1.00  0.00    -0.319 OA
HETATM    2  O4  UNK     1      19.117   8.810  34.463  1.00  0.00    -0.284 OA
HETATM    3  C1  UNK     1      18.504   7.033  33.028  1.00  0.00     0.051 A 
HETATM    4  C2  UNK     1      17.439   6.282  32.526  1.00  0.00     0.092 A 
HETATM    5  C3  UNK     1      18.227   8.118  33.988  1.00  0.00     0.220 A 
HETATM    6  C4  UNK     1      17.679   5.252  31.617  1.00  0.00     0.075 A 
HETATM    7  C5  UNK     1      18.984   4.975  31.211  1.00  0.00     0.071 A 
HETATM    8  C6  UNK     1      19.813   6.758  32.624  1.00  0.00     0.021 A 
HETATM    9  C7  UNK     1      16.804   8.320  34.343  1.00  0.00     0.149 A 
HETATM   10  C8  UNK     1      20.048   5.726  31.713  1.00  0.00     0.038 A 
HETATM   11  C9  UNK     1      15.890   7.523  33.782  1.00  0.00     0.184 A 
ENDROOT
BRANCH   9  12
HETATM   12  O3  UNK     1      16.461   9.311  35.231  1.00  0.00    -0.303 OA
BRANCH  12  13
HETATM   13  C10 UNK     1      15.670  10.323  34.760  1.00  0.00     0.098 A 
HETATM   14  C12 UNK     1      16.226  11.505  34.279  1.00  0.00     0.067 A 
HETATM   15 Cl1  UNK     1      17.934  11.745  34.260  1.00  0.00    -0.081 Cl
HETATM   16  C15 UNK     1      15.395  12.519  33.804  1.00  0.00     0.026 A 
HETATM   17  C17 UNK     1      14.011  12.347  33.811  1.00  0.00     0.002 A 
HETATM   18  C16 UNK     1      13.458  11.161  34.293  1.00  0.00     0.003 A 
HETATM   19  C13 UNK     1      14.289  10.147  34.768  1.00  0.00     0.039 A 
ENDBRANCH  12  13
ENDBRANCH   9  12
BRANCH   7  20
HETATM   20  O2  UNK     1      19.222   3.970  30.325  1.00  0.00    -0.344 OA
BRANCH  20  21
HETATM   21  C11 UNK     1      18.378   2.823  30.401  1.00  0.00     0.253 C 
BRANCH  21  22
HETATM   22  C14 UNK     1      18.424   2.037  29.108  1.00  0.00     0.146 C 
HETATM   23  O5  UNK     1      17.836   2.405  28.092  1.00  0.00    -0.296 OA
HETATM   24  C18 UNK     1      19.236   0.769  29.127  1.00  0.00     0.093 C 
ENDBRANCH  21  22
ENDBRANCH  20  21
ENDBRANCH   7  20
TORSDOF 5
ENDMDL
MODEL 5
REMARK VINA RESULT:      -8.1      3.110      4.121
REMARK  5 active torsions:
REMARK  status: ('A' for Active; 'I' for Inactive)
REMARK    1  A    between atoms: C11_17  and  O2_3 
REMARK    2  A    between atoms: C5_11  and  O2_3 
REMARK    3  A    between atoms: C10_16  and  O3_4 
REMARK    4  A    between atoms: C7_13  and  O3_4 
REMARK    5  A    between atoms: C11_17  and  C14_20 
ROOT
HETATM    1  O1  UNK     1      18.238   3.231  34.588  1.00  0.00    -0.319 OA
HETATM    2  O4  UNK     1      18.413   1.245  31.024  1.00  0.00    -0.284 OA
HETATM    3  C1  UNK     1      18.418   3.317  32.164  1.00  0.00     0.051 A 
HETATM    4  C2  UNK     1      18.354   3.936  33.414  1.00  0.00     0.092 A 
HETATM    5  C3  UNK     1      18.361   1.845  32.089  1.00  0.00     0.220 A 
HETATM    6  C4  UNK     1      18.408   5.327  33.508  1.00  0.00     0.075 A 
HETATM    7  C5  UNK     1      18.527   6.096  32.351  1.00  0.00     0.071 A 
HETATM    8  C6  UNK     1      18.538   4.085  31.003  1.00  0.00     0.021 A 
HETATM    9  C7  UNK     1      18.236   1.136  33.382  1.00  0.00     0.149 A 
HETATM   10  C8  UNK     1      18.591   5.476  31.101  1.00  0.00     0.038 A 
HETATM   11  C9  UNK     1      18.186   1.861  34.503  1.00  0.00     0.184 A 
ENDROOT
BRANCH   9  12
HETATM   12  O3  UNK     1      18.176  -0.237  33.399  1.00  0.00    -0.303 OA
BRANCH  12  13
HETATM   13  C10 UNK     1      18.371  -0.854  34.604  1.00  0.00     0.098 A 
HETATM   14  C12 UNK     1      17.327  -0.993  35.516  1.00  0.00     0.067 A 
HETATM   15 Cl1  UNK     1      15.749  -0.391  35.166  1.00  0.00    -0.081 Cl
HETATM   16  C15 UNK     1      17.554  -1.627  36.737  1.00  0.00     0.026 A 
HETATM   17  C17 UNK     1      18.823  -2.120  37.042  1.00  0.00     0.002 A 
HETATM   18  C16 UNK     1      19.864  -1.980  36.126  1.00  0.00     0.003 A 
HETATM   19  C13 UNK     1      19.638  -1.346  34.904  1.00  0.00     0.039 A 
ENDBRANCH  12  13
ENDBRANCH   9  12
BRANCH   7  20
HETATM   20  O2  UNK     1      18.579   7.453  32.438  1.00  0.00    -0.344 OA
BRANCH  20  21
HETATM   21  C11 UNK     1      17.411   8.118  32.915  1.00  0.00     0.253 C 
BRANCH  21  22
HETATM   22  C14 UNK     1      16.277   7.988  31.921  1.00  0.00     0.146 C 
HETATM   23  O5  UNK     1      16.358   8.414  30.769  1.00  0.00    -0.296 OA
HETATM   24  C18 UNK     1      15.031   7.303  32.416  1.00  0.00     0.093 C 
ENDBRANCH  21  22
ENDBRANCH  20  21
ENDBRANCH   7  20
TORSDOF 5
ENDMDL
MODEL 6
REMARK VINA RESULT:      -8.0     22.753     24.846
REMARK  5 active torsions:
REMARK  status: ('A' for Active; 'I' for Inactive)
REMARK    1  A    between atoms: C11_17  and  O2_3 
REMARK    2  A    between atoms: C5_11  and  O2_3 
REMARK    3  A    between atoms: C10_16  and  O3_4 
REMARK    4  A    between atoms: C7_13  and  O3_4 
REMARK    5  A    between atoms: C11_17  and  C14_20 
ROOT
HETATM    1  O1  UNK     1      10.478   4.496  10.078  1.00  0.00    -0.319 OA
HETATM    2  O4  UNK     1       8.649   6.860   7.295  1.00  0.00    -0.284 OA
HETATM    3  C1  UNK     1      10.666   5.980   8.159  1.00  0.00     0.051 A 
HETATM    4  C2  UNK     1      11.230   5.157   9.137  1.00  0.00     0.092 A 
HETATM    5  C3  UNK     1       9.202   6.153   8.126  1.00  0.00     0.220 A 
HETATM    6  C4  UNK     1      12.613   4.977   9.185  1.00  0.00     0.075 A 
HETATM    7  C5  UNK     1      13.429   5.622   8.255  1.00  0.00     0.071 A 
HETATM    8  C6  UNK     1      11.481   6.626   7.226  1.00  0.00     0.021 A 
HETATM    9  C7  UNK     1       8.440   5.419   9.161  1.00  0.00     0.149 A 
HETATM   10  C8  UNK     1      12.864   6.444   7.278  1.00  0.00     0.038 A 
HETATM   11  C9  UNK     1       9.116   4.667  10.034  1.00  0.00     0.184 A 
ENDROOT
BRANCH   9  12
HETATM   12  O3  UNK     1       7.070   5.528   9.199  1.00  0.00    -0.303 OA
BRANCH  12  13
HETATM   13  C10 UNK     1       6.525   6.145  10.292  1.00  0.00     0.098 A 
HETATM   14  C12 UNK     1       5.667   5.459  11.149  1.00  0.00     0.067 A 
HETATM   15 Cl1  UNK     1       5.254   3.809  10.866  1.00  0.00    -0.081 Cl
HETATM   16  C15 UNK     1       5.126   6.112  12.256  1.00  0.00     0.026 A 
HETATM   17  C17 UNK     1       5.445   7.448  12.503  1.00  0.00     0.002 A 
HETATM   18  C16 UNK     1       6.306   8.130  11.643  1.00  0.00     0.003 A 
HETATM   19  C13 UNK     1       6.847   7.477  10.536  1.00  0.00     0.039 A 
ENDBRANCH  12  13
ENDBRANCH   9  12
BRANCH   7  20
HETATM   20  O2  UNK     1      14.778   5.450   8.300  1.00  0.00    -0.344 OA
BRANCH  20  21
HETATM   21  C11 UNK     1      15.354   5.166   9.573  1.00  0.00     0.253 C 
BRANCH  21  22
HETATM   22  C14 UNK     1      15.728   6.447  10.288  1.00  0.00     0.146 C 
HETATM   23  O5  UNK     1      14.986   6.985  11.110  1.00  0.00    -0.296 OA
HETATM   24  C18 UNK     1      17.069   7.038   9.941  1.00  0.00     0.093 C 
ENDBRANCH  21  22
ENDBRANCH  20  21
ENDBRANCH   7  20
TORSDOF 5
ENDMDL
MODEL 7
REMARK VINA RESULT:      -7.9     22.838     25.025
REMARK  5 active torsions:
REMARK  status: ('A' for Active; 'I' for Inactive)
REMARK    1  A    between atoms: C11_17  and  O2_3 
REMARK    2  A    between atoms: C5_11  and  O2_3 
REMARK    3  A    between atoms: C10_16  and  O3_4 
REMARK    4  A    between atoms: C7_13  and  O3_4 
REMARK    5  A    between atoms: C11_17  and  C14_20 
ROOT
HETATM    1  O1  UNK     1      11.277   5.273  10.038  1.00  0.00    -0.319 OA
HETATM    2  O4  UNK     1      11.931   6.998   6.394  1.00  0.00    -0.284 OA
HETATM    3  C1  UNK     1      10.381   6.078   7.925  1.00  0.00     0.051 A 
HETATM    4  C2  UNK     1      10.224   5.493   9.183  1.00  0.00     0.092 A 
HETATM    5  C3  UNK     1      11.730   6.481   7.485  1.00  0.00     0.220 A 
HETATM    6  C4  UNK     1       8.957   5.107   9.620  1.00  0.00     0.075 A 
HETATM    7  C5  UNK     1       7.849   5.305   8.797  1.00  0.00     0.071 A 
HETATM    8  C6  UNK     1       9.273   6.279   7.098  1.00  0.00     0.021 A 
HETATM    9  C7  UNK     1      12.827   6.222   8.443  1.00  0.00     0.149 A 
HETATM   10  C8  UNK     1       8.007   5.890   7.539  1.00  0.00     0.038 A 
HETATM   11  C9  UNK     1      12.527   5.654   9.615  1.00  0.00     0.184 A 
ENDROOT
BRANCH   9  12
HETATM   12  O3  UNK     1      14.115   6.568   8.108  1.00  0.00    -0.303 OA
BRANCH  12  13
HETATM   13  C10 UNK     1      14.798   7.356   8.994  1.00  0.00     0.098 A 
HETATM   14  C12 UNK     1      15.784   6.820   9.818  1.00  0.00     0.067 A 
HETATM   15 Cl1  UNK     1      16.184   5.144   9.760  1.00  0.00    -0.081 Cl
HETATM   16  C15 UNK     1      16.465   7.647  10.712  1.00  0.00     0.026 A 
HETATM   17  C17 UNK     1      16.157   9.007  10.777  1.00  0.00     0.002 A 
HETATM   18  C16 UNK     1      15.169   9.538   9.949  1.00  0.00     0.003 A 
HETATM   19  C13 UNK     1      14.488   8.711   9.056  1.00  0.00     0.039 A 
ENDBRANCH  12  13
ENDBRANCH   9  12
BRANCH   7  20
HETATM   20  O2  UNK     1       6.611   4.928   9.219  1.00  0.00    -0.344 OA
BRANCH  20  21
HETATM   21  C11 UNK     1       6.526   4.287  10.490  1.00  0.00     0.253 C 
BRANCH  21  22
HETATM   22  C14 UNK     1       5.922   2.905  10.353  1.00  0.00     0.146 C 
HETATM   23  O5  UNK     1       5.758   2.363   9.260  1.00  0.00    -0.296 OA
HETATM   24  C18 UNK     1       5.528   2.219  11.634  1.00  0.00     0.093 C 
ENDBRANCH  21  22
ENDBRANCH  20  21
ENDBRANCH   7  20
TORSDOF 5
ENDMDL
MODEL 8
REMARK VINA RESULT:      -7.9      5.779      8.119
REMARK  5 active torsions:
REMARK  status: ('A' for Active; 'I' for Inactive)
REMARK    1  A    between atoms: C11_17  and  O2_3 
REMARK    2  A    between atoms: C5_11  and  O2_3 
REMARK    3  A    between atoms: C10_16  and  O3_4 
REMARK    4  A    between atoms: C7_13  and  O3_4 
REMARK    5  A    between atoms: C11_17  and  C14_20 
ROOT
HETATM    1  O1  UNK     1      19.053  -1.336  36.711  1.00  0.00    -0.319 OA
HETATM    2  O4  UNK     1      20.665  -3.709  33.805  1.00  0.00    -0.284 OA
HETATM    3  C1  UNK     1      19.456  -1.751  34.348  1.00  0.00     0.051 A 
HETATM    4  C2  UNK     1      18.928  -0.983  35.388  1.00  0.00     0.092 A 
HETATM    5  C3  UNK     1      20.180  -2.995  34.671  1.00  0.00     0.220 A 
HETATM    6  C4  UNK     1      18.241   0.197  35.105  1.00  0.00     0.075 A 
HETATM    7  C5  UNK     1      18.083   0.607  33.781  1.00  0.00     0.071 A 
HETATM    8  C6  UNK     1      19.300  -1.343  33.021  1.00  0.00     0.021 A 
HETATM    9  C7  UNK     1      20.286  -3.327  36.110  1.00  0.00     0.149 A 
HETATM   10  C8  UNK     1      18.612  -0.161  32.742  1.00  0.00     0.038 A 
HETATM   11  C9  UNK     1      19.730  -2.496  36.996  1.00  0.00     0.184 A 
ENDROOT
BRANCH   9  12
HETATM   12  O3  UNK     1      20.945  -4.470  36.495  1.00  0.00    -0.303 OA
BRANCH  12  13
HETATM   13  C10 UNK     1      20.187  -5.477  37.027  1.00  0.00     0.098 A 
HETATM   14  C12 UNK     1      20.656  -6.243  38.090  1.00  0.00     0.067 A 
HETATM   15 Cl1  UNK     1      22.212  -5.958  38.779  1.00  0.00    -0.081 Cl
HETATM   16  C15 UNK     1      19.861  -7.263  38.614  1.00  0.00     0.026 A 
HETATM   17  C17 UNK     1      18.600  -7.512  38.072  1.00  0.00     0.002 A 
HETATM   18  C16 UNK     1      18.134  -6.741  37.007  1.00  0.00     0.003 A 
HETATM   19  C13 UNK     1      18.929  -5.722  36.483  1.00  0.00     0.039 A 
ENDBRANCH  12  13
ENDBRANCH   9  12
BRANCH   7  20
HETATM   20  O2  UNK     1      17.413   1.758  33.501  1.00  0.00    -0.344 OA
BRANCH  20  21
HETATM   21  C11 UNK     1      18.197   2.904  33.175  1.00  0.00     0.253 C 
BRANCH  21  22
HETATM   22  C14 UNK     1      17.992   3.298  31.728  1.00  0.00     0.146 C 
HETATM   23  O5  UNK     1      17.341   2.609  30.942  1.00  0.00    -0.296 OA
HETATM   24  C18 UNK     1      18.630   4.590  31.292  1.00  0.00     0.093 C 
ENDBRANCH  21  22
ENDBRANCH  20  21
ENDBRANCH   7  20
TORSDOF 5
ENDMDL
MODEL 9
REMARK VINA RESULT:      -7.9     14.042     18.892
REMARK  5 active torsions:
REMARK  status: ('A' for Active; 'I' for Inactive)
REMARK    1  A    between atoms: C11_17  and  O2_3 
REMARK    2  A    between atoms: C5_11  and  O2_3 
REMARK    3  A    between atoms: C10_16  and  O3_4 
REMARK    4  A    between atoms: C7_13  and  O3_4 
REMARK    5  A    between atoms: C11_17  and  C14_20 
ROOT
HETATM    1  O1  UNK     1      20.808  -2.426  17.067  1.00  0.00    -0.319 OA
HETATM    2  O4  UNK     1      16.923  -1.989  15.887  1.00  0.00    -0.284 OA
HETATM    3  C1  UNK     1      18.954  -3.183  15.686  1.00  0.00     0.051 A 
HETATM    4  C2  UNK     1      20.275  -3.279  16.131  1.00  0.00     0.092 A 
HETATM    5  C3  UNK     1      18.088  -2.124  16.237  1.00  0.00     0.220 A 
HETATM    6  C4  UNK     1      21.111  -4.274  15.624  1.00  0.00     0.075 A 
HETATM    7  C5  UNK     1      20.626  -5.170  14.672  1.00  0.00     0.071 A 
HETATM    8  C6  UNK     1      18.465  -4.079  14.732  1.00  0.00     0.021 A 
HETATM    9  C7  UNK     1      18.712  -1.234  17.241  1.00  0.00     0.149 A 
HETATM   10  C8  UNK     1      19.306  -5.072  14.227  1.00  0.00     0.038 A 
HETATM   11  C9  UNK     1      19.989  -1.446  17.571  1.00  0.00     0.184 A 
ENDROOT
BRANCH   9  12
HETATM   12  O3  UNK     1      17.971  -0.222  17.803  1.00  0.00    -0.303 OA
BRANCH  12  13
HETATM   13  C10 UNK     1      18.619   0.617  18.668  1.00  0.00     0.098 A 
HETATM   14  C12 UNK     1      19.188   1.808  18.223  1.00  0.00     0.067 A 
HETATM   15 Cl1  UNK     1      19.101   2.273  16.564  1.00  0.00    -0.081 Cl
HETATM   16  C15 UNK     1      19.842   2.644  19.127  1.00  0.00     0.026 A 
HETATM   17  C17 UNK     1      19.924   2.287  20.473  1.00  0.00     0.002 A 
HETATM   18  C16 UNK     1      19.353   1.094  20.915  1.00  0.00     0.003 A 
HETATM   19  C13 UNK     1      18.699   0.257  20.010  1.00  0.00     0.039 A 
ENDBRANCH  12  13
ENDBRANCH   9  12
BRANCH   7  20
HETATM   20  O2  UNK     1      21.439  -6.140  14.174  1.00  0.00    -0.344 OA
BRANCH  20  21
HETATM   21  C11 UNK     1      20.821  -7.186  13.427  1.00  0.00     0.253 C 
BRANCH  21  22
HETATM   22  C14 UNK     1      21.860  -8.147  12.890  1.00  0.00     0.146 C 
HETATM   23  O5  UNK     1      22.541  -8.860  13.626  1.00  0.00    -0.296 OA
HETATM   24  C18 UNK     1      22.021  -8.188  11.394  1.00  0.00     0.093 C 
ENDBRANCH  21  22
ENDBRANCH  20  21
ENDBRANCH   7  20
TORSDOF 5
ENDMDL
MODEL 10
REMARK VINA RESULT:      -7.9      3.364      9.354
REMARK  5 active torsions:
REMARK  status: ('A' for Active; 'I' for Inactive)
REMARK    1  A    between atoms: C11_17  and  O2_3 
REMARK    2  A    between atoms: C5_11  and  O2_3 
REMARK    3  A    between atoms: C10_16  and  O3_4 
REMARK    4  A    between atoms: C7_13  and  O3_4 
REMARK    5  A    between atoms: C11_17  and  C14_20 
ROOT
HETATM    1  O1  UNK     1      16.448   7.887  32.066  1.00  0.00    -0.319 OA
HETATM    2  O4  UNK     1      19.452   8.793  34.680  1.00  0.00    -0.284 OA
HETATM    3  C1  UNK     1      18.698   7.454  32.882  1.00  0.00     0.051 A 
HETATM    4  C2  UNK     1      17.633   7.193  32.017  1.00  0.00     0.092 A 
HETATM    5  C3  UNK     1      18.555   8.518  33.895  1.00  0.00     0.220 A 
HETATM    6  C4  UNK     1      17.748   6.193  31.052  1.00  0.00     0.075 A 
HETATM    7  C5  UNK     1      18.928   5.455  30.953  1.00  0.00     0.071 A 
HETATM    8  C6  UNK     1      19.881   6.718  32.786  1.00  0.00     0.021 A 
HETATM    9  C7  UNK     1      17.259   9.233  33.903  1.00  0.00     0.149 A 
HETATM   10  C8  UNK     1      19.992   5.718  31.819  1.00  0.00     0.038 A 
HETATM   11  C9  UNK     1      16.330   8.874  33.013  1.00  0.00     0.184 A 
ENDROOT
BRANCH   9  12
HETATM   12  O3  UNK     1      17.046  10.238  34.816  1.00  0.00    -0.303 OA
BRANCH  12  13
HETATM   13  C10 UNK     1      17.073  11.522  34.345  1.00  0.00     0.098 A 
HETATM   14  C12 UNK     1      15.902  12.265  34.218  1.00  0.00     0.067 A 
HETATM   15 Cl1  UNK     1      14.370  11.596  34.645  1.00  0.00    -0.081 Cl
HETATM   16  C15 UNK     1      15.959  13.572  33.736  1.00  0.00     0.026 A 
HETATM   17  C17 UNK     1      17.187  14.133  33.384  1.00  0.00     0.002 A 
HETATM   18  C16 UNK     1      18.357  13.386  33.514  1.00  0.00     0.003 A 
HETATM   19  C13 UNK     1      18.300  12.078  33.996  1.00  0.00     0.039 A 
ENDBRANCH  12  13
ENDBRANCH   9  12
BRANCH   7  20
HETATM   20  O2  UNK     1      19.042   4.478  30.014  1.00  0.00    -0.344 OA
BRANCH  20  21
HETATM   21  C11 UNK     1      18.671   3.157  30.402  1.00  0.00     0.253 C 
BRANCH  21  22
HETATM   22  C14 UNK     1      18.523   2.264  29.188  1.00  0.00     0.146 C 
HETATM   23  O5  UNK     1      17.921   2.622  28.176  1.00  0.00    -0.296 OA
HETATM   24  C18 UNK     1      19.155   0.901  29.281  1.00  0.00     0.093 C 
ENDBRANCH  21  22
ENDBRANCH  20  21
ENDBRANCH   7  20
TORSDOF 5
ENDMDL
