MODEL 1
REMARK VINA RESULT:      -8.2      0.000      0.000
REMARK  4 active torsions:
REMARK  status: ('A' for Active; 'I' for Inactive)
REMARK    1  A    between atoms: C11_16  and  O3_3 
REMARK    2  A    between atoms: C13_18  and  O4_4 
REMARK    3  A    between atoms: C15_20  and  O5_5 
REMARK    4  A    between atoms: C2_7  and  C4_9 
ROOT
HETATM    1  O1  UNK     1      18.206   4.190  31.256  1.00  0.00    -0.309 OA
HETATM    2  O2  UNK     1      18.638   1.471  34.260  1.00  0.00    -0.287 OA
HETATM    3  C1  UNK     1      18.700   1.911  31.939  1.00  0.00     0.051 A 
HETATM    4  C2  UNK     1      18.017   4.537  32.585  1.00  0.00     0.090 A 
HETATM    5  C3  UNK     1      18.537   2.891  30.961  1.00  0.00     0.090 A 
HETATM    6  C5  UNK     1      18.508   2.279  33.350  1.00  0.00     0.187 A 
HETATM    7  C6  UNK     1      18.150   3.687  33.615  1.00  0.00     0.093 A 
HETATM    8  C7  UNK     1      19.037   0.605  31.580  1.00  0.00     0.054 A 
HETATM    9  C8  UNK     1      18.714   2.569  29.615  1.00  0.00     0.041 A 
HETATM   10  C11 UNK     1      19.212   0.285  30.233  1.00  0.00     0.066 A 
HETATM   11  C12 UNK     1      19.051   1.265  29.253  1.00  0.00     0.039 A 
ENDROOT
BRANCH   4  12
HETATM   12  C4  UNK     1      17.670   5.957  32.789  1.00  0.00     0.001 A 
HETATM   13  C10 UNK     1      18.102   6.628  33.937  1.00  0.00     0.017 A 
HETATM   14  C14 UNK     1      17.774   7.969  34.130  1.00  0.00     0.040 A 
HETATM   15  C15 UNK     1      17.012   8.646  33.176  1.00  0.00     0.098 A 
HETATM   16  C13 UNK     1      16.579   7.981  32.030  1.00  0.00     0.099 A 
HETATM   17  C9  UNK     1      16.907   6.638  31.837  1.00  0.00     0.053 A 
BRANCH  15  18
HETATM   18  O5  UNK     1      16.699   9.956  33.378  1.00  0.00    -0.358 OA
HETATM   19  H10 UNK     1      16.289  10.312  32.572  1.00  0.00     0.217 HD
ENDBRANCH  15  18
BRANCH  16  20
HETATM   20  O4  UNK     1      15.835   8.630  31.092  1.00  0.00    -0.358 OA
HETATM   21  H9  UNK     1      15.945   9.587  31.225  1.00  0.00     0.217 HD
ENDBRANCH  16  20
ENDBRANCH   4  12
BRANCH  10  22
HETATM   22  O3  UNK     1      19.542  -0.986  29.874  1.00  0.00    -0.361 OA
HETATM   23  H8  UNK     1      19.417  -1.086  28.915  1.00  0.00     0.217 HD
ENDBRANCH  10  22
TORSDOF 4
ENDMDL
MODEL 2
REMARK VINA RESULT:      -8.0     12.789     16.169
REMARK  4 active torsions:
REMARK  status: ('A' for Active; 'I' for Inactive)
REMARK    1  A    between atoms: C11_16  and  O3_3 
REMARK    2  A    between atoms: C13_18  and  O4_4 
REMARK    3  A    between atoms: C15_20  and  O5_5 
REMARK    4  A    between atoms: C2_7  and  C4_9 
ROOT
HETATM    1  O1  UNK     1      20.473  -2.151  17.516  1.00  0.00    -0.309 OA
HETATM    2  O2  UNK     1      17.854  -2.521  14.417  1.00  0.00    -0.287 OA
HETATM    3  C1  UNK     1      19.793  -3.326  15.502  1.00  0.00     0.051 A 
HETATM    4  C2  UNK     1      19.399  -1.288  17.364  1.00  0.00     0.090 A 
HETATM    5  C3  UNK     1      20.650  -3.144  16.585  1.00  0.00     0.090 A 
HETATM    6  C5  UNK     1      18.648  -2.417  15.342  1.00  0.00     0.187 A 
HETATM    7  C6  UNK     1      18.503  -1.364  16.367  1.00  0.00     0.093 A 
HETATM    8  C7  UNK     1      20.022  -4.355  14.586  1.00  0.00     0.054 A 
HETATM    9  C8  UNK     1      21.743  -3.993  16.761  1.00  0.00     0.041 A 
HETATM   10  C11 UNK     1      21.117  -5.202  14.762  1.00  0.00     0.066 A 
HETATM   11  C12 UNK     1      21.976  -5.022  15.847  1.00  0.00     0.039 A 
ENDROOT
BRANCH   4  12
HETATM   12  C4  UNK     1      19.300  -0.262  18.421  1.00  0.00     0.001 A 
HETATM   13  C10 UNK     1      18.935   1.048  18.096  1.00  0.00     0.017 A 
HETATM   14  C14 UNK     1      18.841   2.017  19.094  1.00  0.00     0.040 A 
HETATM   15  C15 UNK     1      19.112   1.680  20.421  1.00  0.00     0.098 A 
HETATM   16  C13 UNK     1      19.476   0.375  20.749  1.00  0.00     0.099 A 
HETATM   17  C9  UNK     1      19.571  -0.594  19.750  1.00  0.00     0.053 A 
BRANCH  15  18
HETATM   18  O5  UNK     1      19.017   2.637  21.387  1.00  0.00    -0.358 OA
HETATM   19  H10 UNK     1      19.861   2.690  21.865  1.00  0.00     0.217 HD
ENDBRANCH  15  18
BRANCH  16  20
HETATM   20  O4  UNK     1      19.744   0.034  22.041  1.00  0.00    -0.358 OA
HETATM   21  H9  UNK     1      20.695  -0.155  22.115  1.00  0.00     0.217 HD
ENDBRANCH  16  20
ENDBRANCH   4  12
BRANCH  10  22
HETATM   22  O3  UNK     1      21.348  -6.207  13.874  1.00  0.00    -0.361 OA
HETATM   23  H8  UNK     1      20.708  -6.137  13.144  1.00  0.00     0.217 HD
ENDBRANCH  10  22
TORSDOF 4
ENDMDL
MODEL 3
REMARK VINA RESULT:      -8.0      1.585      2.342
REMARK  4 active torsions:
REMARK  status: ('A' for Active; 'I' for Inactive)
REMARK    1  A    between atoms: C11_16  and  O3_3 
REMARK    2  A    between atoms: C13_18  and  O4_4 
REMARK    3  A    between atoms: C15_20  and  O5_5 
REMARK    4  A    between atoms: C2_7  and  C4_9 
ROOT
HETATM    1  O1  UNK     1      19.031   2.428  30.850  1.00  0.00    -0.309 OA
HETATM    2  O2  UNK     1      18.579  -0.217  33.916  1.00  0.00    -0.287 OA
HETATM    3  C1  UNK     1      19.212   0.149  31.669  1.00  0.00     0.051 A 
HETATM    4  C2  UNK     1      18.555   2.826  32.090  1.00  0.00     0.090 A 
HETATM    5  C3  UNK     1      19.343   1.105  30.664  1.00  0.00     0.090 A 
HETATM    6  C5  UNK     1      18.715   0.568  32.988  1.00  0.00     0.187 A 
HETATM    7  C6  UNK     1      18.390   2.002  33.137  1.00  0.00     0.093 A 
HETATM    8  C7  UNK     1      19.545  -1.185  31.423  1.00  0.00     0.054 A 
HETATM    9  C8  UNK     1      19.812   0.733  29.404  1.00  0.00     0.041 A 
HETATM   10  C11 UNK     1      20.014  -1.555  30.161  1.00  0.00     0.066 A 
HETATM   11  C12 UNK     1      20.147  -0.598  29.154  1.00  0.00     0.039 A 
ENDROOT
BRANCH   4  12
HETATM   12  C4  UNK     1      18.255   4.268  32.183  1.00  0.00     0.001 A 
HETATM   13  C10 UNK     1      18.376   5.084  31.055  1.00  0.00     0.017 A 
HETATM   14  C14 UNK     1      18.092   6.447  31.141  1.00  0.00     0.040 A 
HETATM   15  C15 UNK     1      17.685   6.999  32.356  1.00  0.00     0.098 A 
HETATM   16  C13 UNK     1      17.562   6.189  33.484  1.00  0.00     0.099 A 
HETATM   17  C9  UNK     1      17.847   4.825  33.397  1.00  0.00     0.053 A 
BRANCH  15  18
HETATM   18  O5  UNK     1      17.411   8.331  32.426  1.00  0.00    -0.358 OA
HETATM   19  H10 UNK     1      16.850   8.499  33.202  1.00  0.00     0.217 HD
ENDBRANCH  15  18
BRANCH  16  20
HETATM   20  O4  UNK     1      17.166   6.716  34.676  1.00  0.00    -0.358 OA
HETATM   21  H9  UNK     1      17.880   7.287  35.008  1.00  0.00     0.217 HD
ENDBRANCH  16  20
ENDBRANCH   4  12
BRANCH  10  22
HETATM   22  O3  UNK     1      20.341  -2.852  29.912  1.00  0.00    -0.361 OA
HETATM   23  H8  UNK     1      20.269  -3.018  28.956  1.00  0.00     0.217 HD
ENDBRANCH  10  22
TORSDOF 4
ENDMDL
MODEL 4
REMARK VINA RESULT:      -8.0      1.764      3.040
REMARK  4 active torsions:
REMARK  status: ('A' for Active; 'I' for Inactive)
REMARK    1  A    between atoms: C11_16  and  O3_3 
REMARK    2  A    between atoms: C13_18  and  O4_4 
REMARK    3  A    between atoms: C15_20  and  O5_5 
REMARK    4  A    between atoms: C2_7  and  C4_9 
ROOT
HETATM    1  O1  UNK     1      18.316   3.864  34.458  1.00  0.00    -0.309 OA
HETATM    2  O2  UNK     1      18.234   1.686  31.015  1.00  0.00    -0.287 OA
HETATM    3  C1  UNK     1      18.339   1.689  33.376  1.00  0.00     0.051 A 
HETATM    4  C2  UNK     1      18.252   4.472  33.213  1.00  0.00     0.090 A 
HETATM    5  C3  UNK     1      18.363   2.494  34.514  1.00  0.00     0.090 A 
HETATM    6  C5  UNK     1      18.262   2.331  32.055  1.00  0.00     0.187 A 
HETATM    7  C6  UNK     1      18.217   3.807  32.048  1.00  0.00     0.093 A 
HETATM    8  C7  UNK     1      18.388   0.299  33.493  1.00  0.00     0.054 A 
HETATM    9  C8  UNK     1      18.435   1.911  35.779  1.00  0.00     0.041 A 
HETATM   10  C11 UNK     1      18.461  -0.282  34.760  1.00  0.00     0.066 A 
HETATM   11  C12 UNK     1      18.484   0.522  35.900  1.00  0.00     0.039 A 
ENDROOT
BRANCH   4  12
HETATM   12  C4  UNK     1      18.201   5.946  33.268  1.00  0.00     0.001 A 
HETATM   13  C10 UNK     1      19.100   6.650  34.075  1.00  0.00     0.017 A 
HETATM   14  C14 UNK     1      19.054   8.043  34.127  1.00  0.00     0.040 A 
HETATM   15  C15 UNK     1      18.107   8.738  33.372  1.00  0.00     0.098 A 
HETATM   16  C13 UNK     1      17.209   8.040  32.566  1.00  0.00     0.099 A 
HETATM   17  C9  UNK     1      17.256   6.646  32.515  1.00  0.00     0.053 A 
BRANCH  15  18
HETATM   18  O5  UNK     1      18.073  10.098  33.433  1.00  0.00    -0.358 OA
HETATM   19  H10 UNK     1      17.219  10.409  33.088  1.00  0.00     0.217 HD
ENDBRANCH  15  18
BRANCH  16  20
HETATM   20  O4  UNK     1      16.280   8.707  31.826  1.00  0.00    -0.358 OA
HETATM   21  H9  UNK     1      15.546   8.097  31.637  1.00  0.00     0.217 HD
ENDBRANCH  16  20
ENDBRANCH   4  12
BRANCH  10  22
HETATM   22  O3  UNK     1      18.510  -1.637  34.884  1.00  0.00    -0.361 OA
HETATM   23  H8  UNK     1      18.106  -1.891  35.732  1.00  0.00     0.217 HD
ENDBRANCH  10  22
TORSDOF 4
ENDMDL
MODEL 5
REMARK VINA RESULT:      -7.9      2.744      6.570
REMARK  4 active torsions:
REMARK  status: ('A' for Active; 'I' for Inactive)
REMARK    1  A    between atoms: C11_16  and  O3_3 
REMARK    2  A    between atoms: C13_18  and  O4_4 
REMARK    3  A    between atoms: C15_20  and  O5_5 
REMARK    4  A    between atoms: C2_7  and  C4_9 
ROOT
HETATM    1  O1  UNK     1      18.110   2.950  33.543  1.00  0.00    -0.309 OA
HETATM    2  O2  UNK     1      19.202   1.405  29.935  1.00  0.00    -0.287 OA
HETATM    3  C1  UNK     1      18.652   3.321  31.204  1.00  0.00     0.051 A 
HETATM    4  C2  UNK     1      18.308   1.589  33.364  1.00  0.00     0.090 A 
HETATM    5  C3  UNK     1      18.280   3.783  32.465  1.00  0.00     0.090 A 
HETATM    6  C5  UNK     1      18.872   1.879  31.013  1.00  0.00     0.187 A 
HETATM    7  C6  UNK     1      18.673   1.026  32.202  1.00  0.00     0.093 A 
HETATM    8  C7  UNK     1      18.811   4.215  30.144  1.00  0.00     0.054 A 
HETATM    9  C8  UNK     1      18.066   5.145  32.674  1.00  0.00     0.041 A 
HETATM   10  C11 UNK     1      18.596   5.577  30.354  1.00  0.00     0.066 A 
HETATM   11  C12 UNK     1      18.224   6.042  31.616  1.00  0.00     0.039 A 
ENDROOT
BRANCH   4  12
HETATM   12  C4  UNK     1      18.104   0.788  34.586  1.00  0.00     0.001 A 
HETATM   13  C10 UNK     1      17.876  -0.588  34.494  1.00  0.00     0.017 A 
HETATM   14  C14 UNK     1      17.683  -1.346  35.648  1.00  0.00     0.040 A 
HETATM   15  C15 UNK     1      17.716  -0.730  36.900  1.00  0.00     0.098 A 
HETATM   16  C13 UNK     1      17.943   0.642  36.997  1.00  0.00     0.099 A 
HETATM   17  C9  UNK     1      18.136   1.400  35.841  1.00  0.00     0.053 A 
BRANCH  15  18
HETATM   18  O5  UNK     1      17.526  -1.482  38.020  1.00  0.00    -0.358 OA
HETATM   19  H10 UNK     1      18.340  -1.978  38.211  1.00  0.00     0.217 HD
ENDBRANCH  15  18
BRANCH  16  20
HETATM   20  O4  UNK     1      17.978   1.254  38.213  1.00  0.00    -0.358 OA
HETATM   21  H9  UNK     1      17.126   1.704  38.352  1.00  0.00     0.217 HD
ENDBRANCH  16  20
ENDBRANCH   4  12
BRANCH  10  22
HETATM   22  O3  UNK     1      18.749   6.456  29.326  1.00  0.00    -0.361 OA
HETATM   23  H8  UNK     1      18.012   6.342  28.701  1.00  0.00     0.217 HD
ENDBRANCH  10  22
TORSDOF 4
ENDMDL
MODEL 6
REMARK VINA RESULT:      -7.9     17.925     20.345
REMARK  4 active torsions:
REMARK  status: ('A' for Active; 'I' for Inactive)
REMARK    1  A    between atoms: C11_16  and  O3_3 
REMARK    2  A    between atoms: C13_18  and  O4_4 
REMARK    3  A    between atoms: C15_20  and  O5_5 
REMARK    4  A    between atoms: C2_7  and  C4_9 
ROOT
HETATM    1  O1  UNK     1      18.547  -4.462  13.456  1.00  0.00    -0.309 OA
HETATM    2  O2  UNK     1      19.364  -0.649  14.633  1.00  0.00    -0.287 OA
HETATM    3  C1  UNK     1      19.589  -2.321  12.979  1.00  0.00     0.051 A 
HETATM    4  C2  UNK     1      18.116  -3.970  14.679  1.00  0.00     0.090 A 
HETATM    5  C3  UNK     1      19.274  -3.635  12.638  1.00  0.00     0.090 A 
HETATM    6  C5  UNK     1      19.127  -1.793  14.271  1.00  0.00     0.187 A 
HETATM    7  C6  UNK     1      18.351  -2.723  15.116  1.00  0.00     0.093 A 
HETATM    8  C7  UNK     1      20.332  -1.524  12.106  1.00  0.00     0.054 A 
HETATM    9  C8  UNK     1      19.699  -4.160  11.418  1.00  0.00     0.041 A 
HETATM   10  C11 UNK     1      20.758  -2.052  10.886  1.00  0.00     0.066 A 
HETATM   11  C12 UNK     1      20.442  -3.367  10.543  1.00  0.00     0.039 A 
ENDROOT
BRANCH   4  12
HETATM   12  C4  UNK     1      17.340  -4.940  15.476  1.00  0.00     0.001 A 
HETATM   13  C10 UNK     1      17.352  -6.296  15.138  1.00  0.00     0.017 A 
HETATM   14  C14 UNK     1      16.620  -7.213  15.891  1.00  0.00     0.040 A 
HETATM   15  C15 UNK     1      15.873  -6.778  16.986  1.00  0.00     0.098 A 
HETATM   16  C13 UNK     1      15.858  -5.427  17.327  1.00  0.00     0.099 A 
HETATM   17  C9  UNK     1      16.591  -4.509  16.573  1.00  0.00     0.053 A 
BRANCH  15  18
HETATM   18  O5  UNK     1      15.162  -7.685  17.713  1.00  0.00    -0.358 OA
HETATM   19  H10 UNK     1      15.036  -7.341  18.613  1.00  0.00     0.217 HD
ENDBRANCH  15  18
BRANCH  16  20
HETATM   20  O4  UNK     1      15.132  -4.989  18.393  1.00  0.00    -0.358 OA
HETATM   21  H9  UNK     1      14.465  -4.359  18.069  1.00  0.00     0.217 HD
ENDBRANCH  16  20
ENDBRANCH   4  12
BRANCH  10  22
HETATM   22  O3  UNK     1      21.483  -1.282  10.029  1.00  0.00    -0.361 OA
HETATM   23  H8  UNK     1      20.875  -0.839   9.411  1.00  0.00     0.217 HD
ENDBRANCH  10  22
TORSDOF 4
ENDMDL
MODEL 7
REMARK VINA RESULT:      -7.8     14.247     17.277
REMARK  4 active torsions:
REMARK  status: ('A' for Active; 'I' for Inactive)
REMARK    1  A    between atoms: C11_16  and  O3_3 
REMARK    2  A    between atoms: C13_18  and  O4_4 
REMARK    3  A    between atoms: C15_20  and  O5_5 
REMARK    4  A    between atoms: C2_7  and  C4_9 
ROOT
HETATM    1  O1  UNK     1      20.467  -2.396  16.542  1.00  0.00    -0.309 OA
HETATM    2  O2  UNK     1      17.660  -4.235  14.231  1.00  0.00    -0.287 OA
HETATM    3  C1  UNK     1      19.776  -4.351  15.277  1.00  0.00     0.051 A 
HETATM    4  C2  UNK     1      19.278  -1.767  16.202  1.00  0.00     0.090 A 
HETATM    5  C3  UNK     1      20.692  -3.665  16.072  1.00  0.00     0.090 A 
HETATM    6  C5  UNK     1      18.511  -3.691  14.921  1.00  0.00     0.187 A 
HETATM    7  C6  UNK     1      18.317  -2.325  15.449  1.00  0.00     0.093 A 
HETATM    8  C7  UNK     1      20.059  -5.642  14.827  1.00  0.00     0.054 A 
HETATM    9  C8  UNK     1      21.900  -4.269  16.424  1.00  0.00     0.041 A 
HETATM   10  C11 UNK     1      21.268  -6.244  15.180  1.00  0.00     0.066 A 
HETATM   11  C12 UNK     1      22.186  -5.559  15.976  1.00  0.00     0.039 A 
ENDROOT
BRANCH   4  12
HETATM   12  C4  UNK     1      19.137  -0.410  16.763  1.00  0.00     0.001 A 
HETATM   13  C10 UNK     1      18.912  -0.235  18.131  1.00  0.00     0.017 A 
HETATM   14  C14 UNK     1      18.779   1.047  18.662  1.00  0.00     0.040 A 
HETATM   15  C15 UNK     1      18.870   2.161  17.826  1.00  0.00     0.098 A 
HETATM   16  C13 UNK     1      19.094   1.992  16.461  1.00  0.00     0.099 A 
HETATM   17  C9  UNK     1      19.227   0.708  15.930  1.00  0.00     0.053 A 
BRANCH  15  18
HETATM   18  O5  UNK     1      18.737   3.408  18.358  1.00  0.00    -0.358 OA
HETATM   19  H10 UNK     1      17.794   3.638  18.396  1.00  0.00     0.217 HD
ENDBRANCH  15  18
BRANCH  16  20
HETATM   20  O4  UNK     1      19.184   3.071  15.635  1.00  0.00    -0.358 OA
HETATM   21  H9  UNK     1      18.344   3.155  15.151  1.00  0.00     0.217 HD
ENDBRANCH  16  20
ENDBRANCH   4  12
BRANCH  10  22
HETATM   22  O3  UNK     1      21.552  -7.502  14.746  1.00  0.00    -0.361 OA
HETATM   23  H8  UNK     1      21.562  -8.105  15.509  1.00  0.00     0.217 HD
ENDBRANCH  10  22
TORSDOF 4
ENDMDL
MODEL 8
REMARK VINA RESULT:      -7.8     14.014     18.056
REMARK  4 active torsions:
REMARK  status: ('A' for Active; 'I' for Inactive)
REMARK    1  A    between atoms: C11_16  and  O3_3 
REMARK    2  A    between atoms: C13_18  and  O4_4 
REMARK    3  A    between atoms: C15_20  and  O5_5 
REMARK    4  A    between atoms: C2_7  and  C4_9 
ROOT
HETATM    1  O1  UNK     1      19.061  -0.812  16.871  1.00  0.00    -0.309 OA
HETATM    2  O2  UNK     1      19.451   3.184  16.182  1.00  0.00    -0.287 OA
HETATM    3  C1  UNK     1      19.152   1.448  17.757  1.00  0.00     0.051 A 
HETATM    4  C2  UNK     1      19.221  -0.307  15.590  1.00  0.00     0.090 A 
HETATM    5  C3  UNK     1      19.026   0.070  17.922  1.00  0.00     0.090 A 
HETATM    6  C5  UNK     1      19.330   1.987  16.400  1.00  0.00     0.187 A 
HETATM    7  C6  UNK     1      19.358   0.997  15.303  1.00  0.00     0.093 A 
HETATM    8  C7  UNK     1      19.109   2.298  18.863  1.00  0.00     0.054 A 
HETATM    9  C8  UNK     1      18.857  -0.467  19.198  1.00  0.00     0.041 A 
HETATM   10  C11 UNK     1      18.939   1.759  20.139  1.00  0.00     0.066 A 
HETATM   11  C12 UNK     1      18.813   0.380  20.306  1.00  0.00     0.039 A 
ENDROOT
BRANCH   4  12
HETATM   12  C4  UNK     1      19.249  -1.341  14.537  1.00  0.00     0.001 A 
HETATM   13  C10 UNK     1      19.492  -2.676  14.871  1.00  0.00     0.017 A 
HETATM   14  C14 UNK     1      19.518  -3.654  13.877  1.00  0.00     0.040 A 
HETATM   15  C15 UNK     1      19.303  -3.300  12.544  1.00  0.00     0.098 A 
HETATM   16  C13 UNK     1      19.060  -1.969  12.207  1.00  0.00     0.099 A 
HETATM   17  C9  UNK     1      19.034  -0.991  13.202  1.00  0.00     0.053 A 
BRANCH  15  18
HETATM   18  O5  UNK     1      19.331  -4.265  11.583  1.00  0.00    -0.358 OA
HETATM   19  H10 UNK     1      20.187  -4.724  11.620  1.00  0.00     0.217 HD
ENDBRANCH  15  18
BRANCH  16  20
HETATM   20  O4  UNK     1      18.848  -1.611  10.910  1.00  0.00    -0.358 OA
HETATM   21  H9  UNK     1      17.990  -1.156  10.855  1.00  0.00     0.217 HD
ENDBRANCH  16  20
ENDBRANCH   4  12
BRANCH  10  22
HETATM   22  O3  UNK     1      18.896   2.581  21.223  1.00  0.00    -0.361 OA
HETATM   23  H8  UNK     1      19.420   3.379  21.036  1.00  0.00     0.217 HD
ENDBRANCH  10  22
TORSDOF 4
ENDMDL
MODEL 9
REMARK VINA RESULT:      -7.7     13.954     17.177
REMARK  4 active torsions:
REMARK  status: ('A' for Active; 'I' for Inactive)
REMARK    1  A    between atoms: C11_16  and  O3_3 
REMARK    2  A    between atoms: C13_18  and  O4_4 
REMARK    3  A    between atoms: C15_20  and  O5_5 
REMARK    4  A    between atoms: C2_7  and  C4_9 
ROOT
HETATM    1  O1  UNK     1      19.394  -0.661  15.269  1.00  0.00    -0.309 OA
HETATM    2  O2  UNK     1      17.579  -4.300  15.529  1.00  0.00    -0.287 OA
HETATM    3  C1  UNK     1      18.736  -2.735  14.189  1.00  0.00     0.051 A 
HETATM    4  C2  UNK     1      18.810  -1.101  16.448  1.00  0.00     0.090 A 
HETATM    5  C3  UNK     1      19.342  -1.480  14.169  1.00  0.00     0.090 A 
HETATM    6  C5  UNK     1      18.124  -3.208  15.439  1.00  0.00     0.187 A 
HETATM    7  C6  UNK     1      18.204  -2.290  16.593  1.00  0.00     0.093 A 
HETATM    8  C7  UNK     1      18.713  -3.526  13.038  1.00  0.00     0.054 A 
HETATM    9  C8  UNK     1      19.930  -1.007  12.996  1.00  0.00     0.041 A 
HETATM   10  C11 UNK     1      19.302  -3.051  11.866  1.00  0.00     0.066 A 
HETATM   11  C12 UNK     1      19.909  -1.795  11.844  1.00  0.00     0.039 A 
ENDROOT
BRANCH   4  12
HETATM   12  C4  UNK     1      18.928  -0.146  17.568  1.00  0.00     0.001 A 
HETATM   13  C10 UNK     1      18.973   1.228  17.317  1.00  0.00     0.017 A 
HETATM   14  C14 UNK     1      19.083   2.130  18.374  1.00  0.00     0.040 A 
HETATM   15  C15 UNK     1      19.149   1.662  19.687  1.00  0.00     0.098 A 
HETATM   16  C13 UNK     1      19.104   0.292  19.942  1.00  0.00     0.099 A 
HETATM   17  C9  UNK     1      18.994  -0.611  18.883  1.00  0.00     0.053 A 
BRANCH  15  18
HETATM   18  O5  UNK     1      19.256   2.555  20.710  1.00  0.00    -0.358 OA
HETATM   19  H10 UNK     1      20.196   2.686  20.919  1.00  0.00     0.217 HD
ENDBRANCH  15  18
BRANCH  16  20
HETATM   20  O4  UNK     1      19.168  -0.177  21.219  1.00  0.00    -0.358 OA
HETATM   21  H9  UNK     1      20.101  -0.349  21.434  1.00  0.00     0.217 HD
ENDBRANCH  16  20
ENDBRANCH   4  12
BRANCH  10  22
HETATM   22  O3  UNK     1      19.285  -3.815  10.739  1.00  0.00    -0.361 OA
HETATM   23  H8  UNK     1      20.035  -3.561  10.174  1.00  0.00     0.217 HD
ENDBRANCH  10  22
TORSDOF 4
ENDMDL
MODEL 10
REMARK VINA RESULT:      -7.6      1.774      2.346
REMARK  4 active torsions:
REMARK  status: ('A' for Active; 'I' for Inactive)
REMARK    1  A    between atoms: C11_16  and  O3_3 
REMARK    2  A    between atoms: C13_18  and  O4_4 
REMARK    3  A    between atoms: C15_20  and  O5_5 
REMARK    4  A    between atoms: C2_7  and  C4_9 
ROOT
HETATM    1  O1  UNK     1      18.809   6.010  31.721  1.00  0.00    -0.309 OA
HETATM    2  O2  UNK     1      18.074   2.945  34.302  1.00  0.00    -0.287 OA
HETATM    3  C1  UNK     1      18.408   3.640  32.068  1.00  0.00     0.051 A 
HETATM    4  C2  UNK     1      18.691   6.221  33.087  1.00  0.00     0.090 A 
HETATM    5  C3  UNK     1      18.661   4.733  31.242  1.00  0.00     0.090 A 
HETATM    6  C5  UNK     1      18.291   3.858  33.518  1.00  0.00     0.187 A 
HETATM    7  C6  UNK     1      18.455   5.251  33.983  1.00  0.00     0.093 A 
HETATM    8  C7  UNK     1      18.267   2.362  31.525  1.00  0.00     0.054 A 
HETATM    9  C8  UNK     1      18.777   4.554  29.863  1.00  0.00     0.041 A 
HETATM   10  C11 UNK     1      18.383   2.184  30.145  1.00  0.00     0.066 A 
HETATM   11  C12 UNK     1      18.637   3.277  29.316  1.00  0.00     0.039 A 
ENDROOT
BRANCH   4  12
HETATM   12  C4  UNK     1      18.871   7.628  33.494  1.00  0.00     0.001 A 
HETATM   13  C10 UNK     1      20.095   8.057  34.017  1.00  0.00     0.017 A 
HETATM   14  C14 UNK     1      20.266   9.386  34.401  1.00  0.00     0.040 A 
HETATM   15  C15 UNK     1      19.214  10.293  34.264  1.00  0.00     0.098 A 
HETATM   16  C13 UNK     1      17.992   9.870  33.742  1.00  0.00     0.099 A 
HETATM   17  C9  UNK     1      17.821   8.539  33.358  1.00  0.00     0.053 A 
BRANCH  15  18
HETATM   18  O5  UNK     1      19.394  11.589  34.643  1.00  0.00    -0.358 OA
HETATM   19  H10 UNK     1      18.618  12.108  34.376  1.00  0.00     0.217 HD
ENDBRANCH  15  18
BRANCH  16  20
HETATM   20  O4  UNK     1      16.957  10.745  33.604  1.00  0.00    -0.358 OA
HETATM   21  H9  UNK     1      17.290  11.641  33.786  1.00  0.00     0.217 HD
ENDBRANCH  16  20
ENDBRANCH   4  12
BRANCH  10  22
HETATM   22  O3  UNK     1      18.247   0.942  29.607  1.00  0.00    -0.361 OA
HETATM   23  H8  UNK     1      18.732   0.304  30.158  1.00  0.00     0.217 HD
ENDBRANCH  10  22
TORSDOF 4
ENDMDL
