MODEL 1
REMARK VINA RESULT:      -7.6      0.000      0.000
REMARK  7 active torsions:
REMARK  status: ('A' for Active; 'I' for Inactive)
REMARK    1  A    between atoms: C2_6  and  O1_2 
REMARK    2  A    between atoms: C3_7  and  O1_2 
REMARK    3  A    between atoms: C4_8  and  O2_3 
REMARK    4  A    between atoms: C8_12  and  O2_3 
REMARK    5  A    between atoms: C1_5  and  C5_9 
REMARK    6  A    between atoms: C3_7  and  C4_8 
REMARK    7  A    between atoms: C10_14  and  C9_13 
ROOT
HETATM    1  N1  UNK     1      30.178  -3.137  30.061  1.00  0.00    -0.191 NA
HETATM    2  C5  UNK     1      30.462  -5.131  32.860  1.00  0.00     0.038 C 
HETATM    3  C9  UNK     1      29.888  -5.191  31.628  1.00  0.00     0.055 C 
HETATM    4  C24 UNK     1      30.054  -4.049  30.768  1.00  0.00     0.100 C 
ENDROOT
BRANCH   3   5
HETATM    5  C10 UNK     1      29.133  -6.335  31.142  1.00  0.00    -0.015 A 
HETATM    6  C18 UNK     1      27.739  -6.331  31.211  1.00  0.00     0.013 A 
HETATM    7  C21 UNK     1      27.015  -7.427  30.742  1.00  0.00     0.001 A 
HETATM    8  C23 UNK     1      27.684  -8.527  30.205  1.00  0.00     0.000 A 
HETATM    9  C22 UNK     1      29.078  -8.529  30.135  1.00  0.00     0.001 A 
HETATM   10  C19 UNK     1      29.802  -7.434  30.604  1.00  0.00     0.013 A 
ENDBRANCH   3   5
BRANCH   2  11
HETATM   11  C1  UNK     1      30.391  -6.176  33.890  1.00  0.00     0.000 A 
HETATM   12  C2  UNK     1      31.462  -7.033  34.102  1.00  0.00     0.079 A 
HETATM   13  C7  UNK     1      31.372  -8.017  35.087  1.00  0.00     0.039 A 
HETATM   14  C13 UNK     1      30.210  -8.136  35.850  1.00  0.00     0.026 A 
HETATM   15  C12 UNK     1      29.139  -7.270  35.628  1.00  0.00     0.035 A 
HETATM   16 Cl1  UNK     1      27.706  -7.418  36.571  1.00  0.00    -0.084 Cl
HETATM   17  C6  UNK     1      29.229  -6.285  34.644  1.00  0.00     0.038 A 
BRANCH  12  18
HETATM   18  O1  UNK     1      32.609  -6.940  33.370  1.00  0.00    -0.348 OA
BRANCH  18  19
HETATM   19  C3  UNK     1      33.823  -6.749  34.092  1.00  0.00     0.202 C 
BRANCH  19  20
HETATM   20  C4  UNK     1      33.959  -5.280  34.451  1.00  0.00     0.202 C 
BRANCH  20  21
HETATM   21  O2  UNK     1      34.149  -5.162  35.855  1.00  0.00    -0.349 OA
BRANCH  21  22
HETATM   22  C8  UNK     1      33.020  -5.062  36.625  1.00  0.00     0.068 A 
HETATM   23  C14 UNK     1      32.089  -4.066  36.354  1.00  0.00     0.037 A 
HETATM   24  C16 UNK     1      30.938  -3.964  37.137  1.00  0.00     0.009 A 
HETATM   25  C11 UNK     1      30.728  -4.858  38.186  1.00  0.00    -0.062 A 
HETATM   26  C17 UNK     1      31.667  -5.855  38.452  1.00  0.00     0.009 A 
HETATM   27  C20 UNK     1      29.499  -4.749  39.023  1.00  0.00     0.048 C 
HETATM   28  C15 UNK     1      32.817  -5.957  37.669  1.00  0.00     0.037 A 
ENDBRANCH  21  22
ENDBRANCH  20  21
ENDBRANCH  19  20
ENDBRANCH  18  19
ENDBRANCH  12  18
ENDBRANCH   2  11
TORSDOF 7
ENDMDL
MODEL 2
REMARK VINA RESULT:      -7.0      1.988      3.280
REMARK  7 active torsions:
REMARK  status: ('A' for Active; 'I' for Inactive)
REMARK    1  A    between atoms: C2_6  and  O1_2 
REMARK    2  A    between atoms: C3_7  and  O1_2 
REMARK    3  A    between atoms: C4_8  and  O2_3 
REMARK    4  A    between atoms: C8_12  and  O2_3 
REMARK    5  A    between atoms: C1_5  and  C5_9 
REMARK    6  A    between atoms: C3_7  and  C4_8 
REMARK    7  A    between atoms: C10_14  and  C9_13 
ROOT
HETATM    1  N1  UNK     1      30.185  -2.475  31.203  1.00  0.00    -0.191 NA
HETATM    2  C5  UNK     1      31.059  -5.214  33.109  1.00  0.00     0.038 C 
HETATM    3  C9  UNK     1      30.217  -4.922  32.081  1.00  0.00     0.055 C 
HETATM    4  C24 UNK     1      30.206  -3.565  31.602  1.00  0.00     0.100 C 
ENDROOT
BRANCH   3   5
HETATM    5  C10 UNK     1      29.344  -5.899  31.448  1.00  0.00    -0.015 A 
HETATM    6  C18 UNK     1      28.057  -6.110  31.945  1.00  0.00     0.013 A 
HETATM    7  C21 UNK     1      27.220  -7.044  31.336  1.00  0.00     0.001 A 
HETATM    8  C23 UNK     1      27.669  -7.768  30.231  1.00  0.00     0.000 A 
HETATM    9  C22 UNK     1      28.956  -7.556  29.735  1.00  0.00     0.001 A 
HETATM   10  C19 UNK     1      29.793  -6.622  30.343  1.00  0.00     0.013 A 
ENDBRANCH   3   5
BRANCH   2  11
HETATM   11  C1  UNK     1      31.203  -6.527  33.753  1.00  0.00     0.000 A 
HETATM   12  C2  UNK     1      30.456  -6.846  34.878  1.00  0.00     0.079 A 
HETATM   13  C7  UNK     1      30.609  -8.100  35.472  1.00  0.00     0.039 A 
HETATM   14  C13 UNK     1      31.507  -9.021  34.935  1.00  0.00     0.026 A 
HETATM   15  C12 UNK     1      32.253  -8.689  33.804  1.00  0.00     0.035 A 
HETATM   16 Cl1  UNK     1      33.362  -9.827  33.142  1.00  0.00    -0.084 Cl
HETATM   17  C6  UNK     1      32.101  -7.436  33.209  1.00  0.00     0.038 A 
BRANCH  12  18
HETATM   18  O1  UNK     1      29.570  -5.965  35.425  1.00  0.00    -0.348 OA
BRANCH  18  19
HETATM   19  C3  UNK     1      29.587  -5.828  36.843  1.00  0.00     0.202 C 
BRANCH  19  20
HETATM   20  C4  UNK     1      30.392  -4.595  37.212  1.00  0.00     0.202 C 
BRANCH  20  21
HETATM   21  O2  UNK     1      31.536  -4.993  37.957  1.00  0.00    -0.349 OA
BRANCH  21  22
HETATM   22  C8  UNK     1      32.612  -5.448  37.240  1.00  0.00     0.068 A 
HETATM   23  C14 UNK     1      33.163  -6.688  37.541  1.00  0.00     0.037 A 
HETATM   24  C16 UNK     1      34.259  -7.152  36.811  1.00  0.00     0.009 A 
HETATM   25  C11 UNK     1      34.794  -6.372  35.787  1.00  0.00    -0.062 A 
HETATM   26  C17 UNK     1      34.235  -5.129  35.491  1.00  0.00     0.009 A 
HETATM   27  C20 UNK     1      35.965  -6.867  35.007  1.00  0.00     0.048 C 
HETATM   28  C15 UNK     1      33.141  -4.664  36.220  1.00  0.00     0.037 A 
ENDBRANCH  21  22
ENDBRANCH  20  21
ENDBRANCH  19  20
ENDBRANCH  18  19
ENDBRANCH  12  18
ENDBRANCH   2  11
TORSDOF 7
ENDMDL
MODEL 3
REMARK VINA RESULT:      -7.0     10.597     13.178
REMARK  7 active torsions:
REMARK  status: ('A' for Active; 'I' for Inactive)
REMARK    1  A    between atoms: C2_6  and  O1_2 
REMARK    2  A    between atoms: C3_7  and  O1_2 
REMARK    3  A    between atoms: C4_8  and  O2_3 
REMARK    4  A    between atoms: C8_12  and  O2_3 
REMARK    5  A    between atoms: C1_5  and  C5_9 
REMARK    6  A    between atoms: C3_7  and  C4_8 
REMARK    7  A    between atoms: C10_14  and  C9_13 
ROOT
HETATM    1  N1  UNK     1      22.654  -5.902  38.649  1.00  0.00    -0.191 NA
HETATM    2  C5  UNK     1      20.771  -3.366  37.264  1.00  0.00     0.038 C 
HETATM    3  C9  UNK     1      20.765  -4.726  37.305  1.00  0.00     0.055 C 
HETATM    4  C24 UNK     1      21.815  -5.368  38.051  1.00  0.00     0.100 C 
ENDROOT
BRANCH   3   5
HETATM    5  C10 UNK     1      19.763  -5.551  36.649  1.00  0.00    -0.015 A 
HETATM    6  C18 UNK     1      20.093  -6.266  35.497  1.00  0.00     0.013 A 
HETATM    7  C21 UNK     1      19.132  -7.059  34.869  1.00  0.00     0.001 A 
HETATM    8  C23 UNK     1      17.842  -7.137  35.392  1.00  0.00     0.000 A 
HETATM    9  C22 UNK     1      17.513  -6.422  36.545  1.00  0.00     0.001 A 
HETATM   10  C19 UNK     1      18.472  -5.630  37.173  1.00  0.00     0.013 A 
ENDBRANCH   3   5
BRANCH   2  11
HETATM   11  C1  UNK     1      19.805  -2.526  36.542  1.00  0.00     0.000 A 
HETATM   12  C2  UNK     1      19.891  -2.377  35.165  1.00  0.00     0.079 A 
HETATM   13  C7  UNK     1      18.961  -1.575  34.501  1.00  0.00     0.039 A 
HETATM   14  C13 UNK     1      17.956  -0.930  35.222  1.00  0.00     0.026 A 
HETATM   15  C12 UNK     1      17.880  -1.087  36.606  1.00  0.00     0.035 A 
HETATM   16 Cl1  UNK     1      16.640  -0.290  37.494  1.00  0.00    -0.084 Cl
HETATM   17  C6  UNK     1      18.809  -1.889  37.270  1.00  0.00     0.038 A 
BRANCH  12  18
HETATM   18  O1  UNK     1      20.863  -2.995  34.436  1.00  0.00    -0.348 OA
BRANCH  18  19
HETATM   19  C3  UNK     1      20.579  -3.249  33.063  1.00  0.00     0.202 C 
BRANCH  19  20
HETATM   20  C4  UNK     1      21.210  -2.159  32.217  1.00  0.00     0.202 C 
BRANCH  20  21
HETATM   21  O2  UNK     1      20.724  -2.266  30.884  1.00  0.00    -0.349 OA
BRANCH  21  22
HETATM   22  C8  UNK     1      20.099  -1.163  30.365  1.00  0.00     0.068 A 
HETATM   23  C14 UNK     1      19.600  -0.189  31.221  1.00  0.00     0.037 A 
HETATM   24  C16 UNK     1      18.963   0.935  30.694  1.00  0.00     0.009 A 
HETATM   25  C11 UNK     1      18.830   1.076  29.312  1.00  0.00    -0.062 A 
HETATM   26  C17 UNK     1      19.334   0.094  28.459  1.00  0.00     0.009 A 
HETATM   27  C20 UNK     1      18.150   2.277  28.747  1.00  0.00     0.048 C 
HETATM   28  C15 UNK     1      19.970  -1.029  28.987  1.00  0.00     0.037 A 
ENDBRANCH  21  22
ENDBRANCH  20  21
ENDBRANCH  19  20
ENDBRANCH  18  19
ENDBRANCH  12  18
ENDBRANCH   2  11
TORSDOF 7
ENDMDL
MODEL 4
REMARK VINA RESULT:      -6.9      2.990      5.824
REMARK  7 active torsions:
REMARK  status: ('A' for Active; 'I' for Inactive)
REMARK    1  A    between atoms: C2_6  and  O1_2 
REMARK    2  A    between atoms: C3_7  and  O1_2 
REMARK    3  A    between atoms: C4_8  and  O2_3 
REMARK    4  A    between atoms: C8_12  and  O2_3 
REMARK    5  A    between atoms: C1_5  and  C5_9 
REMARK    6  A    between atoms: C3_7  and  C4_8 
REMARK    7  A    between atoms: C10_14  and  C9_13 
ROOT
HETATM    1  N1  UNK     1      29.320  -3.691  39.870  1.00  0.00    -0.191 NA
HETATM    2  C5  UNK     1      30.455  -6.156  37.742  1.00  0.00     0.038 C 
HETATM    3  C9  UNK     1      29.410  -5.951  38.588  1.00  0.00     0.055 C 
HETATM    4  C24 UNK     1      29.369  -4.697  39.294  1.00  0.00     0.100 C 
ENDROOT
BRANCH   3   5
HETATM    5  C10 UNK     1      28.346  -6.917  38.809  1.00  0.00    -0.015 A 
HETATM    6  C18 UNK     1      28.626  -8.134  39.433  1.00  0.00     0.013 A 
HETATM    7  C21 UNK     1      27.604  -9.059  39.646  1.00  0.00     0.001 A 
HETATM    8  C23 UNK     1      26.303  -8.768  39.237  1.00  0.00     0.000 A 
HETATM    9  C22 UNK     1      26.023  -7.551  38.614  1.00  0.00     0.001 A 
HETATM   10  C19 UNK     1      27.044  -6.626  38.401  1.00  0.00     0.013 A 
ENDBRANCH   3   5
BRANCH   2  11
HETATM   11  C1  UNK     1      30.691  -7.371  36.951  1.00  0.00     0.000 A 
HETATM   12  C2  UNK     1      31.837  -8.130  37.147  1.00  0.00     0.079 A 
HETATM   13  C7  UNK     1      32.038  -9.281  36.384  1.00  0.00     0.039 A 
HETATM   14  C13 UNK     1      31.092  -9.662  35.432  1.00  0.00     0.026 A 
HETATM   15  C12 UNK     1      29.945  -8.891  35.243  1.00  0.00     0.035 A 
HETATM   16 Cl1  UNK     1      28.778  -9.362  34.068  1.00  0.00    -0.084 Cl
HETATM   17  C6  UNK     1      29.742  -7.741  36.006  1.00  0.00     0.038 A 
BRANCH  12  18
HETATM   18  O1  UNK     1      32.778  -7.781  38.070  1.00  0.00    -0.348 OA
BRANCH  18  19
HETATM   19  C3  UNK     1      34.072  -7.442  37.577  1.00  0.00     0.202 C 
BRANCH  19  20
HETATM   20  C4  UNK     1      34.101  -5.963  37.241  1.00  0.00     0.202 C 
BRANCH  20  21
HETATM   21  O2  UNK     1      34.499  -5.802  35.885  1.00  0.00    -0.349 OA
BRANCH  21  22
HETATM   22  C8  UNK     1      33.531  -5.981  34.932  1.00  0.00     0.068 A 
HETATM   23  C14 UNK     1      33.627  -7.048  34.047  1.00  0.00     0.037 A 
HETATM   24  C16 UNK     1      32.641  -7.232  33.076  1.00  0.00     0.009 A 
HETATM   25  C11 UNK     1      31.567  -6.345  32.998  1.00  0.00    -0.062 A 
HETATM   26  C17 UNK     1      31.478  -5.276  33.891  1.00  0.00     0.009 A 
HETATM   27  C20 UNK     1      30.514  -6.540  31.961  1.00  0.00     0.048 C 
HETATM   28  C15 UNK     1      32.463  -5.093  34.860  1.00  0.00     0.037 A 
ENDBRANCH  21  22
ENDBRANCH  20  21
ENDBRANCH  19  20
ENDBRANCH  18  19
ENDBRANCH  12  18
ENDBRANCH   2  11
TORSDOF 7
ENDMDL
MODEL 5
REMARK VINA RESULT:      -6.9      3.259      5.946
REMARK  7 active torsions:
REMARK  status: ('A' for Active; 'I' for Inactive)
REMARK    1  A    between atoms: C2_6  and  O1_2 
REMARK    2  A    between atoms: C3_7  and  O1_2 
REMARK    3  A    between atoms: C4_8  and  O2_3 
REMARK    4  A    between atoms: C8_12  and  O2_3 
REMARK    5  A    between atoms: C1_5  and  C5_9 
REMARK    6  A    between atoms: C3_7  and  C4_8 
REMARK    7  A    between atoms: C10_14  and  C9_13 
ROOT
HETATM    1  N1  UNK     1      26.237  -4.815  38.709  1.00  0.00    -0.191 NA
HETATM    2  C5  UNK     1      29.028  -6.364  37.406  1.00  0.00     0.038 C 
HETATM    3  C9  UNK     1      27.903  -6.711  38.087  1.00  0.00     0.055 C 
HETATM    4  C24 UNK     1      26.987  -5.654  38.428  1.00  0.00     0.100 C 
ENDROOT
BRANCH   3   5
HETATM    5  C10 UNK     1      27.582  -8.074  38.479  1.00  0.00    -0.015 A 
HETATM    6  C18 UNK     1      26.873  -8.902  37.608  1.00  0.00     0.013 A 
HETATM    7  C21 UNK     1      26.568 -10.210  37.983  1.00  0.00     0.001 A 
HETATM    8  C23 UNK     1      26.971 -10.691  39.229  1.00  0.00     0.000 A 
HETATM    9  C22 UNK     1      27.682  -9.863  40.099  1.00  0.00     0.001 A 
HETATM   10  C19 UNK     1      27.987  -8.555  39.724  1.00  0.00     0.013 A 
ENDBRANCH   3   5
BRANCH   2  11
HETATM   11  C1  UNK     1      30.094  -7.285  36.986  1.00  0.00     0.000 A 
HETATM   12  C2  UNK     1      31.354  -7.216  37.565  1.00  0.00     0.079 A 
HETATM   13  C7  UNK     1      32.350  -8.101  37.151  1.00  0.00     0.039 A 
HETATM   14  C13 UNK     1      32.076  -9.047  36.163  1.00  0.00     0.026 A 
HETATM   15  C12 UNK     1      30.806  -9.107  35.588  1.00  0.00     0.035 A 
HETATM   16 Cl1  UNK     1      30.470 -10.274  34.369  1.00  0.00    -0.084 Cl
HETATM   17  C6  UNK     1      29.810  -8.222  36.002  1.00  0.00     0.038 A 
BRANCH  12  18
HETATM   18  O1  UNK     1      31.650  -6.301  38.532  1.00  0.00    -0.348 OA
BRANCH  18  19
HETATM   19  C3  UNK     1      32.677  -5.358  38.237  1.00  0.00     0.202 C 
BRANCH  19  20
HETATM   20  C4  UNK     1      32.142  -4.337  37.250  1.00  0.00     0.202 C 
BRANCH  20  21
HETATM   21  O2  UNK     1      33.056  -4.215  36.168  1.00  0.00    -0.349 OA
BRANCH  21  22
HETATM   22  C8  UNK     1      32.920  -5.112  35.141  1.00  0.00     0.068 A 
HETATM   23  C14 UNK     1      33.999  -5.909  34.777  1.00  0.00     0.037 A 
HETATM   24  C16 UNK     1      33.861  -6.823  33.732  1.00  0.00     0.009 A 
HETATM   25  C11 UNK     1      32.645  -6.933  33.058  1.00  0.00    -0.062 A 
HETATM   26  C17 UNK     1      31.567  -6.129  33.429  1.00  0.00     0.009 A 
HETATM   27  C20 UNK     1      32.497  -7.909  31.940  1.00  0.00     0.048 C 
HETATM   28  C15 UNK     1      31.704  -5.215  34.474  1.00  0.00     0.037 A 
ENDBRANCH  21  22
ENDBRANCH  20  21
ENDBRANCH  19  20
ENDBRANCH  18  19
ENDBRANCH  12  18
ENDBRANCH   2  11
TORSDOF 7
ENDMDL
MODEL 6
REMARK VINA RESULT:      -6.9     31.258     33.875
REMARK  7 active torsions:
REMARK  status: ('A' for Active; 'I' for Inactive)
REMARK    1  A    between atoms: C2_6  and  O1_2 
REMARK    2  A    between atoms: C3_7  and  O1_2 
REMARK    3  A    between atoms: C4_8  and  O2_3 
REMARK    4  A    between atoms: C8_12  and  O2_3 
REMARK    5  A    between atoms: C1_5  and  C5_9 
REMARK    6  A    between atoms: C3_7  and  C4_8 
REMARK    7  A    between atoms: C10_14  and  C9_13 
ROOT
HETATM    1  N1  UNK     1      10.075   8.502   9.555  1.00  0.00    -0.191 NA
HETATM    2  C5  UNK     1      13.448   9.012   9.045  1.00  0.00     0.038 C 
HETATM    3  C9  UNK     1      12.493   9.376   9.942  1.00  0.00     0.055 C 
HETATM    4  C24 UNK     1      11.157   8.888   9.720  1.00  0.00     0.100 C 
ENDROOT
BRANCH   3   5
HETATM    5  C10 UNK     1      12.750  10.217  11.101  1.00  0.00    -0.015 A 
HETATM    6  C18 UNK     1      12.632  11.604  10.998  1.00  0.00     0.013 A 
HETATM    7  C21 UNK     1      12.877  12.409  12.110  1.00  0.00     0.001 A 
HETATM    8  C23 UNK     1      13.240  11.829  13.325  1.00  0.00     0.000 A 
HETATM    9  C22 UNK     1      13.357  10.442  13.428  1.00  0.00     0.001 A 
HETATM   10  C19 UNK     1      13.112   9.636  12.317  1.00  0.00     0.013 A 
ENDBRANCH   3   5
BRANCH   2  11
HETATM   11  C1  UNK     1      14.859   9.421   9.081  1.00  0.00     0.000 A 
HETATM   12  C2  UNK     1      15.788   8.686   9.804  1.00  0.00     0.079 A 
HETATM   13  C7  UNK     1      17.123   9.094   9.822  1.00  0.00     0.039 A 
HETATM   14  C13 UNK     1      17.514  10.232   9.117  1.00  0.00     0.026 A 
HETATM   15  C12 UNK     1      16.571  10.963   8.395  1.00  0.00     0.035 A 
HETATM   16 Cl1  UNK     1      17.056  12.368   7.526  1.00  0.00    -0.084 Cl
HETATM   17  C6  UNK     1      15.237  10.556   8.375  1.00  0.00     0.038 A 
BRANCH  12  18
HETATM   18  O1  UNK     1      15.434   7.570  10.502  1.00  0.00    -0.348 OA
BRANCH  18  19
HETATM   19  C3  UNK     1      16.116   6.362  10.179  1.00  0.00     0.202 C 
BRANCH  19  20
HETATM   20  C4  UNK     1      15.101   5.324   9.737  1.00  0.00     0.202 C 
BRANCH  20  21
HETATM   21  O2  UNK     1      14.849   5.485   8.346  1.00  0.00    -0.349 OA
BRANCH  21  22
HETATM   22  C8  UNK     1      13.542   5.653   7.971  1.00  0.00     0.068 A 
HETATM   23  C14 UNK     1      12.530   5.077   8.730  1.00  0.00     0.037 A 
HETATM   24  C16 UNK     1      11.198   5.248   8.349  1.00  0.00     0.009 A 
HETATM   25  C11 UNK     1      10.889   5.994   7.212  1.00  0.00    -0.062 A 
HETATM   26  C17 UNK     1      11.911   6.569   6.456  1.00  0.00     0.009 A 
HETATM   27  C20 UNK     1       9.467   6.176   6.804  1.00  0.00     0.048 C 
HETATM   28  C15 UNK     1      13.242   6.398   6.836  1.00  0.00     0.037 A 
ENDBRANCH  21  22
ENDBRANCH  20  21
ENDBRANCH  19  20
ENDBRANCH  18  19
ENDBRANCH  12  18
ENDBRANCH   2  11
TORSDOF 7
ENDMDL
MODEL 7
REMARK VINA RESULT:      -6.8      2.013      2.918
REMARK  7 active torsions:
REMARK  status: ('A' for Active; 'I' for Inactive)
REMARK    1  A    between atoms: C2_6  and  O1_2 
REMARK    2  A    between atoms: C3_7  and  O1_2 
REMARK    3  A    between atoms: C4_8  and  O2_3 
REMARK    4  A    between atoms: C8_12  and  O2_3 
REMARK    5  A    between atoms: C1_5  and  C5_9 
REMARK    6  A    between atoms: C3_7  and  C4_8 
REMARK    7  A    between atoms: C10_14  and  C9_13 
ROOT
HETATM    1  N1  UNK     1      32.440  -8.924  29.490  1.00  0.00    -0.191 NA
HETATM    2  C5  UNK     1      31.177  -8.179  32.611  1.00  0.00     0.038 C 
HETATM    3  C9  UNK     1      30.752  -8.175  31.319  1.00  0.00     0.055 C 
HETATM    4  C24 UNK     1      31.694  -8.591  30.313  1.00  0.00     0.100 C 
ENDROOT
BRANCH   3   5
HETATM    5  C10 UNK     1      29.412  -7.784  30.910  1.00  0.00    -0.015 A 
HETATM    6  C18 UNK     1      28.411  -8.747  30.782  1.00  0.00     0.013 A 
HETATM    7  C21 UNK     1      27.126  -8.370  30.392  1.00  0.00     0.001 A 
HETATM    8  C23 UNK     1      26.842  -7.031  30.129  1.00  0.00     0.000 A 
HETATM    9  C22 UNK     1      27.843  -6.067  30.257  1.00  0.00     0.001 A 
HETATM   10  C19 UNK     1      29.128  -6.443  30.647  1.00  0.00     0.013 A 
ENDBRANCH   3   5
BRANCH   2  11
HETATM   11  C1  UNK     1      30.381  -7.771  33.777  1.00  0.00     0.000 A 
HETATM   12  C2  UNK     1      30.464  -6.476  34.270  1.00  0.00     0.079 A 
HETATM   13  C7  UNK     1      29.698  -6.111  35.377  1.00  0.00     0.039 A 
HETATM   14  C13 UNK     1      28.856  -7.045  35.981  1.00  0.00     0.026 A 
HETATM   15  C12 UNK     1      28.780  -8.344  35.477  1.00  0.00     0.035 A 
HETATM   16 Cl1  UNK     1      27.741  -9.495  36.223  1.00  0.00    -0.084 Cl
HETATM   17  C6  UNK     1      29.546  -8.709  34.370  1.00  0.00     0.038 A 
BRANCH  12  18
HETATM   18  O1  UNK     1      31.280  -5.543  33.700  1.00  0.00    -0.348 OA
BRANCH  18  19
HETATM   19  C3  UNK     1      32.193  -4.870  34.563  1.00  0.00     0.202 C 
BRANCH  19  20
HETATM   20  C4  UNK     1      33.520  -5.606  34.550  1.00  0.00     0.202 C 
BRANCH  20  21
HETATM   21  O2  UNK     1      33.882  -5.930  35.887  1.00  0.00    -0.349 OA
BRANCH  21  22
HETATM   22  C8  UNK     1      33.157  -6.917  36.501  1.00  0.00     0.068 A 
HETATM   23  C14 UNK     1      32.476  -6.637  37.680  1.00  0.00     0.037 A 
HETATM   24  C16 UNK     1      31.736  -7.641  38.306  1.00  0.00     0.009 A 
HETATM   25  C11 UNK     1      31.684  -8.919  37.749  1.00  0.00    -0.062 A 
HETATM   26  C17 UNK     1      32.371  -9.192  36.566  1.00  0.00     0.009 A 
HETATM   27  C20 UNK     1      30.895  -9.992  38.418  1.00  0.00     0.048 C 
HETATM   28  C15 UNK     1      33.110  -8.189  35.940  1.00  0.00     0.037 A 
ENDBRANCH  21  22
ENDBRANCH  20  21
ENDBRANCH  19  20
ENDBRANCH  18  19
ENDBRANCH  12  18
ENDBRANCH   2  11
TORSDOF 7
ENDMDL
MODEL 8
REMARK VINA RESULT:      -6.8      2.989      7.277
REMARK  7 active torsions:
REMARK  status: ('A' for Active; 'I' for Inactive)
REMARK    1  A    between atoms: C2_6  and  O1_2 
REMARK    2  A    between atoms: C3_7  and  O1_2 
REMARK    3  A    between atoms: C4_8  and  O2_3 
REMARK    4  A    between atoms: C8_12  and  O2_3 
REMARK    5  A    between atoms: C1_5  and  C5_9 
REMARK    6  A    between atoms: C3_7  and  C4_8 
REMARK    7  A    between atoms: C10_14  and  C9_13 
ROOT
HETATM    1  N1  UNK     1      29.292  -3.904  39.670  1.00  0.00    -0.191 NA
HETATM    2  C5  UNK     1      31.017  -4.664  36.783  1.00  0.00     0.038 C 
HETATM    3  C9  UNK     1      30.441  -5.326  37.822  1.00  0.00     0.055 C 
HETATM    4  C24 UNK     1      29.807  -4.530  38.841  1.00  0.00     0.100 C 
ENDROOT
BRANCH   3   5
HETATM    5  C10 UNK     1      30.429  -6.774  37.952  1.00  0.00    -0.015 A 
HETATM    6  C18 UNK     1      31.606  -7.458  38.261  1.00  0.00     0.013 A 
HETATM    7  C21 UNK     1      31.593  -8.847  38.387  1.00  0.00     0.001 A 
HETATM    8  C23 UNK     1      30.404  -9.552  38.205  1.00  0.00     0.000 A 
HETATM    9  C22 UNK     1      29.227  -8.868  37.898  1.00  0.00     0.001 A 
HETATM   10  C19 UNK     1      29.240  -7.480  37.771  1.00  0.00     0.013 A 
ENDBRANCH   3   5
BRANCH   2  11
HETATM   11  C1  UNK     1      31.730  -5.287  35.659  1.00  0.00     0.000 A 
HETATM   12  C2  UNK     1      31.030  -5.802  34.577  1.00  0.00     0.079 A 
HETATM   13  C7  UNK     1      31.729  -6.388  33.522  1.00  0.00     0.039 A 
HETATM   14  C13 UNK     1      33.121  -6.454  33.558  1.00  0.00     0.026 A 
HETATM   15  C12 UNK     1      33.815  -5.935  34.651  1.00  0.00     0.035 A 
HETATM   16 Cl1  UNK     1      35.534  -6.017  34.696  1.00  0.00    -0.084 Cl
HETATM   17  C6  UNK     1      33.117  -5.348  35.707  1.00  0.00     0.038 A 
BRANCH  12  18
HETATM   18  O1  UNK     1      29.668  -5.751  34.515  1.00  0.00    -0.348 OA
BRANCH  18  19
HETATM   19  C3  UNK     1      29.009  -6.847  33.885  1.00  0.00     0.202 C 
BRANCH  19  20
HETATM   20  C4  UNK     1      27.834  -6.321  33.081  1.00  0.00     0.202 C 
BRANCH  20  21
HETATM   21  O2  UNK     1      28.291  -5.934  31.791  1.00  0.00    -0.349 OA
BRANCH  21  22
HETATM   22  C8  UNK     1      28.486  -6.937  30.879  1.00  0.00     0.068 A 
HETATM   23  C14 UNK     1      29.654  -6.964  30.126  1.00  0.00     0.037 A 
HETATM   24  C16 UNK     1      29.854  -7.985  29.196  1.00  0.00     0.009 A 
HETATM   25  C11 UNK     1      28.883  -8.973  29.027  1.00  0.00    -0.062 A 
HETATM   26  C17 UNK     1      27.714  -8.939  29.787  1.00  0.00     0.009 A 
HETATM   27  C20 UNK     1      29.096 -10.064  28.034  1.00  0.00     0.048 C 
HETATM   28  C15 UNK     1      27.514  -7.918  30.716  1.00  0.00     0.037 A 
ENDBRANCH  21  22
ENDBRANCH  20  21
ENDBRANCH  19  20
ENDBRANCH  18  19
ENDBRANCH  12  18
ENDBRANCH   2  11
TORSDOF 7
ENDMDL
MODEL 9
REMARK VINA RESULT:      -6.8      3.236      7.189
REMARK  7 active torsions:
REMARK  status: ('A' for Active; 'I' for Inactive)
REMARK    1  A    between atoms: C2_6  and  O1_2 
REMARK    2  A    between atoms: C3_7  and  O1_2 
REMARK    3  A    between atoms: C4_8  and  O2_3 
REMARK    4  A    between atoms: C8_12  and  O2_3 
REMARK    5  A    between atoms: C1_5  and  C5_9 
REMARK    6  A    between atoms: C3_7  and  C4_8 
REMARK    7  A    between atoms: C10_14  and  C9_13 
ROOT
HETATM    1  N1  UNK     1      26.158  -7.713  37.636  1.00  0.00    -0.191 NA
HETATM    2  C5  UNK     1      28.078  -8.604  34.914  1.00  0.00     0.038 C 
HETATM    3  C9  UNK     1      28.257  -8.338  36.236  1.00  0.00     0.055 C 
HETATM    4  C24 UNK     1      27.089  -7.993  37.003  1.00  0.00     0.100 C 
ENDROOT
BRANCH   3   5
HETATM    5  C10 UNK     1      29.548  -8.390  36.904  1.00  0.00    -0.015 A 
HETATM    6  C18 UNK     1      30.163  -9.621  37.138  1.00  0.00     0.013 A 
HETATM    7  C21 UNK     1      31.402  -9.669  37.777  1.00  0.00     0.001 A 
HETATM    8  C23 UNK     1      32.026  -8.489  38.181  1.00  0.00     0.000 A 
HETATM    9  C22 UNK     1      31.410  -7.259  37.946  1.00  0.00     0.001 A 
HETATM   10  C19 UNK     1      30.172  -7.210  37.307  1.00  0.00     0.013 A 
ENDBRANCH   3   5
BRANCH   2  11
HETATM   11  C1  UNK     1      29.139  -8.952  33.958  1.00  0.00     0.000 A 
HETATM   12  C2  UNK     1      30.033  -7.987  33.514  1.00  0.00     0.079 A 
HETATM   13  C7  UNK     1      31.032  -8.342  32.607  1.00  0.00     0.039 A 
HETATM   14  C13 UNK     1      31.128  -9.657  32.154  1.00  0.00     0.026 A 
HETATM   15  C12 UNK     1      30.224 -10.618  32.606  1.00  0.00     0.035 A 
HETATM   16 Cl1  UNK     1      30.342 -12.241  32.044  1.00  0.00    -0.084 Cl
HETATM   17  C6  UNK     1      29.224 -10.264  33.513  1.00  0.00     0.038 A 
BRANCH  12  18
HETATM   18  O1  UNK     1      29.962  -6.694  33.941  1.00  0.00    -0.348 OA
BRANCH  18  19
HETATM   19  C3  UNK     1      30.084  -5.679  32.948  1.00  0.00     0.202 C 
BRANCH  19  20
HETATM   20  C4  UNK     1      28.726  -5.440  32.315  1.00  0.00     0.202 C 
BRANCH  20  21
HETATM   21  O2  UNK     1      28.860  -5.487  30.900  1.00  0.00    -0.349 OA
BRANCH  21  22
HETATM   22  C8  UNK     1      28.804  -6.725  30.316  1.00  0.00     0.068 A 
HETATM   23  C14 UNK     1      27.754  -7.583  30.622  1.00  0.00     0.037 A 
HETATM   24  C16 UNK     1      27.696  -8.844  30.027  1.00  0.00     0.009 A 
HETATM   25  C11 UNK     1      28.689  -9.238  29.131  1.00  0.00    -0.062 A 
HETATM   26  C17 UNK     1      29.740  -8.371  28.829  1.00  0.00     0.009 A 
HETATM   27  C20 UNK     1      28.629 -10.586  28.496  1.00  0.00     0.048 C 
HETATM   28  C15 UNK     1      29.798  -7.111  29.423  1.00  0.00     0.037 A 
ENDBRANCH  21  22
ENDBRANCH  20  21
ENDBRANCH  19  20
ENDBRANCH  18  19
ENDBRANCH  12  18
ENDBRANCH   2  11
TORSDOF 7
ENDMDL
MODEL 10
REMARK VINA RESULT:      -6.8      2.810      6.676
REMARK  7 active torsions:
REMARK  status: ('A' for Active; 'I' for Inactive)
REMARK    1  A    between atoms: C2_6  and  O1_2 
REMARK    2  A    between atoms: C3_7  and  O1_2 
REMARK    3  A    between atoms: C4_8  and  O2_3 
REMARK    4  A    between atoms: C8_12  and  O2_3 
REMARK    5  A    between atoms: C1_5  and  C5_9 
REMARK    6  A    between atoms: C3_7  and  C4_8 
REMARK    7  A    between atoms: C10_14  and  C9_13 
ROOT
HETATM    1  N1  UNK     1      30.630 -10.441  38.879  1.00  0.00    -0.191 NA
HETATM    2  C5  UNK     1      30.453  -8.643  35.942  1.00  0.00     0.038 C 
HETATM    3  C9  UNK     1      30.423  -8.401  37.280  1.00  0.00     0.055 C 
HETATM    4  C24 UNK     1      30.538  -9.536  38.158  1.00  0.00     0.100 C 
ENDROOT
BRANCH   3   5
HETATM    5  C10 UNK     1      30.288  -7.075  37.861  1.00  0.00    -0.015 A 
HETATM    6  C18 UNK     1      29.039  -6.625  38.292  1.00  0.00     0.013 A 
HETATM    7  C21 UNK     1      28.911  -5.353  38.850  1.00  0.00     0.001 A 
HETATM    8  C23 UNK     1      30.030  -4.531  38.978  1.00  0.00     0.000 A 
HETATM    9  C22 UNK     1      31.279  -4.982  38.548  1.00  0.00     0.001 A 
HETATM   10  C19 UNK     1      31.408  -6.253  37.989  1.00  0.00     0.013 A 
ENDBRANCH   3   5
BRANCH   2  11
HETATM   11  C1  UNK     1      30.328  -7.629  34.885  1.00  0.00     0.000 A 
HETATM   12  C2  UNK     1      31.459  -7.051  34.324  1.00  0.00     0.079 A 
HETATM   13  C7  UNK     1      31.316  -6.092  33.322  1.00  0.00     0.039 A 
HETATM   14  C13 UNK     1      30.043  -5.719  32.890  1.00  0.00     0.026 A 
HETATM   15  C12 UNK     1      28.913  -6.305  33.461  1.00  0.00     0.035 A 
HETATM   16 Cl1  UNK     1      27.343  -5.843  32.928  1.00  0.00    -0.084 Cl
HETATM   17  C6  UNK     1      29.056  -7.265  34.463  1.00  0.00     0.038 A 
BRANCH  12  18
HETATM   18  O1  UNK     1      32.715  -7.396  34.728  1.00  0.00    -0.348 OA
BRANCH  18  19
HETATM   19  C3  UNK     1      33.576  -7.965  33.745  1.00  0.00     0.202 C 
BRANCH  19  20
HETATM   20  C4  UNK     1      33.192  -9.417  33.532  1.00  0.00     0.202 C 
BRANCH  20  21
HETATM   21  O2  UNK     1      32.930  -9.629  32.150  1.00  0.00    -0.349 OA
BRANCH  21  22
HETATM   22  C8  UNK     1      31.648  -9.399  31.722  1.00  0.00     0.068 A 
HETATM   23  C14 UNK     1      31.423  -8.520  30.670  1.00  0.00     0.037 A 
HETATM   24  C16 UNK     1      30.118  -8.285  30.233  1.00  0.00     0.009 A 
HETATM   25  C11 UNK     1      29.049  -8.931  30.854  1.00  0.00    -0.062 A 
HETATM   26  C17 UNK     1      29.284  -9.811  31.911  1.00  0.00     0.009 A 
HETATM   27  C20 UNK     1      27.655  -8.679  30.389  1.00  0.00     0.048 C 
HETATM   28  C15 UNK     1      30.587 -10.046  32.347  1.00  0.00     0.037 A 
ENDBRANCH  21  22
ENDBRANCH  20  21
ENDBRANCH  19  20
ENDBRANCH  18  19
ENDBRANCH  12  18
ENDBRANCH   2  11
TORSDOF 7
ENDMDL
