MODEL 1
REMARK VINA RESULT:      -8.5      0.000      0.000
REMARK  3 active torsions:
REMARK  status: ('A' for Active; 'I' for Inactive)
REMARK    1  A    between atoms: C1_8  and  N1_6 
REMARK       I    between atoms: C4_11  and  N1_6 
REMARK    2  A    between atoms: C12_19  and  N2_7 
REMARK    3  A    between atoms: C4_11  and  C5_12 
ROOT
HETATM    1  O1  UNK     1      19.313   0.802  14.992  1.00  0.00    -0.274 OA
HETATM    2  O3  UNK     1      19.322  -0.745  13.312  1.00  0.00    -0.259 OA
HETATM    3  C5  UNK     1      18.909  -1.555  15.499  1.00  0.00     0.108 A 
HETATM    4  C6  UNK     1      18.772  -1.280  16.802  1.00  0.00     0.037 A 
HETATM    5  C7  UNK     1      18.902   0.089  17.279  1.00  0.00     0.001 A 
HETATM    6  C8  UNK     1      19.170   1.099  16.361  1.00  0.00     0.089 A 
HETATM    7  C9  UNK     1      19.194  -0.496  14.505  1.00  0.00     0.304 A 
HETATM    8  C10 UNK     1      18.767   0.422  18.629  1.00  0.00     0.050 A 
HETATM    9  C11 UNK     1      19.306   2.429  16.754  1.00  0.00     0.041 A 
HETATM   10  C12 UNK     1      18.901   1.752  19.038  1.00  0.00     0.103 A 
HETATM   11  C13 UNK     1      19.170   2.753  18.102  1.00  0.00     0.039 A 
ENDROOT
BRANCH   3  12
HETATM   12  C4  UNK     1      18.762  -2.965  15.116  1.00  0.00     0.258 C 
HETATM   13  O2  UNK     1      17.650  -3.457  14.934  1.00  0.00    -0.267 OA
HETATM   14  N1  UNK     1      19.975  -3.619  14.998  1.00  0.00    -0.352 N 
HETATM   15  H6  UNK     1      20.848  -3.117  15.135  1.00  0.00     0.163 HD
BRANCH  14  16
HETATM   16  C1  UNK     1      20.086  -5.013  14.633  1.00  0.00     0.084 A 
HETATM   17  C2  UNK     1      21.056  -5.901  15.332  1.00  0.00     0.027 A 
HETATM   18  C3  UNK     1      19.581  -6.074  15.550  1.00  0.00     0.027 A 
ENDBRANCH  14  16
ENDBRANCH   3  12
BRANCH  10  19
HETATM   19  N2  UNK     1      18.764   2.088  20.411  1.00  0.00    -0.116 N 
HETATM   20  O4  UNK     1      19.774   2.475  21.046  1.00  0.00    -0.532 OA
HETATM   21  O5  UNK     1      17.635   1.989  20.951  1.00  0.00    -0.532 OA
ENDBRANCH  10  19
TORSDOF 3
ENDMDL
MODEL 2
REMARK VINA RESULT:      -8.2     12.896     15.662
REMARK  3 active torsions:
REMARK  status: ('A' for Active; 'I' for Inactive)
REMARK    1  A    between atoms: C1_8  and  N1_6 
REMARK       I    between atoms: C4_11  and  N1_6 
REMARK    2  A    between atoms: C12_19  and  N2_7 
REMARK    3  A    between atoms: C4_11  and  C5_12 
ROOT
HETATM    1  O1  UNK     1      19.069   0.557  28.678  1.00  0.00    -0.274 OA
HETATM    2  O3  UNK     1      18.190   2.621  28.248  1.00  0.00    -0.259 OA
HETATM    3  C5  UNK     1      18.758   2.156  30.500  1.00  0.00     0.108 A 
HETATM    4  C6  UNK     1      19.250   1.283  31.387  1.00  0.00     0.037 A 
HETATM    5  C7  UNK     1      19.688  -0.034  30.952  1.00  0.00     0.001 A 
HETATM    6  C8  UNK     1      19.587  -0.367  29.606  1.00  0.00     0.089 A 
HETATM    7  C9  UNK     1      18.641   1.824  29.062  1.00  0.00     0.304 A 
HETATM    8  C10 UNK     1      20.208  -0.977  31.843  1.00  0.00     0.050 A 
HETATM    9  C11 UNK     1      19.990  -1.611  29.125  1.00  0.00     0.041 A 
HETATM   10  C12 UNK     1      20.616  -2.230  31.376  1.00  0.00     0.103 A 
HETATM   11  C13 UNK     1      20.507  -2.546  30.020  1.00  0.00     0.039 A 
ENDROOT
BRANCH   3  12
HETATM   12  C4  UNK     1      18.341   3.459  31.036  1.00  0.00     0.258 C 
HETATM   13  O2  UNK     1      17.260   3.590  31.605  1.00  0.00    -0.267 OA
HETATM   14  N1  UNK     1      19.278   4.453  30.819  1.00  0.00    -0.352 N 
HETATM   15  H6  UNK     1      20.163   4.240  30.367  1.00  0.00     0.163 HD
BRANCH  14  16
HETATM   16  C1  UNK     1      19.091   5.819  31.253  1.00  0.00     0.084 A 
HETATM   17  C2  UNK     1      18.721   6.119  32.664  1.00  0.00     0.027 A 
HETATM   18  C3  UNK     1      20.088   6.466  32.152  1.00  0.00     0.027 A 
ENDBRANCH  14  16
ENDBRANCH   3  12
BRANCH  10  19
HETATM   19  N2  UNK     1      21.143  -3.186  32.283  1.00  0.00    -0.116 N 
HETATM   20  O4  UNK     1      21.199  -2.900  33.503  1.00  0.00    -0.532 OA
HETATM   21  O5  UNK     1      21.537  -4.293  31.840  1.00  0.00    -0.532 OA
ENDBRANCH  10  19
TORSDOF 3
ENDMDL
MODEL 3
REMARK VINA RESULT:      -8.2     13.628     16.375
REMARK  3 active torsions:
REMARK  status: ('A' for Active; 'I' for Inactive)
REMARK    1  A    between atoms: C1_8  and  N1_6 
REMARK       I    between atoms: C4_11  and  N1_6 
REMARK    2  A    between atoms: C12_19  and  N2_7 
REMARK    3  A    between atoms: C4_11  and  C5_12 
ROOT
HETATM    1  O1  UNK     1      20.805  -2.659  30.986  1.00  0.00    -0.274 OA
HETATM    2  O3  UNK     1      21.327  -4.073  32.703  1.00  0.00    -0.259 OA
HETATM    3  C5  UNK     1      20.209  -2.067  33.282  1.00  0.00     0.108 A 
HETATM    4  C6  UNK     1      19.661  -0.916  32.872  1.00  0.00     0.037 A 
HETATM    5  C7  UNK     1      19.658  -0.569  31.459  1.00  0.00     0.001 A 
HETATM    6  C8  UNK     1      20.231  -1.450  30.548  1.00  0.00     0.089 A 
HETATM    7  C9  UNK     1      20.824  -3.019  32.330  1.00  0.00     0.304 A 
HETATM    8  C10 UNK     1      19.099   0.621  30.986  1.00  0.00     0.050 A 
HETATM    9  C11 UNK     1      20.260  -1.177  29.182  1.00  0.00     0.041 A 
HETATM   10  C12 UNK     1      19.120   0.909  29.618  1.00  0.00     0.103 A 
HETATM   11  C13 UNK     1      19.699   0.012  28.718  1.00  0.00     0.039 A 
ENDROOT
BRANCH   3  12
HETATM   12  C4  UNK     1      20.165  -2.327  34.727  1.00  0.00     0.258 C 
HETATM   13  O2  UNK     1      20.411  -1.436  35.536  1.00  0.00    -0.267 OA
HETATM   14  N1  UNK     1      19.830  -3.635  35.026  1.00  0.00    -0.352 N 
HETATM   15  H6  UNK     1      19.608  -4.295  34.286  1.00  0.00     0.163 HD
BRANCH  14  16
HETATM   16  C1  UNK     1      19.725  -4.131  36.380  1.00  0.00     0.084 A 
HETATM   17  C2  UNK     1      20.052  -5.550  36.692  1.00  0.00     0.027 A 
HETATM   18  C3  UNK     1      20.952  -4.445  37.164  1.00  0.00     0.027 A 
ENDBRANCH  14  16
ENDBRANCH   3  12
BRANCH  10  19
HETATM   19  N2  UNK     1      18.551   2.119  29.141  1.00  0.00    -0.116 N 
HETATM   20  O4  UNK     1      18.705   3.169  29.811  1.00  0.00    -0.532 OA
HETATM   21  O5  UNK     1      17.912   2.106  28.061  1.00  0.00    -0.532 OA
ENDBRANCH  10  19
TORSDOF 3
ENDMDL
MODEL 4
REMARK VINA RESULT:      -7.9     12.590     15.683
REMARK  3 active torsions:
REMARK  status: ('A' for Active; 'I' for Inactive)
REMARK    1  A    between atoms: C1_8  and  N1_6 
REMARK       I    between atoms: C4_11  and  N1_6 
REMARK    2  A    between atoms: C12_19  and  N2_7 
REMARK    3  A    between atoms: C4_11  and  C5_12 
ROOT
HETATM    1  O1  UNK     1      18.286   2.966  33.458  1.00  0.00    -0.274 OA
HETATM    2  O3  UNK     1      18.853   0.838  32.850  1.00  0.00    -0.259 OA
HETATM    3  C5  UNK     1      18.631   2.419  31.100  1.00  0.00     0.108 A 
HETATM    4  C6  UNK     1      18.360   3.679  30.740  1.00  0.00     0.037 A 
HETATM    5  C7  UNK     1      18.028   4.674  31.749  1.00  0.00     0.001 A 
HETATM    6  C8  UNK     1      17.999   4.293  33.086  1.00  0.00     0.089 A 
HETATM    7  C9  UNK     1      18.606   1.991  32.517  1.00  0.00     0.304 A 
HETATM    8  C10 UNK     1      17.738   6.000  31.419  1.00  0.00     0.050 A 
HETATM    9  C11 UNK     1      17.690   5.198  34.100  1.00  0.00     0.041 A 
HETATM   10  C12 UNK     1      17.426   6.920  32.425  1.00  0.00     0.103 A 
HETATM   11  C13 UNK     1      17.402   6.519  33.762  1.00  0.00     0.039 A 
ENDROOT
BRANCH   3  12
HETATM   12  C4  UNK     1      18.952   1.488  30.010  1.00  0.00     0.258 C 
HETATM   13  O2  UNK     1      18.226   1.397  29.023  1.00  0.00    -0.267 OA
HETATM   14  N1  UNK     1      20.114   0.773  30.241  1.00  0.00    -0.352 N 
HETATM   15  H6  UNK     1      20.669   0.943  31.075  1.00  0.00     0.163 HD
BRANCH  14  16
HETATM   16  C1  UNK     1      20.633  -0.205  29.312  1.00  0.00     0.084 A 
HETATM   17  C2  UNK     1      20.404  -1.659  29.540  1.00  0.00     0.027 A 
HETATM   18  C3  UNK     1      19.712  -0.952  28.411  1.00  0.00     0.027 A 
ENDBRANCH  14  16
ENDBRANCH   3  12
BRANCH  10  19
HETATM   19  N2  UNK     1      17.131   8.266  32.086  1.00  0.00    -0.116 N 
HETATM   20  O4  UNK     1      17.544   9.186  32.833  1.00  0.00    -0.532 OA
HETATM   21  O5  UNK     1      16.465   8.500  31.048  1.00  0.00    -0.532 OA
ENDBRANCH  10  19
TORSDOF 3
ENDMDL
MODEL 5
REMARK VINA RESULT:      -7.8     15.089     16.941
REMARK  3 active torsions:
REMARK  status: ('A' for Active; 'I' for Inactive)
REMARK    1  A    between atoms: C1_8  and  N1_6 
REMARK       I    between atoms: C4_11  and  N1_6 
REMARK    2  A    between atoms: C12_19  and  N2_7 
REMARK    3  A    between atoms: C4_11  and  C5_12 
ROOT
HETATM    1  O1  UNK     1      19.181   2.667  30.598  1.00  0.00    -0.274 OA
HETATM    2  O3  UNK     1      19.439   0.487  31.232  1.00  0.00    -0.259 OA
HETATM    3  C5  UNK     1      18.360   1.922  32.777  1.00  0.00     0.108 A 
HETATM    4  C6  UNK     1      17.917   3.153  33.061  1.00  0.00     0.037 A 
HETATM    5  C7  UNK     1      18.090   4.234  32.102  1.00  0.00     0.001 A 
HETATM    6  C8  UNK     1      18.719   3.964  30.891  1.00  0.00     0.089 A 
HETATM    7  C9  UNK     1      19.031   1.613  31.495  1.00  0.00     0.304 A 
HETATM    8  C10 UNK     1      17.645   5.533  32.356  1.00  0.00     0.050 A 
HETATM    9  C11 UNK     1      18.914   4.954  29.930  1.00  0.00     0.041 A 
HETATM   10  C12 UNK     1      17.834   6.537  31.402  1.00  0.00     0.103 A 
HETATM   11  C13 UNK     1      18.467   6.248  30.191  1.00  0.00     0.039 A 
ENDROOT
BRANCH   3  12
HETATM   12  C4  UNK     1      18.140   0.901  33.809  1.00  0.00     0.258 C 
HETATM   13  O2  UNK     1      19.061   0.181  34.190  1.00  0.00    -0.267 OA
HETATM   14  N1  UNK     1      16.833   0.865  34.259  1.00  0.00    -0.352 N 
HETATM   15  H6  UNK     1      16.146   1.526  33.908  1.00  0.00     0.163 HD
BRANCH  14  16
HETATM   16  C1  UNK     1      16.374  -0.059  35.273  1.00  0.00     0.084 A 
HETATM   17  C2  UNK     1      16.707   0.167  36.706  1.00  0.00     0.027 A 
HETATM   18  C3  UNK     1      15.297   0.339  36.222  1.00  0.00     0.027 A 
ENDBRANCH  14  16
ENDBRANCH   3  12
BRANCH  10  19
HETATM   19  N2  UNK     1      17.381   7.857  31.664  1.00  0.00    -0.116 N 
HETATM   20  O4  UNK     1      17.848   8.475  32.650  1.00  0.00    -0.532 OA
HETATM   21  O5  UNK     1      16.527   8.369  30.899  1.00  0.00    -0.532 OA
ENDBRANCH  10  19
TORSDOF 3
ENDMDL
MODEL 6
REMARK VINA RESULT:      -7.7     14.473     17.220
REMARK  3 active torsions:
REMARK  status: ('A' for Active; 'I' for Inactive)
REMARK    1  A    between atoms: C1_8  and  N1_6 
REMARK       I    between atoms: C4_11  and  N1_6 
REMARK    2  A    between atoms: C12_19  and  N2_7 
REMARK    3  A    between atoms: C4_11  and  C5_12 
ROOT
HETATM    1  O1  UNK     1      20.029  -2.472  34.706  1.00  0.00    -0.274 OA
HETATM    2  O3  UNK     1      21.278  -3.207  32.940  1.00  0.00    -0.259 OA
HETATM    3  C5  UNK     1      19.678  -1.522  32.481  1.00  0.00     0.108 A 
HETATM    4  C6  UNK     1      18.718  -0.714  32.947  1.00  0.00     0.037 A 
HETATM    5  C7  UNK     1      18.355  -0.746  34.356  1.00  0.00     0.001 A 
HETATM    6  C8  UNK     1      19.020  -1.625  35.203  1.00  0.00     0.089 A 
HETATM    7  C9  UNK     1      20.400  -2.466  33.364  1.00  0.00     0.304 A 
HETATM    8  C10 UNK     1      17.359   0.079  34.886  1.00  0.00     0.050 A 
HETATM    9  C11 UNK     1      18.720  -1.704  36.562  1.00  0.00     0.041 A 
HETATM   10  C12 UNK     1      17.047   0.011  36.247  1.00  0.00     0.103 A 
HETATM   11  C13 UNK     1      17.725  -0.878  37.083  1.00  0.00     0.039 A 
ENDROOT
BRANCH   3  12
HETATM   12  C4  UNK     1      19.972  -1.418  31.046  1.00  0.00     0.258 C 
HETATM   13  O2  UNK     1      20.487  -2.353  30.437  1.00  0.00    -0.267 OA
HETATM   14  N1  UNK     1      19.612  -0.193  30.512  1.00  0.00    -0.352 N 
HETATM   15  H6  UNK     1      19.159   0.510  31.089  1.00  0.00     0.163 HD
BRANCH  14  16
HETATM   16  C1  UNK     1      19.806   0.147  29.120  1.00  0.00     0.084 A 
HETATM   17  C2  UNK     1      19.075  -0.593  28.054  1.00  0.00     0.027 A 
HETATM   18  C3  UNK     1      18.728   0.835  28.357  1.00  0.00     0.027 A 
ENDBRANCH  14  16
ENDBRANCH   3  12
BRANCH  10  19
HETATM   19  N2  UNK     1      16.034   0.850  36.783  1.00  0.00    -0.116 N 
HETATM   20  O4  UNK     1      16.349   1.718  37.632  1.00  0.00    -0.532 OA
HETATM   21  O5  UNK     1      14.850   0.700  36.391  1.00  0.00    -0.532 OA
ENDBRANCH  10  19
TORSDOF 3
ENDMDL
MODEL 7
REMARK VINA RESULT:      -7.7     15.944     18.703
REMARK  3 active torsions:
REMARK  status: ('A' for Active; 'I' for Inactive)
REMARK    1  A    between atoms: C1_8  and  N1_6 
REMARK       I    between atoms: C4_11  and  N1_6 
REMARK    2  A    between atoms: C12_19  and  N2_7 
REMARK    3  A    between atoms: C4_11  and  C5_12 
ROOT
HETATM    1  O1  UNK     1      18.288   1.435  32.376  1.00  0.00    -0.274 OA
HETATM    2  O3  UNK     1      18.362   3.034  30.747  1.00  0.00    -0.259 OA
HETATM    3  C5  UNK     1      18.275   3.802  32.986  1.00  0.00     0.108 A 
HETATM    4  C6  UNK     1      18.220   3.494  34.288  1.00  0.00     0.037 A 
HETATM    5  C7  UNK     1      18.195   2.102  34.711  1.00  0.00     0.001 A 
HETATM    6  C8  UNK     1      18.229   1.104  33.743  1.00  0.00     0.089 A 
HETATM    7  C9  UNK     1      18.313   2.756  31.939  1.00  0.00     0.304 A 
HETATM    8  C10 UNK     1      18.137   1.735  36.058  1.00  0.00     0.050 A 
HETATM    9  C11 UNK     1      18.208  -0.247  34.083  1.00  0.00     0.041 A 
HETATM   10  C12 UNK     1      18.115   0.383  36.414  1.00  0.00     0.103 A 
HETATM   11  C13 UNK     1      18.150  -0.606  35.428  1.00  0.00     0.039 A 
ENDROOT
BRANCH   3  12
HETATM   12  C4  UNK     1      18.295   5.234  32.659  1.00  0.00     0.258 C 
HETATM   13  O2  UNK     1      19.317   5.901  32.808  1.00  0.00    -0.267 OA
HETATM   14  N1  UNK     1      17.078   5.694  32.192  1.00  0.00    -0.352 N 
HETATM   15  H6  UNK     1      16.296   5.057  32.070  1.00  0.00     0.163 HD
BRANCH  14  16
HETATM   16  C1  UNK     1      16.851   7.069  31.807  1.00  0.00     0.084 A 
HETATM   17  C2  UNK     1      15.483   7.655  31.868  1.00  0.00     0.027 A 
HETATM   18  C3  UNK     1      16.538   8.098  32.839  1.00  0.00     0.027 A 
ENDBRANCH  14  16
ENDBRANCH   3  12
BRANCH  10  19
HETATM   19  N2  UNK     1      18.056   0.013  37.783  1.00  0.00    -0.116 N 
HETATM   20  O4  UNK     1      17.933   0.911  38.651  1.00  0.00    -0.532 OA
HETATM   21  O5  UNK     1      18.125  -1.203  38.088  1.00  0.00    -0.532 OA
ENDBRANCH  10  19
TORSDOF 3
ENDMDL
MODEL 8
REMARK VINA RESULT:      -7.6     13.811     17.124
REMARK  3 active torsions:
REMARK  status: ('A' for Active; 'I' for Inactive)
REMARK    1  A    between atoms: C1_8  and  N1_6 
REMARK       I    between atoms: C4_11  and  N1_6 
REMARK    2  A    between atoms: C12_19  and  N2_7 
REMARK    3  A    between atoms: C4_11  and  C5_12 
ROOT
HETATM    1  O1  UNK     1      20.495  -2.028  31.982  1.00  0.00    -0.274 OA
HETATM    2  O3  UNK     1      20.600  -3.211  33.933  1.00  0.00    -0.259 OA
HETATM    3  C5  UNK     1      19.245  -1.268  33.941  1.00  0.00     0.108 A 
HETATM    4  C6  UNK     1      18.766  -0.219  33.262  1.00  0.00     0.037 A 
HETATM    5  C7  UNK     1      19.138  -0.015  31.870  1.00  0.00     0.001 A 
HETATM    6  C8  UNK     1      19.995  -0.926  31.262  1.00  0.00     0.089 A 
HETATM    7  C9  UNK     1      20.158  -2.250  33.314  1.00  0.00     0.304 A 
HETATM    8  C10 UNK     1      18.662   1.066  31.124  1.00  0.00     0.050 A 
HETATM    9  C11 UNK     1      20.389  -0.788  29.933  1.00  0.00     0.041 A 
HETATM   10  C12 UNK     1      19.048   1.218  29.789  1.00  0.00     0.103 A 
HETATM   11  C13 UNK     1      19.910   0.293  29.195  1.00  0.00     0.039 A 
ENDROOT
BRANCH   3  12
HETATM   12  C4  UNK     1      18.814  -1.387  35.340  1.00  0.00     0.258 C 
HETATM   13  O2  UNK     1      19.269  -2.266  36.068  1.00  0.00    -0.267 OA
HETATM   14  N1  UNK     1      17.879  -0.431  35.696  1.00  0.00    -0.352 N 
HETATM   15  H6  UNK     1      17.587   0.280  35.032  1.00  0.00     0.163 HD
BRANCH  14  16
HETATM   16  C1  UNK     1      17.304  -0.347  37.020  1.00  0.00     0.084 A 
HETATM   17  C2  UNK     1      17.710   0.741  37.952  1.00  0.00     0.027 A 
HETATM   18  C3  UNK     1      16.334   0.734  37.352  1.00  0.00     0.027 A 
ENDBRANCH  14  16
ENDBRANCH   3  12
BRANCH  10  19
HETATM   19  N2  UNK     1      18.564   2.318  29.033  1.00  0.00    -0.116 N 
HETATM   20  O4  UNK     1      17.940   2.096  27.967  1.00  0.00    -0.532 OA
HETATM   21  O5  UNK     1      18.771   3.483  29.453  1.00  0.00    -0.532 OA
ENDBRANCH  10  19
TORSDOF 3
ENDMDL
MODEL 9
REMARK VINA RESULT:      -7.6      2.550      7.500
REMARK  3 active torsions:
REMARK  status: ('A' for Active; 'I' for Inactive)
REMARK    1  A    between atoms: C1_8  and  N1_6 
REMARK       I    between atoms: C4_11  and  N1_6 
REMARK    2  A    between atoms: C12_19  and  N2_7 
REMARK    3  A    between atoms: C4_11  and  C5_12 
ROOT
HETATM    1  O1  UNK     1      16.999  -3.827  15.764  1.00  0.00    -0.274 OA
HETATM    2  O3  UNK     1      16.263  -1.965  16.865  1.00  0.00    -0.259 OA
HETATM    3  C5  UNK     1      18.542  -1.986  16.220  1.00  0.00     0.108 A 
HETATM    4  C6  UNK     1      19.545  -2.644  15.625  1.00  0.00     0.037 A 
HETATM    5  C7  UNK     1      19.319  -3.963  15.054  1.00  0.00     0.001 A 
HETATM    6  C8  UNK     1      18.050  -4.524  15.138  1.00  0.00     0.089 A 
HETATM    7  C9  UNK     1      17.183  -2.564  16.320  1.00  0.00     0.304 A 
HETATM    8  C10 UNK     1      20.336  -4.685  14.425  1.00  0.00     0.050 A 
HETATM    9  C11 UNK     1      17.768  -5.783  14.611  1.00  0.00     0.041 A 
HETATM   10  C12 UNK     1      20.069  -5.950  13.892  1.00  0.00     0.103 A 
HETATM   11  C13 UNK     1      18.788  -6.498  13.985  1.00  0.00     0.039 A 
ENDROOT
BRANCH   3  12
HETATM   12  C4  UNK     1      18.869  -0.663  16.766  1.00  0.00     0.258 C 
HETATM   13  O2  UNK     1      19.183   0.266  16.025  1.00  0.00    -0.267 OA
HETATM   14  N1  UNK     1      18.780  -0.615  18.146  1.00  0.00    -0.352 N 
HETATM   15  H6  UNK     1      18.477  -1.429  18.673  1.00  0.00     0.163 HD
BRANCH  14  16
HETATM   16  C1  UNK     1      19.057   0.579  18.912  1.00  0.00     0.084 A 
HETATM   17  C2  UNK     1      18.253   0.904  20.122  1.00  0.00     0.027 A 
HETATM   18  C3  UNK     1      19.686   0.481  20.258  1.00  0.00     0.027 A 
ENDBRANCH  14  16
ENDBRANCH   3  12
BRANCH  10  19
HETATM   19  N2  UNK     1      21.105  -6.682  13.254  1.00  0.00    -0.116 N 
HETATM   20  O4  UNK     1      21.810  -7.461  13.939  1.00  0.00    -0.532 OA
HETATM   21  O5  UNK     1      21.285  -6.531  12.020  1.00  0.00    -0.532 OA
ENDBRANCH  10  19
TORSDOF 3
ENDMDL
MODEL 10
REMARK VINA RESULT:      -7.6      2.056      6.902
REMARK  3 active torsions:
REMARK  status: ('A' for Active; 'I' for Inactive)
REMARK    1  A    between atoms: C1_8  and  N1_6 
REMARK       I    between atoms: C4_11  and  N1_6 
REMARK    2  A    between atoms: C12_19  and  N2_7 
REMARK    3  A    between atoms: C4_11  and  C5_12 
ROOT
HETATM    1  O1  UNK     1      19.500  -0.414  14.161  1.00  0.00    -0.274 OA
HETATM    2  O3  UNK     1      19.795   1.549  15.292  1.00  0.00    -0.259 OA
HETATM    3  C5  UNK     1      18.978  -0.288  16.545  1.00  0.00     0.108 A 
HETATM    4  C6  UNK     1      18.607  -1.574  16.560  1.00  0.00     0.037 A 
HETATM    5  C7  UNK     1      18.665  -2.367  15.341  1.00  0.00     0.001 A 
HETATM    6  C8  UNK     1      19.111  -1.767  14.169  1.00  0.00     0.089 A 
HETATM    7  C9  UNK     1      19.456   0.371  15.309  1.00  0.00     0.304 A 
HETATM    8  C10 UNK     1      18.288  -3.712  15.310  1.00  0.00     0.050 A 
HETATM    9  C11 UNK     1      19.191  -2.471  12.969  1.00  0.00     0.041 A 
HETATM   10  C12 UNK     1      18.362  -4.431  14.113  1.00  0.00     0.103 A 
HETATM   11  C13 UNK     1      18.812  -3.812  12.945  1.00  0.00     0.039 A 
ENDROOT
BRANCH   3  12
HETATM   12  C4  UNK     1      18.882   0.429  17.824  1.00  0.00     0.258 C 
HETATM   13  O2  UNK     1      18.571  -0.161  18.856  1.00  0.00    -0.267 OA
HETATM   14  N1  UNK     1      19.173   1.776  17.707  1.00  0.00    -0.352 N 
HETATM   15  H6  UNK     1      19.455   2.169  16.813  1.00  0.00     0.163 HD
BRANCH  14  16
HETATM   16  C1  UNK     1      19.143   2.688  18.828  1.00  0.00     0.084 A 
HETATM   17  C2  UNK     1      20.181   2.609  19.893  1.00  0.00     0.027 A 
HETATM   18  C3  UNK     1      20.159   3.772  18.944  1.00  0.00     0.027 A 
ENDBRANCH  14  16
ENDBRANCH   3  12
BRANCH  10  19
HETATM   19  N2  UNK     1      17.977  -5.798  14.084  1.00  0.00    -0.116 N 
HETATM   20  O4  UNK     1      18.418  -6.572  14.967  1.00  0.00    -0.532 OA
HETATM   21  O5  UNK     1      17.204  -6.192  13.177  1.00  0.00    -0.532 OA
ENDBRANCH  10  19
TORSDOF 3
ENDMDL
