MODEL 1
REMARK VINA RESULT:      -7.3      0.000      0.000
REMARK  3 active torsions:
REMARK  status: ('A' for Active; 'I' for Inactive)
REMARK    1  A    between atoms: C5_8  and  N1_2 
REMARK    2  A    between atoms: C10_13  and  C11_14 
REMARK    3  A    between atoms: C12_15  and  C13_16 
ROOT
HETATM    1  N2  UNK     1      32.353  -9.219  28.591  1.00  0.00    -0.191 NA
HETATM    2  C11 UNK     1      31.916  -7.985  31.765  1.00  0.00     0.034 C 
HETATM    3  C12 UNK     1      31.191  -8.163  30.651  1.00  0.00     0.055 C 
HETATM    4  C19 UNK     1      31.834  -8.746  29.514  1.00  0.00     0.100 C 
ENDROOT
BRANCH   3   5
HETATM    5  C13 UNK     1      29.760  -7.814  30.533  1.00  0.00    -0.015 A 
HETATM    6  C15 UNK     1      28.812  -8.818  30.629  1.00  0.00     0.016 A 
HETATM    7  C17 UNK     1      27.461  -8.489  30.518  1.00  0.00     0.043 A 
HETATM    8  C18 UNK     1      27.080  -7.163  30.312  1.00  0.00     0.116 A 
HETATM    9  C16 UNK     1      28.050  -6.165  30.218  1.00  0.00     0.043 A 
HETATM   10  F1  UNK     1      25.782  -6.847  30.207  1.00  0.00    -0.206 F 
HETATM   11  C14 UNK     1      29.402  -6.494  30.329  1.00  0.00     0.016 A 
ENDBRANCH   3   5
BRANCH   2  12
HETATM   12  C10 UNK     1      31.479  -7.399  33.023  1.00  0.00    -0.035 A 
HETATM   13  C8  UNK     1      31.756  -6.061  33.303  1.00  0.00     0.013 A 
HETATM   14  C6  UNK     1      31.338  -5.499  34.508  1.00  0.00     0.030 A 
HETATM   15  C5  UNK     1      30.627  -6.253  35.484  1.00  0.00     0.030 A 
HETATM   16  C7  UNK     1      30.367  -7.614  35.156  1.00  0.00     0.030 A 
HETATM   17  C9  UNK     1      30.784  -8.176  33.950  1.00  0.00     0.013 A 
BRANCH  15  18
HETATM   18  N1  UNK     1      30.212  -5.699  36.676  1.00  0.00    -0.381 N 
HETATM   19  C3  UNK     1      29.123  -6.229  37.492  1.00  0.00     0.123 C 
HETATM   20  C1  UNK     1      29.256  -5.475  38.813  1.00  0.00     0.021 C 
HETATM   21  C2  UNK     1      29.828  -4.133  38.387  1.00  0.00     0.021 C 
HETATM   22  C4  UNK     1      30.808  -4.509  37.279  1.00  0.00     0.123 C 
ENDBRANCH  15  18
ENDBRANCH   2  12
TORSDOF 3
ENDMDL
MODEL 2
REMARK VINA RESULT:      -7.3      0.060      1.693
REMARK  3 active torsions:
REMARK  status: ('A' for Active; 'I' for Inactive)
REMARK    1  A    between atoms: C5_8  and  N1_2 
REMARK    2  A    between atoms: C10_13  and  C11_14 
REMARK    3  A    between atoms: C12_15  and  C13_16 
ROOT
HETATM    1  N2  UNK     1      32.418  -9.199  28.652  1.00  0.00    -0.191 NA
HETATM    2  C11 UNK     1      31.951  -7.969  31.824  1.00  0.00     0.034 C 
HETATM    3  C12 UNK     1      31.236  -8.147  30.704  1.00  0.00     0.055 C 
HETATM    4  C19 UNK     1      31.890  -8.728  29.572  1.00  0.00     0.100 C 
ENDROOT
BRANCH   3   5
HETATM    5  C13 UNK     1      29.806  -7.798  30.573  1.00  0.00    -0.015 A 
HETATM    6  C15 UNK     1      29.451  -6.476  30.368  1.00  0.00     0.016 A 
HETATM    7  C17 UNK     1      28.101  -6.147  30.245  1.00  0.00     0.043 A 
HETATM    8  C18 UNK     1      27.129  -7.144  30.328  1.00  0.00     0.116 A 
HETATM    9  C16 UNK     1      27.506  -8.471  30.534  1.00  0.00     0.043 A 
HETATM   10  F1  UNK     1      25.833  -6.827  30.208  1.00  0.00    -0.206 F 
HETATM   11  C14 UNK     1      28.857  -8.800  30.659  1.00  0.00     0.016 A 
ENDBRANCH   3   5
BRANCH   2  12
HETATM   12  C10 UNK     1      31.503  -7.384  33.079  1.00  0.00    -0.035 A 
HETATM   13  C8  UNK     1      30.806  -8.165  34.002  1.00  0.00     0.013 A 
HETATM   14  C6  UNK     1      30.376  -7.605  35.204  1.00  0.00     0.030 A 
HETATM   15  C5  UNK     1      30.626  -6.242  35.532  1.00  0.00     0.030 A 
HETATM   16  C7  UNK     1      31.340  -5.485  34.562  1.00  0.00     0.030 A 
HETATM   17  C9  UNK     1      31.771  -6.045  33.359  1.00  0.00     0.013 A 
BRANCH  15  18
HETATM   18  N1  UNK     1      30.202  -5.689  36.722  1.00  0.00    -0.381 N 
HETATM   19  C3  UNK     1      30.793  -4.498  37.328  1.00  0.00     0.123 C 
HETATM   20  C1  UNK     1      29.806  -4.122  38.431  1.00  0.00     0.021 C 
HETATM   21  C2  UNK     1      29.234  -5.465  38.853  1.00  0.00     0.021 C 
HETATM   22  C4  UNK     1      29.108  -6.220  37.531  1.00  0.00     0.123 C 
ENDBRANCH  15  18
ENDBRANCH   2  12
TORSDOF 3
ENDMDL
MODEL 3
REMARK VINA RESULT:      -7.2      0.047      1.343
REMARK  3 active torsions:
REMARK  status: ('A' for Active; 'I' for Inactive)
REMARK    1  A    between atoms: C5_8  and  N1_2 
REMARK    2  A    between atoms: C10_13  and  C11_14 
REMARK    3  A    between atoms: C12_15  and  C13_16 
ROOT
HETATM    1  N2  UNK     1      32.405  -9.226  28.644  1.00  0.00    -0.191 NA
HETATM    2  C11 UNK     1      31.934  -7.987  31.812  1.00  0.00     0.034 C 
HETATM    3  C12 UNK     1      31.220  -8.167  30.691  1.00  0.00     0.055 C 
HETATM    4  C19 UNK     1      31.876  -8.752  29.561  1.00  0.00     0.100 C 
ENDROOT
BRANCH   3   5
HETATM    5  C13 UNK     1      29.791  -7.819  30.557  1.00  0.00    -0.015 A 
HETATM    6  C15 UNK     1      29.437  -6.497  30.347  1.00  0.00     0.016 A 
HETATM    7  C17 UNK     1      28.088  -6.167  30.220  1.00  0.00     0.043 A 
HETATM    8  C18 UNK     1      27.115  -7.163  30.305  1.00  0.00     0.116 A 
HETATM    9  C16 UNK     1      27.491  -8.490  30.518  1.00  0.00     0.043 A 
HETATM   10  F1  UNK     1      25.819  -6.846  30.182  1.00  0.00    -0.206 F 
HETATM   11  C14 UNK     1      28.841  -8.819  30.645  1.00  0.00     0.016 A 
ENDBRANCH   3   5
BRANCH   2  12
HETATM   12  C10 UNK     1      31.484  -7.399  33.064  1.00  0.00    -0.035 A 
HETATM   13  C8  UNK     1      31.768  -6.064  33.350  1.00  0.00     0.013 A 
HETATM   14  C6  UNK     1      31.338  -5.501  34.550  1.00  0.00     0.030 A 
HETATM   15  C5  UNK     1      30.605  -6.250  35.514  1.00  0.00     0.030 A 
HETATM   16  C7  UNK     1      30.337  -7.607  35.180  1.00  0.00     0.030 A 
HETATM   17  C9  UNK     1      30.768  -8.171  33.979  1.00  0.00     0.013 A 
BRANCH  15  18
HETATM   18  N1  UNK     1      30.178  -5.693  36.701  1.00  0.00    -0.381 N 
HETATM   19  C3  UNK     1      30.777  -4.512  37.315  1.00  0.00     0.123 C 
HETATM   20  C1  UNK     1      29.785  -4.126  38.409  1.00  0.00     0.021 C 
HETATM   21  C2  UNK     1      29.192  -5.462  38.823  1.00  0.00     0.021 C 
HETATM   22  C4  UNK     1      29.069  -6.212  37.498  1.00  0.00     0.123 C 
ENDBRANCH  15  18
ENDBRANCH   2  12
TORSDOF 3
ENDMDL
MODEL 4
REMARK VINA RESULT:      -7.2      4.313      7.363
REMARK  3 active torsions:
REMARK  status: ('A' for Active; 'I' for Inactive)
REMARK    1  A    between atoms: C5_8  and  N1_2 
REMARK    2  A    between atoms: C10_13  and  C11_14 
REMARK    3  A    between atoms: C12_15  and  C13_16 
ROOT
HETATM    1  N2  UNK     1      29.329  -3.666  39.929  1.00  0.00    -0.191 NA
HETATM    2  C11 UNK     1      31.851  -4.779  37.882  1.00  0.00     0.034 C 
HETATM    3  C12 UNK     1      30.614  -5.152  38.240  1.00  0.00     0.055 C 
HETATM    4  C19 UNK     1      29.906  -4.331  39.173  1.00  0.00     0.100 C 
ENDROOT
BRANCH   3   5
HETATM    5  C13 UNK     1      29.928  -6.350  37.714  1.00  0.00    -0.015 A 
HETATM    6  C15 UNK     1      30.075  -7.556  38.377  1.00  0.00     0.016 A 
HETATM    7  C17 UNK     1      29.428  -8.688  37.881  1.00  0.00     0.043 A 
HETATM    8  C18 UNK     1      28.644  -8.596  36.731  1.00  0.00     0.116 A 
HETATM    9  C16 UNK     1      28.508  -7.371  36.075  1.00  0.00     0.043 A 
HETATM   10  F1  UNK     1      28.022  -9.682  36.256  1.00  0.00    -0.206 F 
HETATM   11  C14 UNK     1      29.157  -6.240  36.572  1.00  0.00     0.016 A 
ENDBRANCH   3   5
BRANCH   2  12
HETATM   12  C10 UNK     1      32.756  -5.465  36.971  1.00  0.00    -0.035 A 
HETATM   13  C8  UNK     1      33.645  -6.422  37.460  1.00  0.00     0.013 A 
HETATM   14  C6  UNK     1      34.512  -7.078  36.588  1.00  0.00     0.030 A 
HETATM   15  C5  UNK     1      34.524  -6.805  35.191  1.00  0.00     0.030 A 
HETATM   16  C7  UNK     1      33.600  -5.823  34.737  1.00  0.00     0.030 A 
HETATM   17  C9  UNK     1      32.732  -5.166  35.609  1.00  0.00     0.013 A 
BRANCH  15  18
HETATM   18  N1  UNK     1      35.380  -7.455  34.328  1.00  0.00    -0.381 N 
HETATM   19  C3  UNK     1      34.955  -8.128  33.104  1.00  0.00     0.123 C 
HETATM   20  C1  UNK     1      36.263  -8.410  32.368  1.00  0.00     0.021 C 
HETATM   21  C2  UNK     1      37.259  -8.600  33.499  1.00  0.00     0.021 C 
HETATM   22  C4  UNK     1      36.824  -7.556  34.524  1.00  0.00     0.123 C 
ENDBRANCH  15  18
ENDBRANCH   2  12
TORSDOF 3
ENDMDL
MODEL 5
REMARK VINA RESULT:      -6.8      3.118      7.681
REMARK  3 active torsions:
REMARK  status: ('A' for Active; 'I' for Inactive)
REMARK    1  A    between atoms: C5_8  and  N1_2 
REMARK    2  A    between atoms: C10_13  and  C11_14 
REMARK    3  A    between atoms: C12_15  and  C13_16 
ROOT
HETATM    1  N2  UNK     1      29.523  -3.950  39.819  1.00  0.00    -0.191 NA
HETATM    2  C11 UNK     1      29.737  -5.470  36.748  1.00  0.00     0.034 C 
HETATM    3  C12 UNK     1      29.339  -5.777  37.991  1.00  0.00     0.055 C 
HETATM    4  C19 UNK     1      29.441  -4.768  38.999  1.00  0.00     0.100 C 
ENDROOT
BRANCH   3   5
HETATM    5  C13 UNK     1      28.782  -7.089  38.379  1.00  0.00    -0.015 A 
HETATM    6  C15 UNK     1      27.474  -7.159  38.825  1.00  0.00     0.016 A 
HETATM    7  C17 UNK     1      26.947  -8.398  39.192  1.00  0.00     0.043 A 
HETATM    8  C18 UNK     1      27.737  -9.545  39.107  1.00  0.00     0.116 A 
HETATM    9  C16 UNK     1      29.053  -9.454  38.654  1.00  0.00     0.043 A 
HETATM   10  F1  UNK     1      27.229 -10.734  39.457  1.00  0.00    -0.206 F 
HETATM   11  C14 UNK     1      29.580  -8.215  38.288  1.00  0.00     0.016 A 
ENDBRANCH   3   5
BRANCH   2  12
HETATM   12  C10 UNK     1      29.742  -6.336  35.579  1.00  0.00    -0.035 A 
HETATM   13  C8  UNK     1      28.546  -6.633  34.925  1.00  0.00     0.013 A 
HETATM   14  C6  UNK     1      28.550  -7.463  33.806  1.00  0.00     0.030 A 
HETATM   15  C5  UNK     1      29.751  -8.031  33.294  1.00  0.00     0.030 A 
HETATM   16  C7  UNK     1      30.946  -7.701  33.991  1.00  0.00     0.030 A 
HETATM   17  C9  UNK     1      30.942  -6.870  35.112  1.00  0.00     0.013 A 
BRANCH  15  18
HETATM   18  N1  UNK     1      29.756  -8.851  32.185  1.00  0.00    -0.381 N 
HETATM   19  C3  UNK     1      28.679  -8.906  31.201  1.00  0.00     0.123 C 
HETATM   20  C1  UNK     1      29.279  -9.705  30.047  1.00  0.00     0.021 C 
HETATM   21  C2  UNK     1      30.247 -10.644  30.746  1.00  0.00     0.021 C 
HETATM   22  C4  UNK     1      30.839  -9.772  31.852  1.00  0.00     0.123 C 
ENDBRANCH  15  18
ENDBRANCH   2  12
TORSDOF 3
ENDMDL
MODEL 6
REMARK VINA RESULT:      -6.8      3.769      7.749
REMARK  3 active torsions:
REMARK  status: ('A' for Active; 'I' for Inactive)
REMARK    1  A    between atoms: C5_8  and  N1_2 
REMARK    2  A    between atoms: C10_13  and  C11_14 
REMARK    3  A    between atoms: C12_15  and  C13_16 
ROOT
HETATM    1  N2  UNK     1      29.510  -3.661  39.821  1.00  0.00    -0.191 NA
HETATM    2  C11 UNK     1      31.102  -4.507  36.899  1.00  0.00     0.034 C 
HETATM    3  C12 UNK     1      30.604  -5.121  37.982  1.00  0.00     0.055 C 
HETATM    4  C19 UNK     1      30.000  -4.314  38.997  1.00  0.00     0.100 C 
ENDROOT
BRANCH   3   5
HETATM    5  C13 UNK     1      30.621  -6.585  38.182  1.00  0.00    -0.015 A 
HETATM    6  C15 UNK     1      29.421  -7.271  38.237  1.00  0.00     0.016 A 
HETATM    7  C17 UNK     1      29.437  -8.653  38.426  1.00  0.00     0.043 A 
HETATM    8  C18 UNK     1      30.652  -9.326  38.557  1.00  0.00     0.116 A 
HETATM    9  C16 UNK     1      31.852  -8.617  38.498  1.00  0.00     0.043 A 
HETATM   10  F1  UNK     1      30.666 -10.654  38.736  1.00  0.00    -0.206 F 
HETATM   11  C14 UNK     1      31.835  -7.234  38.310  1.00  0.00     0.016 A 
ENDBRANCH   3   5
BRANCH   2  12
HETATM   12  C10 UNK     1      31.772  -5.119  35.761  1.00  0.00    -0.035 A 
HETATM   13  C8  UNK     1      31.034  -5.842  34.824  1.00  0.00     0.013 A 
HETATM   14  C6  UNK     1      31.675  -6.430  33.735  1.00  0.00     0.030 A 
HETATM   15  C5  UNK     1      33.080  -6.317  33.538  1.00  0.00     0.030 A 
HETATM   16  C7  UNK     1      33.792  -5.571  34.518  1.00  0.00     0.030 A 
HETATM   17  C9  UNK     1      33.151  -4.983  35.608  1.00  0.00     0.013 A 
BRANCH  15  18
HETATM   18  N1  UNK     1      33.715  -6.897  32.459  1.00  0.00    -0.381 N 
HETATM   19  C3  UNK     1      33.020  -7.462  31.306  1.00  0.00     0.123 C 
HETATM   20  C1  UNK     1      34.132  -7.687  30.284  1.00  0.00     0.021 C 
HETATM   21  C2  UNK     1      35.345  -7.976  31.153  1.00  0.00     0.021 C 
HETATM   22  C4  UNK     1      35.165  -7.020  32.330  1.00  0.00     0.123 C 
ENDBRANCH  15  18
ENDBRANCH   2  12
TORSDOF 3
ENDMDL
MODEL 7
REMARK VINA RESULT:      -6.8      1.419      2.246
REMARK  3 active torsions:
REMARK  status: ('A' for Active; 'I' for Inactive)
REMARK    1  A    between atoms: C5_8  and  N1_2 
REMARK    2  A    between atoms: C10_13  and  C11_14 
REMARK    3  A    between atoms: C12_15  and  C13_16 
ROOT
HETATM    1  N2  UNK     1      32.437  -9.568  29.032  1.00  0.00    -0.191 NA
HETATM    2  C11 UNK     1      31.449  -9.162  32.295  1.00  0.00     0.034 C 
HETATM    3  C12 UNK     1      30.988  -8.883  31.067  1.00  0.00     0.055 C 
HETATM    4  C19 UNK     1      31.789  -9.262  29.944  1.00  0.00     0.100 C 
ENDROOT
BRANCH   3   5
HETATM    5  C13 UNK     1      29.691  -8.227  30.802  1.00  0.00    -0.015 A 
HETATM    6  C15 UNK     1      29.646  -6.848  30.685  1.00  0.00     0.016 A 
HETATM    7  C17 UNK     1      28.422  -6.228  30.434  1.00  0.00     0.043 A 
HETATM    8  C18 UNK     1      27.264  -6.995  30.304  1.00  0.00     0.116 A 
HETATM    9  C16 UNK     1      27.330  -8.383  30.425  1.00  0.00     0.043 A 
HETATM   10  F1  UNK     1      26.090  -6.398  30.062  1.00  0.00    -0.206 F 
HETATM   11  C14 UNK     1      28.554  -9.003  30.677  1.00  0.00     0.016 A 
ENDBRANCH   3   5
BRANCH   2  12
HETATM   12  C10 UNK     1      30.818  -8.856  33.570  1.00  0.00    -0.035 A 
HETATM   13  C8  UNK     1      31.045  -7.623  34.181  1.00  0.00     0.013 A 
HETATM   14  C6  UNK     1      30.441  -7.329  35.403  1.00  0.00     0.030 A 
HETATM   15  C5  UNK     1      29.586  -8.256  36.063  1.00  0.00     0.030 A 
HETATM   16  C7  UNK     1      29.383  -9.500  35.403  1.00  0.00     0.030 A 
HETATM   17  C9  UNK     1      29.987  -9.795  34.180  1.00  0.00     0.013 A 
BRANCH  15  18
HETATM   18  N1  UNK     1      28.988  -7.966  37.271  1.00  0.00    -0.381 N 
HETATM   19  C3  UNK     1      29.496  -6.982  38.222  1.00  0.00     0.123 C 
HETATM   20  C1  UNK     1      28.352  -6.812  39.220  1.00  0.00     0.021 C 
HETATM   21  C2  UNK     1      27.692  -8.181  39.222  1.00  0.00     0.021 C 
HETATM   22  C4  UNK     1      27.767  -8.604  37.756  1.00  0.00     0.123 C 
ENDBRANCH  15  18
ENDBRANCH   2  12
TORSDOF 3
ENDMDL
MODEL 8
REMARK VINA RESULT:      -6.8      3.650      7.729
REMARK  3 active torsions:
REMARK  status: ('A' for Active; 'I' for Inactive)
REMARK    1  A    between atoms: C5_8  and  N1_2 
REMARK    2  A    between atoms: C10_13  and  C11_14 
REMARK    3  A    between atoms: C12_15  and  C13_16 
ROOT
HETATM    1  N2  UNK     1      27.519  -9.979  40.211  1.00  0.00    -0.191 NA
HETATM    2  C11 UNK     1      27.926  -9.377  36.855  1.00  0.00     0.034 C 
HETATM    3  C12 UNK     1      28.541  -9.076  38.008  1.00  0.00     0.055 C 
HETATM    4  C19 UNK     1      27.976  -9.575  39.224  1.00  0.00     0.100 C 
ENDROOT
BRANCH   3   5
HETATM    5  C13 UNK     1      29.780  -8.276  38.099  1.00  0.00    -0.015 A 
HETATM    6  C15 UNK     1      29.686  -6.907  38.280  1.00  0.00     0.016 A 
HETATM    7  C17 UNK     1      30.855  -6.151  38.366  1.00  0.00     0.043 A 
HETATM    8  C18 UNK     1      32.099  -6.776  38.269  1.00  0.00     0.116 A 
HETATM    9  C16 UNK     1      32.173  -8.157  38.087  1.00  0.00     0.043 A 
HETATM   10  F1  UNK     1      33.221  -6.050  38.353  1.00  0.00    -0.206 F 
HETATM   11  C14 UNK     1      31.003  -8.913  38.000  1.00  0.00     0.016 A 
ENDBRANCH   3   5
BRANCH   2  12
HETATM   12  C10 UNK     1      28.308  -8.966  35.513  1.00  0.00    -0.035 A 
HETATM   13  C8  UNK     1      28.100  -7.650  35.101  1.00  0.00     0.013 A 
HETATM   14  C6  UNK     1      28.465  -7.256  33.814  1.00  0.00     0.030 A 
HETATM   15  C5  UNK     1      29.054  -8.163  32.888  1.00  0.00     0.030 A 
HETATM   16  C7  UNK     1      29.249  -9.494  33.352  1.00  0.00     0.030 A 
HETATM   17  C9  UNK     1      28.883  -9.888  34.639  1.00  0.00     0.013 A 
BRANCH  15  18
HETATM   18  N1  UNK     1      29.417  -7.773  31.616  1.00  0.00    -0.381 N 
HETATM   19  C3  UNK     1      29.300  -8.623  30.434  1.00  0.00     0.123 C 
HETATM   20  C1  UNK     1      29.529  -7.662  29.269  1.00  0.00     0.021 C 
HETATM   21  C2  UNK     1      30.478  -6.631  29.856  1.00  0.00     0.021 C 
HETATM   22  C4  UNK     1      29.966  -6.461  31.285  1.00  0.00     0.123 C 
ENDBRANCH  15  18
ENDBRANCH   2  12
TORSDOF 3
ENDMDL
MODEL 9
REMARK VINA RESULT:      -6.8      9.709     12.058
REMARK  3 active torsions:
REMARK  status: ('A' for Active; 'I' for Inactive)
REMARK    1  A    between atoms: C5_8  and  N1_2 
REMARK    2  A    between atoms: C10_13  and  C11_14 
REMARK    3  A    between atoms: C12_15  and  C13_16 
ROOT
HETATM    1  N2  UNK     1      18.166   0.857  37.009  1.00  0.00    -0.191 NA
HETATM    2  C11 UNK     1      19.148  -2.429  37.195  1.00  0.00     0.034 C 
HETATM    3  C12 UNK     1      19.020  -1.473  36.263  1.00  0.00     0.055 C 
HETATM    4  C19 UNK     1      18.549  -0.187  36.676  1.00  0.00     0.100 C 
ENDROOT
BRANCH   3   5
HETATM    5  C13 UNK     1      19.357  -1.661  34.837  1.00  0.00    -0.015 A 
HETATM    6  C15 UNK     1      18.530  -1.114  33.872  1.00  0.00     0.016 A 
HETATM    7  C17 UNK     1      18.847  -1.292  32.525  1.00  0.00     0.043 A 
HETATM    8  C18 UNK     1      19.987  -2.012  32.166  1.00  0.00     0.116 A 
HETATM    9  C16 UNK     1      20.809  -2.556  33.153  1.00  0.00     0.043 A 
HETATM   10  F1  UNK     1      20.292  -2.180  30.872  1.00  0.00    -0.206 F 
HETATM   11  C14 UNK     1      20.490  -2.379  34.500  1.00  0.00     0.016 A 
ENDBRANCH   3   5
BRANCH   2  12
HETATM   12  C10 UNK     1      19.587  -3.803  37.003  1.00  0.00    -0.035 A 
HETATM   13  C8  UNK     1      20.822  -4.216  37.501  1.00  0.00     0.013 A 
HETATM   14  C6  UNK     1      21.243  -5.532  37.316  1.00  0.00     0.030 A 
HETATM   15  C5  UNK     1      20.446  -6.488  36.627  1.00  0.00     0.030 A 
HETATM   16  C7  UNK     1      19.193  -6.022  36.137  1.00  0.00     0.030 A 
HETATM   17  C9  UNK     1      18.772  -4.706  36.321  1.00  0.00     0.013 A 
BRANCH  15  18
HETATM   18  N1  UNK     1      20.861  -7.790  36.445  1.00  0.00    -0.381 N 
HETATM   19  C3  UNK     1      21.162  -8.714  37.535  1.00  0.00     0.123 C 
HETATM   20  C1  UNK     1      21.271 -10.072  36.844  1.00  0.00     0.021 C 
HETATM   21  C2  UNK     1      21.791  -9.713  35.462  1.00  0.00     0.021 C 
HETATM   22  C4  UNK     1      21.053  -8.416  35.139  1.00  0.00     0.123 C 
ENDBRANCH  15  18
ENDBRANCH   2  12
TORSDOF 3
ENDMDL
MODEL 10
REMARK VINA RESULT:      -6.8      3.640      7.901
REMARK  3 active torsions:
REMARK  status: ('A' for Active; 'I' for Inactive)
REMARK    1  A    between atoms: C5_8  and  N1_2 
REMARK    2  A    between atoms: C10_13  and  C11_14 
REMARK    3  A    between atoms: C12_15  and  C13_16 
ROOT
HETATM    1  N2  UNK     1      29.525  -3.653  39.830  1.00  0.00    -0.191 NA
HETATM    2  C11 UNK     1      29.255  -6.065  37.401  1.00  0.00     0.034 C 
HETATM    3  C12 UNK     1      30.205  -5.284  37.936  1.00  0.00     0.055 C 
HETATM    4  C19 UNK     1      29.828  -4.384  38.981  1.00  0.00     0.100 C 
ENDROOT
BRANCH   3   5
HETATM    5  C13 UNK     1      31.624  -5.312  37.524  1.00  0.00    -0.015 A 
HETATM    6  C15 UNK     1      32.026  -4.550  36.441  1.00  0.00     0.016 A 
HETATM    7  C17 UNK     1      33.366  -4.576  36.053  1.00  0.00     0.043 A 
HETATM    8  C18 UNK     1      34.281  -5.362  36.753  1.00  0.00     0.116 A 
HETATM    9  C16 UNK     1      33.856  -6.123  37.843  1.00  0.00     0.043 A 
HETATM   10  F1  UNK     1      35.567  -5.384  36.380  1.00  0.00    -0.206 F 
HETATM   11  C14 UNK     1      32.516  -6.098  38.230  1.00  0.00     0.016 A 
ENDBRANCH   3   5
BRANCH   2  12
HETATM   12  C10 UNK     1      29.404  -7.033  36.324  1.00  0.00    -0.035 A 
HETATM   13  C8  UNK     1      29.767  -8.348  36.614  1.00  0.00     0.013 A 
HETATM   14  C6  UNK     1      29.910  -9.275  35.583  1.00  0.00     0.030 A 
HETATM   15  C5  UNK     1      29.696  -8.924  34.220  1.00  0.00     0.030 A 
HETATM   16  C7  UNK     1      29.327  -7.572  33.972  1.00  0.00     0.030 A 
HETATM   17  C9  UNK     1      29.183  -6.645  35.003  1.00  0.00     0.013 A 
BRANCH  15  18
HETATM   18  N1  UNK     1      29.836  -9.841  33.199  1.00  0.00    -0.381 N 
HETATM   19  C3  UNK     1      29.294  -9.660  31.855  1.00  0.00     0.123 C 
HETATM   20  C1  UNK     1      29.962 -10.766  31.041  1.00  0.00     0.021 C 
HETATM   21  C2  UNK     1      30.161 -11.873  32.062  1.00  0.00     0.021 C 
HETATM   22  C4  UNK     1      30.544 -11.111  33.329  1.00  0.00     0.123 C 
ENDBRANCH  15  18
ENDBRANCH   2  12
TORSDOF 3
ENDMDL
