MODEL 1
REMARK VINA RESULT:     -10.4      0.000      0.000
REMARK  3 active torsions:
REMARK  status: ('A' for Active; 'I' for Inactive)
REMARK    1  A    between atoms: C1_7  and  N1_4 
REMARK    2  A    between atoms: C11_17  and  C2_8 
REMARK    3  A    between atoms: C12_18  and  C4_10 
ROOT
HETATM    1  O2  UNK     1      18.980   4.886  30.489  1.00  0.00    -0.190 OA
HETATM    2  N2  UNK     1      17.519   4.661  32.172  1.00  0.00    -0.199 NA
HETATM    3  N3  UNK     1      18.449   6.163  30.719  1.00  0.00    -0.105 NA
HETATM    4  C11 UNK     1      17.597   5.948  31.725  1.00  0.00     0.189 A 
HETATM    5  C12 UNK     1      18.380   4.053  31.387  1.00  0.00     0.212 A 
ENDROOT
BRANCH   4   6
HETATM    6  C2  UNK     1      16.808   6.996  32.306  1.00  0.00     0.014 A 
HETATM    7  C10 UNK     1      17.432   8.093  32.901  1.00  0.00     0.017 A 
HETATM    8  C8  UNK     1      16.666   9.112  33.466  1.00  0.00     0.031 A 
HETATM    9  C1  UNK     1      15.272   9.035  33.437  1.00  0.00     0.038 A 
HETATM   10  C7  UNK     1      14.647   7.939  32.842  1.00  0.00     0.031 A 
HETATM   11  C9  UNK     1      15.415   6.920  32.277  1.00  0.00     0.017 A 
BRANCH   9  12
HETATM   12  N1  UNK     1      14.512  10.044  33.998  1.00  0.00    -0.333 N 
HETATM   13  C13 UNK     1      14.540  10.428  35.320  1.00  0.00     0.096 A 
HETATM   14  C18 UNK     1      13.646  11.463  35.487  1.00  0.00     0.019 A 
HETATM   15  C19 UNK     1      13.054  11.718  34.226  1.00  0.00     0.019 A 
HETATM   16  C14 UNK     1      13.604  10.831  33.326  1.00  0.00     0.096 A 
ENDBRANCH   9  12
ENDBRANCH   4   6
BRANCH   5  17
HETATM   17  C4  UNK     1      18.693   2.658  31.431  1.00  0.00     0.096 A 
HETATM   18  C15 UNK     1      18.396   1.876  32.663  1.00  0.00     0.303 A 
HETATM   19  O1  UNK     1      18.711   0.519  32.632  1.00  0.00    -0.274 OA
HETATM   20  O3  UNK     1      17.904   2.390  33.661  1.00  0.00    -0.259 OA
HETATM   21  C5  UNK     1      19.293  -0.089  31.504  1.00  0.00     0.089 A 
HETATM   22  C17 UNK     1      19.576  -1.452  31.576  1.00  0.00     0.038 A 
HETATM   23  C3  UNK     1      19.571   0.658  30.365  1.00  0.00    -0.001 A 
HETATM   24  C21 UNK     1      20.154  -2.080  30.476  1.00  0.00     0.003 A 
HETATM   25  C20 UNK     1      20.440  -1.347  29.323  1.00  0.00     0.001 A 
HETATM   26  C16 UNK     1      20.149   0.020  29.265  1.00  0.00     0.014 A 
HETATM   27  C6  UNK     1      19.246   2.075  30.357  1.00  0.00     0.036 A 
ENDBRANCH   5  17
TORSDOF 3
ENDMDL
MODEL 2
REMARK VINA RESULT:     -10.2      8.456     15.190
REMARK  3 active torsions:
REMARK  status: ('A' for Active; 'I' for Inactive)
REMARK    1  A    between atoms: C1_7  and  N1_4 
REMARK    2  A    between atoms: C11_17  and  C2_8 
REMARK    3  A    between atoms: C12_18  and  C4_10 
ROOT
HETATM    1  O2  UNK     1      18.287  -5.054  36.805  1.00  0.00    -0.190 OA
HETATM    2  N2  UNK     1      20.439  -4.960  36.190  1.00  0.00    -0.199 NA
HETATM    3  N3  UNK     1      18.767  -6.369  36.864  1.00  0.00    -0.105 NA
HETATM    4  C11 UNK     1      20.042  -6.231  36.488  1.00  0.00     0.189 A 
HETATM    5  C12 UNK     1      19.333  -4.279  36.398  1.00  0.00     0.212 A 
ENDROOT
BRANCH   4   6
HETATM    6  C2  UNK     1      20.946  -7.342  36.399  1.00  0.00     0.014 A 
HETATM    7  C10 UNK     1      21.913  -7.537  37.386  1.00  0.00     0.017 A 
HETATM    8  C8  UNK     1      22.791  -8.616  37.300  1.00  0.00     0.031 A 
HETATM    9  C1  UNK     1      22.704  -9.504  36.226  1.00  0.00     0.038 A 
HETATM   10  C7  UNK     1      21.737  -9.310  35.240  1.00  0.00     0.031 A 
HETATM   11  C9  UNK     1      20.858  -8.230  35.326  1.00  0.00     0.017 A 
BRANCH   9  12
HETATM   12  N1  UNK     1      23.575 -10.574  36.140  1.00  0.00    -0.333 N 
HETATM   13  C13 UNK     1      23.255 -11.832  35.681  1.00  0.00     0.096 A 
HETATM   14  C18 UNK     1      24.387 -12.615  35.747  1.00  0.00     0.019 A 
HETATM   15  C19 UNK     1      25.431 -11.807  36.261  1.00  0.00     0.019 A 
HETATM   16  C14 UNK     1      24.905 -10.555  36.495  1.00  0.00     0.096 A 
ENDBRANCH   9  12
ENDBRANCH   4   6
BRANCH   5  17
HETATM   17  C4  UNK     1      19.192  -2.866  36.230  1.00  0.00     0.096 A 
HETATM   18  C15 UNK     1      19.875  -2.188  35.094  1.00  0.00     0.303 A 
HETATM   19  O1  UNK     1      19.682  -0.813  34.980  1.00  0.00    -0.274 OA
HETATM   20  O3  UNK     1      20.579  -2.797  34.296  1.00  0.00    -0.259 OA
HETATM   21  C5  UNK     1      18.893  -0.089  35.895  1.00  0.00     0.089 A 
HETATM   22  C17 UNK     1      18.768   1.284  35.697  1.00  0.00     0.038 A 
HETATM   23  C3  UNK     1      18.268  -0.738  36.954  1.00  0.00    -0.001 A 
HETATM   24  C21 UNK     1      17.995   2.027  36.587  1.00  0.00     0.003 A 
HETATM   25  C20 UNK     1      17.360   1.394  37.657  1.00  0.00     0.001 A 
HETATM   26  C16 UNK     1      17.494   0.014  37.842  1.00  0.00     0.014 A 
HETATM   27  C6  UNK     1      18.440  -2.174  37.099  1.00  0.00     0.036 A 
ENDBRANCH   5  17
TORSDOF 3
ENDMDL
MODEL 3
REMARK VINA RESULT:      -9.9      7.479     11.301
REMARK  3 active torsions:
REMARK  status: ('A' for Active; 'I' for Inactive)
REMARK    1  A    between atoms: C1_7  and  N1_4 
REMARK    2  A    between atoms: C11_17  and  C2_8 
REMARK    3  A    between atoms: C12_18  and  C4_10 
ROOT
HETATM    1  O2  UNK     1      20.351  -3.156  37.541  1.00  0.00    -0.190 OA
HETATM    2  N2  UNK     1      20.299  -4.192  35.556  1.00  0.00    -0.199 NA
HETATM    3  N3  UNK     1      20.164  -2.152  36.581  1.00  0.00    -0.105 NA
HETATM    4  C11 UNK     1      20.143  -2.842  35.437  1.00  0.00     0.189 A 
HETATM    5  C12 UNK     1      20.422  -4.334  36.858  1.00  0.00     0.212 A 
ENDROOT
BRANCH   4   6
HETATM    6  C2  UNK     1      19.970  -2.214  34.159  1.00  0.00     0.014 A 
HETATM    7  C10 UNK     1      20.779  -2.582  33.083  1.00  0.00     0.017 A 
HETATM    8  C8  UNK     1      20.610  -1.972  31.841  1.00  0.00     0.031 A 
HETATM    9  C1  UNK     1      19.632  -0.991  31.672  1.00  0.00     0.038 A 
HETATM   10  C7  UNK     1      18.822  -0.622  32.747  1.00  0.00     0.031 A 
HETATM   11  C9  UNK     1      18.992  -1.234  33.990  1.00  0.00     0.017 A 
BRANCH   9  12
HETATM   12  N1  UNK     1      19.465  -0.384  30.441  1.00  0.00    -0.333 N 
HETATM   13  C13 UNK     1      18.973   0.885  30.234  1.00  0.00     0.096 A 
HETATM   14  C18 UNK     1      18.962   1.126  28.877  1.00  0.00     0.019 A 
HETATM   15  C19 UNK     1      19.463  -0.034  28.237  1.00  0.00     0.019 A 
HETATM   16  C14 UNK     1      19.765  -0.949  29.222  1.00  0.00     0.096 A 
ENDBRANCH   9  12
ENDBRANCH   4   6
BRANCH   5  17
HETATM   17  C4  UNK     1      20.612  -5.578  37.536  1.00  0.00     0.096 A 
HETATM   18  C15 UNK     1      21.874  -5.822  38.288  1.00  0.00     0.303 A 
HETATM   19  O1  UNK     1      21.986  -7.048  38.939  1.00  0.00    -0.274 OA
HETATM   20  O3  UNK     1      22.778  -4.995  38.333  1.00  0.00    -0.259 OA
HETATM   21  C5  UNK     1      20.969  -8.020  38.886  1.00  0.00     0.089 A 
HETATM   22  C17 UNK     1      21.181  -9.218  39.566  1.00  0.00     0.038 A 
HETATM   23  C3  UNK     1      19.800  -7.779  38.173  1.00  0.00    -0.001 A 
HETATM   24  C21 UNK     1      20.193 -10.199  39.530  1.00  0.00     0.003 A 
HETATM   25  C20 UNK     1      19.012  -9.975  38.820  1.00  0.00     0.001 A 
HETATM   26  C16 UNK     1      18.813  -8.767  38.143  1.00  0.00     0.014 A 
HETATM   27  C6  UNK     1      19.644  -6.505  37.489  1.00  0.00     0.036 A 
ENDBRANCH   5  17
TORSDOF 3
ENDMDL
MODEL 4
REMARK VINA RESULT:      -9.8      3.069     10.250
REMARK  3 active torsions:
REMARK  status: ('A' for Active; 'I' for Inactive)
REMARK    1  A    between atoms: C1_7  and  N1_4 
REMARK    2  A    between atoms: C11_17  and  C2_8 
REMARK    3  A    between atoms: C12_18  and  C4_10 
ROOT
HETATM    1  O2  UNK     1      19.188   8.721  34.416  1.00  0.00    -0.190 OA
HETATM    2  N2  UNK     1      17.592   8.034  33.004  1.00  0.00    -0.199 NA
HETATM    3  N3  UNK     1      19.638   7.508  33.880  1.00  0.00    -0.105 NA
HETATM    4  C11 UNK     1      18.643   7.166  33.056  1.00  0.00     0.189 A 
HETATM    5  C12 UNK     1      17.971   8.965  33.850  1.00  0.00     0.212 A 
ENDROOT
BRANCH   4   6
HETATM    6  C2  UNK     1      18.667   5.965  32.272  1.00  0.00     0.014 A 
HETATM    7  C10 UNK     1      18.155   4.777  32.796  1.00  0.00     0.017 A 
HETATM    8  C8  UNK     1      18.179   3.609  32.034  1.00  0.00     0.031 A 
HETATM    9  C1  UNK     1      18.716   3.627  30.746  1.00  0.00     0.038 A 
HETATM   10  C7  UNK     1      19.227   4.814  30.221  1.00  0.00     0.031 A 
HETATM   11  C9  UNK     1      19.203   5.982  30.984  1.00  0.00     0.017 A 
BRANCH   9  12
HETATM   12  N1  UNK     1      18.740   2.470  29.990  1.00  0.00    -0.333 N 
HETATM   13  C13 UNK     1      18.040   2.260  28.824  1.00  0.00     0.096 A 
HETATM   14  C18 UNK     1      18.328   0.990  28.371  1.00  0.00     0.019 A 
HETATM   15  C19 UNK     1      19.234   0.409  29.292  1.00  0.00     0.019 A 
HETATM   16  C14 UNK     1      19.472   1.339  30.279  1.00  0.00     0.096 A 
ENDBRANCH   9  12
ENDBRANCH   4   6
BRANCH   5  17
HETATM   17  C4  UNK     1      17.219  10.136  34.178  1.00  0.00     0.096 A 
HETATM   18  C15 UNK     1      17.789  11.482  33.891  1.00  0.00     0.303 A 
HETATM   19  O1  UNK     1      16.997  12.579  34.220  1.00  0.00    -0.274 OA
HETATM   20  O3  UNK     1      18.901  11.629  33.396  1.00  0.00    -0.259 OA
HETATM   21  C5  UNK     1      15.725  12.436  34.806  1.00  0.00     0.089 A 
HETATM   22  C17 UNK     1      15.014  13.596  35.104  1.00  0.00     0.038 A 
HETATM   23  C3  UNK     1      15.211  11.172  35.074  1.00  0.00    -0.001 A 
HETATM   24  C21 UNK     1      13.753  13.485  35.686  1.00  0.00     0.003 A 
HETATM   25  C20 UNK     1      13.220  12.225  35.963  1.00  0.00     0.001 A 
HETATM   26  C16 UNK     1      13.945  11.069  35.657  1.00  0.00     0.014 A 
HETATM   27  C6  UNK     1      16.006  10.003  34.735  1.00  0.00     0.036 A 
ENDBRANCH   5  17
TORSDOF 3
ENDMDL
MODEL 5
REMARK VINA RESULT:      -9.7      3.723     10.328
REMARK  3 active torsions:
REMARK  status: ('A' for Active; 'I' for Inactive)
REMARK    1  A    between atoms: C1_7  and  N1_4 
REMARK    2  A    between atoms: C11_17  and  C2_8 
REMARK    3  A    between atoms: C12_18  and  C4_10 
ROOT
HETATM    1  O2  UNK     1      19.466   8.844  34.537  1.00  0.00    -0.190 OA
HETATM    2  N2  UNK     1      17.987   8.384  32.919  1.00  0.00    -0.199 NA
HETATM    3  N3  UNK     1      19.802   7.574  34.051  1.00  0.00    -0.105 NA
HETATM    4  C11 UNK     1      18.885   7.373  33.100  1.00  0.00     0.189 A 
HETATM    5  C12 UNK     1      18.383   9.258  33.818  1.00  0.00     0.212 A 
ENDROOT
BRANCH   4   6
HETATM    6  C2  UNK     1      18.838   6.174  32.313  1.00  0.00     0.014 A 
HETATM    7  C10 UNK     1      19.434   6.141  31.052  1.00  0.00     0.017 A 
HETATM    8  C8  UNK     1      19.389   4.976  30.288  1.00  0.00     0.031 A 
HETATM    9  C1  UNK     1      18.746   3.841  30.783  1.00  0.00     0.038 A 
HETATM   10  C7  UNK     1      18.150   3.872  32.044  1.00  0.00     0.031 A 
HETATM   11  C9  UNK     1      18.196   5.039  32.809  1.00  0.00     0.017 A 
BRANCH   9  12
HETATM   12  N1  UNK     1      18.699   2.685  30.025  1.00  0.00    -0.333 N 
HETATM   13  C13 UNK     1      17.932   2.498  28.897  1.00  0.00     0.096 A 
HETATM   14  C18 UNK     1      18.162   1.223  28.427  1.00  0.00     0.019 A 
HETATM   15  C19 UNK     1      19.099   0.614  29.297  1.00  0.00     0.019 A 
HETATM   16  C14 UNK     1      19.415   1.535  30.272  1.00  0.00     0.096 A 
ENDBRANCH   9  12
ENDBRANCH   4   6
BRANCH   5  17
HETATM   17  C4  UNK     1      17.772  10.528  34.057  1.00  0.00     0.096 A 
HETATM   18  C15 UNK     1      16.372  10.590  34.558  1.00  0.00     0.303 A 
HETATM   19  O1  UNK     1      15.845  11.859  34.784  1.00  0.00    -0.274 OA
HETATM   20  O3  UNK     1      15.704   9.581  34.760  1.00  0.00    -0.259 OA
HETATM   21  C5  UNK     1      16.585  13.032  34.542  1.00  0.00     0.089 A 
HETATM   22  C17 UNK     1      15.964  14.254  34.794  1.00  0.00     0.038 A 
HETATM   23  C3  UNK     1      17.889  12.956  34.067  1.00  0.00    -0.001 A 
HETATM   24  C21 UNK     1      16.672  15.431  34.562  1.00  0.00     0.003 A 
HETATM   25  C20 UNK     1      17.983  15.376  34.085  1.00  0.00     0.001 A 
HETATM   26  C16 UNK     1      18.592  14.141  33.837  1.00  0.00     0.014 A 
HETATM   27  C6  UNK     1      18.476  11.648  33.829  1.00  0.00     0.036 A 
ENDBRANCH   5  17
TORSDOF 3
ENDMDL
MODEL 6
REMARK VINA RESULT:      -9.5      7.507     12.871
REMARK  3 active torsions:
REMARK  status: ('A' for Active; 'I' for Inactive)
REMARK    1  A    between atoms: C1_7  and  N1_4 
REMARK    2  A    between atoms: C11_17  and  C2_8 
REMARK    3  A    between atoms: C12_18  and  C4_10 
ROOT
HETATM    1  O2  UNK     1      20.818  -1.803  35.592  1.00  0.00    -0.190 OA
HETATM    2  N2  UNK     1      19.811  -3.571  34.654  1.00  0.00    -0.199 NA
HETATM    3  N3  UNK     1      20.930  -2.851  36.515  1.00  0.00    -0.105 NA
HETATM    4  C11 UNK     1      20.313  -3.858  35.890  1.00  0.00     0.189 A 
HETATM    5  C12 UNK     1      20.144  -2.306  34.518  1.00  0.00     0.212 A 
ENDROOT
BRANCH   4   6
HETATM    6  C2  UNK     1      20.182  -5.163  36.471  1.00  0.00     0.014 A 
HETATM    7  C10 UNK     1      19.822  -6.251  35.674  1.00  0.00     0.017 A 
HETATM    8  C8  UNK     1      19.694  -7.519  36.239  1.00  0.00     0.031 A 
HETATM    9  C1  UNK     1      19.925  -7.702  37.603  1.00  0.00     0.038 A 
HETATM   10  C7  UNK     1      20.286  -6.616  38.401  1.00  0.00     0.031 A 
HETATM   11  C9  UNK     1      20.414  -5.347  37.834  1.00  0.00     0.017 A 
BRANCH   9  12
HETATM   12  N1  UNK     1      19.797  -8.959  38.164  1.00  0.00    -0.333 N 
HETATM   13  C13 UNK     1      19.985  -9.266  39.493  1.00  0.00     0.096 A 
HETATM   14  C18 UNK     1      19.765 -10.616  39.659  1.00  0.00     0.019 A 
HETATM   15  C19 UNK     1      19.432 -11.149  38.389  1.00  0.00     0.019 A 
HETATM   16  C14 UNK     1      19.459 -10.109  37.487  1.00  0.00     0.096 A 
ENDBRANCH   9  12
ENDBRANCH   4   6
BRANCH   5  17
HETATM   17  C4  UNK     1      19.852  -1.496  33.376  1.00  0.00     0.096 A 
HETATM   18  C15 UNK     1      19.094  -0.227  33.548  1.00  0.00     0.303 A 
HETATM   19  O1  UNK     1      18.858   0.521  32.397  1.00  0.00    -0.274 OA
HETATM   20  O3  UNK     1      18.686   0.149  34.642  1.00  0.00    -0.259 OA
HETATM   21  C5  UNK     1      19.300   0.102  31.128  1.00  0.00     0.089 A 
HETATM   22  C17 UNK     1      19.008   0.918  30.037  1.00  0.00     0.038 A 
HETATM   23  C3  UNK     1      20.001  -1.091  30.984  1.00  0.00    -0.001 A 
HETATM   24  C21 UNK     1      19.430   0.528  28.769  1.00  0.00     0.003 A 
HETATM   25  C20 UNK     1      20.136  -0.666  28.604  1.00  0.00     0.001 A 
HETATM   26  C16 UNK     1      20.422  -1.475  29.709  1.00  0.00     0.014 A 
HETATM   27  C6  UNK     1      20.273  -1.892  32.166  1.00  0.00     0.036 A 
ENDBRANCH   5  17
TORSDOF 3
ENDMDL
MODEL 7
REMARK VINA RESULT:      -9.5     14.477     17.445
REMARK  3 active torsions:
REMARK  status: ('A' for Active; 'I' for Inactive)
REMARK    1  A    between atoms: C1_7  and  N1_4 
REMARK    2  A    between atoms: C11_17  and  C2_8 
REMARK    3  A    between atoms: C12_18  and  C4_10 
ROOT
HETATM    1  O2  UNK     1      27.661  -8.738  39.608  1.00  0.00    -0.190 OA
HETATM    2  N2  UNK     1      26.725  -7.214  38.258  1.00  0.00    -0.199 NA
HETATM    3  N3  UNK     1      26.295  -9.048  39.557  1.00  0.00    -0.105 NA
HETATM    4  C11 UNK     1      25.812  -8.105  38.742  1.00  0.00     0.189 A 
HETATM    5  C12 UNK     1      27.837  -7.642  38.815  1.00  0.00     0.212 A 
ENDROOT
BRANCH   4   6
HETATM    6  C2  UNK     1      24.423  -8.025  38.391  1.00  0.00     0.014 A 
HETATM    7  C10 UNK     1      23.922  -8.797  37.341  1.00  0.00     0.017 A 
HETATM    8  C8  UNK     1      22.573  -8.720  37.000  1.00  0.00     0.031 A 
HETATM    9  C1  UNK     1      21.721  -7.870  37.708  1.00  0.00     0.038 A 
HETATM   10  C7  UNK     1      22.221  -7.099  38.757  1.00  0.00     0.031 A 
HETATM   11  C9  UNK     1      23.572  -7.177  39.098  1.00  0.00     0.017 A 
BRANCH   9  12
HETATM   12  N1  UNK     1      20.383  -7.792  37.369  1.00  0.00    -0.333 N 
HETATM   13  C13 UNK     1      19.506  -6.819  37.790  1.00  0.00     0.096 A 
HETATM   14  C18 UNK     1      18.270  -7.084  37.239  1.00  0.00     0.019 A 
HETATM   15  C19 UNK     1      18.400  -8.258  36.456  1.00  0.00     0.019 A 
HETATM   16  C14 UNK     1      19.710  -8.674  36.552  1.00  0.00     0.096 A 
ENDBRANCH   9  12
ENDBRANCH   4   6
BRANCH   5  17
HETATM   17  C4  UNK     1      29.127  -7.052  38.637  1.00  0.00     0.096 A 
HETATM   18  C15 UNK     1      29.325  -5.608  38.943  1.00  0.00     0.303 A 
HETATM   19  O1  UNK     1      30.610  -5.101  38.763  1.00  0.00    -0.274 OA
HETATM   20  O3  UNK     1      28.409  -4.889  39.328  1.00  0.00    -0.259 OA
HETATM   21  C5  UNK     1      31.673  -5.902  38.304  1.00  0.00     0.089 A 
HETATM   22  C17 UNK     1      32.920  -5.299  38.151  1.00  0.00     0.038 A 
HETATM   23  C3  UNK     1      31.469  -7.247  38.016  1.00  0.00    -0.001 A 
HETATM   24  C21 UNK     1      33.990  -6.066  37.697  1.00  0.00     0.003 A 
HETATM   25  C20 UNK     1      33.805  -7.418  37.403  1.00  0.00     0.001 A 
HETATM   26  C16 UNK     1      32.548  -8.010  37.562  1.00  0.00     0.014 A 
HETATM   27  C6  UNK     1      30.143  -7.812  38.202  1.00  0.00     0.036 A 
ENDBRANCH   5  17
TORSDOF 3
ENDMDL
MODEL 8
REMARK VINA RESULT:      -9.5      6.991     10.985
REMARK  3 active torsions:
REMARK  status: ('A' for Active; 'I' for Inactive)
REMARK    1  A    between atoms: C1_7  and  N1_4 
REMARK    2  A    between atoms: C11_17  and  C2_8 
REMARK    3  A    between atoms: C12_18  and  C4_10 
ROOT
HETATM    1  O2  UNK     1      20.901  -4.221  36.716  1.00  0.00    -0.190 OA
HETATM    2  N2  UNK     1      19.996  -4.603  34.704  1.00  0.00    -0.199 NA
HETATM    3  N3  UNK     1      20.811  -2.973  36.086  1.00  0.00    -0.105 NA
HETATM    4  C11 UNK     1      20.267  -3.281  34.905  1.00  0.00     0.189 A 
HETATM    5  C12 UNK     1      20.400  -5.134  35.836  1.00  0.00     0.212 A 
ENDROOT
BRANCH   4   6
HETATM    6  C2  UNK     1      19.983  -2.293  33.904  1.00  0.00     0.014 A 
HETATM    7  C10 UNK     1      19.050  -1.287  34.160  1.00  0.00     0.017 A 
HETATM    8  C8  UNK     1      18.774  -0.326  33.188  1.00  0.00     0.031 A 
HETATM    9  C1  UNK     1      19.431  -0.370  31.957  1.00  0.00     0.038 A 
HETATM   10  C7  UNK     1      20.364  -1.375  31.701  1.00  0.00     0.031 A 
HETATM   11  C9  UNK     1      20.640  -2.336  32.674  1.00  0.00     0.017 A 
BRANCH   9  12
HETATM   12  N1  UNK     1      19.156   0.581  30.992  1.00  0.00    -0.333 N 
HETATM   13  C13 UNK     1      18.723   1.866  31.234  1.00  0.00     0.096 A 
HETATM   14  C18 UNK     1      18.566   2.502  30.022  1.00  0.00     0.019 A 
HETATM   15  C19 UNK     1      18.914   1.575  29.009  1.00  0.00     0.019 A 
HETATM   16  C14 UNK     1      19.274   0.401  29.632  1.00  0.00     0.096 A 
ENDBRANCH   9  12
ENDBRANCH   4   6
BRANCH   5  17
HETATM   17  C4  UNK     1      20.340  -6.525  36.160  1.00  0.00     0.096 A 
HETATM   18  C15 UNK     1      20.687  -7.538  35.126  1.00  0.00     0.303 A 
HETATM   19  O1  UNK     1      20.623  -8.875  35.514  1.00  0.00    -0.274 OA
HETATM   20  O3  UNK     1      21.008  -7.224  33.985  1.00  0.00    -0.259 OA
HETATM   21  C5  UNK     1      20.239  -9.260  36.812  1.00  0.00     0.089 A 
HETATM   22  C17 UNK     1      20.201 -10.623  37.099  1.00  0.00     0.038 A 
HETATM   23  C3  UNK     1      19.911  -8.301  37.764  1.00  0.00    -0.001 A 
HETATM   24  C21 UNK     1      19.823 -11.034  38.375  1.00  0.00     0.003 A 
HETATM   25  C20 UNK     1      19.490 -10.087  39.344  1.00  0.00     0.001 A 
HETATM   26  C16 UNK     1      19.534  -8.722  39.042  1.00  0.00     0.014 A 
HETATM   27  C6  UNK     1      19.976  -6.896  37.397  1.00  0.00     0.036 A 
ENDBRANCH   5  17
TORSDOF 3
ENDMDL
MODEL 9
REMARK VINA RESULT:      -9.4      2.262      9.879
REMARK  3 active torsions:
REMARK  status: ('A' for Active; 'I' for Inactive)
REMARK    1  A    between atoms: C1_7  and  N1_4 
REMARK    2  A    between atoms: C11_17  and  C2_8 
REMARK    3  A    between atoms: C12_18  and  C4_10 
ROOT
HETATM    1  O2  UNK     1      17.569   7.680  31.234  1.00  0.00    -0.190 OA
HETATM    2  N2  UNK     1      17.102   6.033  32.678  1.00  0.00    -0.199 NA
HETATM    3  N3  UNK     1      18.160   6.522  30.710  1.00  0.00    -0.105 NA
HETATM    4  C11 UNK     1      17.840   5.595  31.618  1.00  0.00     0.189 A 
HETATM    5  C12 UNK     1      16.963   7.311  32.398  1.00  0.00     0.212 A 
ENDROOT
BRANCH   4   6
HETATM    6  C2  UNK     1      18.241   4.223  31.495  1.00  0.00     0.014 A 
HETATM    7  C10 UNK     1      18.154   3.369  32.595  1.00  0.00     0.017 A 
HETATM    8  C8  UNK     1      18.544   2.035  32.476  1.00  0.00     0.031 A 
HETATM    9  C1  UNK     1      19.023   1.554  31.257  1.00  0.00     0.038 A 
HETATM   10  C7  UNK     1      19.109   2.407  30.157  1.00  0.00     0.031 A 
HETATM   11  C9  UNK     1      18.719   3.741  30.276  1.00  0.00     0.017 A 
BRANCH   9  12
HETATM   12  N1  UNK     1      19.411   0.232  31.139  1.00  0.00    -0.333 N 
HETATM   13  C13 UNK     1      19.140  -0.766  32.047  1.00  0.00     0.096 A 
HETATM   14  C18 UNK     1      19.689  -1.939  31.575  1.00  0.00     0.019 A 
HETATM   15  C19 UNK     1      20.314  -1.645  30.338  1.00  0.00     0.019 A 
HETATM   16  C14 UNK     1      20.128  -0.303  30.092  1.00  0.00     0.096 A 
ENDBRANCH   9  12
ENDBRANCH   4   6
BRANCH   5  17
HETATM   17  C4  UNK     1      16.256   8.258  33.202  1.00  0.00     0.096 A 
HETATM   18  C15 UNK     1      16.627   8.432  34.633  1.00  0.00     0.303 A 
HETATM   19  O1  UNK     1      15.908   9.383  35.354  1.00  0.00    -0.274 OA
HETATM   20  O3  UNK     1      17.514   7.772  35.164  1.00  0.00    -0.259 OA
HETATM   21  C5  UNK     1      14.872  10.138  34.772  1.00  0.00     0.089 A 
HETATM   22  C17 UNK     1      14.209  11.060  35.580  1.00  0.00     0.038 A 
HETATM   23  C3  UNK     1      14.534   9.958  33.435  1.00  0.00    -0.001 A 
HETATM   24  C21 UNK     1      13.179  11.820  35.032  1.00  0.00     0.003 A 
HETATM   25  C20 UNK     1      12.825  11.654  33.692  1.00  0.00     0.001 A 
HETATM   26  C16 UNK     1      13.501  10.725  32.893  1.00  0.00     0.014 A 
HETATM   27  C6  UNK     1      15.270   8.981  32.650  1.00  0.00     0.036 A 
ENDBRANCH   5  17
TORSDOF 3
ENDMDL
MODEL 10
REMARK VINA RESULT:      -9.4      3.507      9.814
REMARK  3 active torsions:
REMARK  status: ('A' for Active; 'I' for Inactive)
REMARK    1  A    between atoms: C1_7  and  N1_4 
REMARK    2  A    between atoms: C11_17  and  C2_8 
REMARK    3  A    between atoms: C12_18  and  C4_10 
ROOT
HETATM    1  O2  UNK     1      17.566   4.187  31.886  1.00  0.00    -0.190 OA
HETATM    2  N2  UNK     1      18.328   3.904  33.974  1.00  0.00    -0.199 NA
HETATM    3  N3  UNK     1      17.698   2.804  32.069  1.00  0.00    -0.105 NA
HETATM    4  C11 UNK     1      18.152   2.718  33.324  1.00  0.00     0.189 A 
HETATM    5  C12 UNK     1      17.958   4.770  33.055  1.00  0.00     0.212 A 
ENDROOT
BRANCH   4   6
HETATM    6  C2  UNK     1      18.438   1.463  33.957  1.00  0.00     0.014 A 
HETATM    7  C10 UNK     1      18.620   1.403  35.339  1.00  0.00     0.017 A 
HETATM    8  C8  UNK     1      18.898   0.183  35.955  1.00  0.00     0.031 A 
HETATM    9  C1  UNK     1      18.995  -0.980  35.189  1.00  0.00     0.038 A 
HETATM   10  C7  UNK     1      18.813  -0.921  33.807  1.00  0.00     0.031 A 
HETATM   11  C9  UNK     1      18.534   0.300  33.192  1.00  0.00     0.017 A 
BRANCH   9  12
HETATM   12  N1  UNK     1      19.272  -2.190  35.798  1.00  0.00    -0.333 N 
HETATM   13  C13 UNK     1      18.840  -2.574  37.047  1.00  0.00     0.096 A 
HETATM   14  C18 UNK     1      19.319  -3.842  37.297  1.00  0.00     0.019 A 
HETATM   15  C19 UNK     1      20.067  -4.242  36.163  1.00  0.00     0.019 A 
HETATM   16  C14 UNK     1      20.023  -3.208  35.255  1.00  0.00     0.096 A 
ENDBRANCH   9  12
ENDBRANCH   4   6
BRANCH   5  17
HETATM   17  C4  UNK     1      17.948   6.190  33.219  1.00  0.00     0.096 A 
HETATM   18  C15 UNK     1      16.735   6.966  32.843  1.00  0.00     0.303 A 
HETATM   19  O1  UNK     1      16.787   8.344  33.043  1.00  0.00    -0.274 OA
HETATM   20  O3  UNK     1      15.735   6.432  32.375  1.00  0.00    -0.259 OA
HETATM   21  C5  UNK     1      17.930   8.982  33.562  1.00  0.00     0.089 A 
HETATM   22  C17 UNK     1      17.884  10.366  33.718  1.00  0.00     0.038 A 
HETATM   23  C3  UNK     1      19.058   8.243  33.901  1.00  0.00    -0.001 A 
HETATM   24  C21 UNK     1      19.001  11.025  34.228  1.00  0.00     0.003 A 
HETATM   25  C20 UNK     1      20.142  10.300  34.574  1.00  0.00     0.001 A 
HETATM   26  C16 UNK     1      20.173   8.911  34.412  1.00  0.00     0.014 A 
HETATM   27  C6  UNK     1      19.035   6.801  33.715  1.00  0.00     0.036 A 
ENDBRANCH   5  17
TORSDOF 3
ENDMDL
