MODEL 1
REMARK VINA RESULT:     -10.4      0.000      0.000
REMARK  4 active torsions:
REMARK  status: ('A' for Active; 'I' for Inactive)
REMARK    1  A    between atoms: C5_14  and  S1_1 
REMARK    2  A    between atoms: N1_8  and  S1_1 
REMARK       I    between atoms: C11_20  and  N2_9 
REMARK    3  A    between atoms: C8_17  and  N2_9 
REMARK    4  A    between atoms: C11_20  and  C12_21 
ROOT
HETATM    1  C5  UNK     1      17.143   7.328  32.779  1.00  0.00     0.076 A 
HETATM    2  C6  UNK     1      17.181   5.984  33.149  1.00  0.00     0.054 A 
HETATM    3  C7  UNK     1      18.245   8.148  33.016  1.00  0.00     0.025 A 
HETATM    4  C8  UNK     1      18.322   5.480  33.751  1.00  0.00     0.036 A 
HETATM    5  C9  UNK     1      19.386   7.625  33.624  1.00  0.00     0.004 A 
HETATM    6  C10 UNK     1      19.424   6.281  33.994  1.00  0.00     0.029 A 
ENDROOT
BRANCH   4   7
HETATM    7  N2  UNK     1      18.361   4.116  34.127  1.00  0.00    -0.323 N 
HETATM    8  C11 UNK     1      18.106   3.009  33.327  1.00  0.00     0.262 C 
HETATM    9  O5  UNK     1      17.796   2.990  32.138  1.00  0.00    -0.267 OA
HETATM   10  H13 UNK     1      18.588   3.962  35.106  1.00  0.00     0.169 HD
BRANCH   8  11
HETATM   11  C12 UNK     1      18.245   1.749  34.065  1.00  0.00     0.108 A 
HETATM   12  C14 UNK     1      17.969   1.795  35.373  1.00  0.00     0.037 A 
HETATM   13  C13 UNK     1      18.077   0.595  36.189  1.00  0.00    -0.001 A 
HETATM   14  C15 UNK     1      18.473  -0.595  35.586  1.00  0.00     0.089 A 
HETATM   15  C17 UNK     1      17.798   0.598  37.557  1.00  0.00     0.014 A 
HETATM   16  O4  UNK     1      18.764  -0.637  34.208  1.00  0.00    -0.274 OA
HETATM   17  C18 UNK     1      18.597  -1.778  36.311  1.00  0.00     0.038 A 
HETATM   18  C16 UNK     1      18.668   0.494  33.402  1.00  0.00     0.304 A 
HETATM   19  O6  UNK     1      18.923   0.448  32.204  1.00  0.00    -0.259 OA
HETATM   20  C20 UNK     1      18.316  -1.767  37.675  1.00  0.00     0.003 A 
HETATM   21  C19 UNK     1      17.918  -0.582  38.298  1.00  0.00     0.001 A 
ENDBRANCH   8  11
ENDBRANCH   4   7
BRANCH   1  22
HETATM   22  S1  UNK     1      15.714   7.984  32.019  1.00  0.00     0.243 S 
HETATM   23  O2  UNK     1      16.101   8.568  30.742  1.00  0.00    -0.206 OA
HETATM   24  O3  UNK     1      14.661   6.978  32.066  1.00  0.00    -0.206 OA
BRANCH  22  25
HETATM   25  N1  UNK     1      15.316   9.246  33.105  1.00  0.00    -0.202 NA
HETATM   26  C1  UNK     1      14.893   8.812  34.469  1.00  0.00     0.134 C 
HETATM   27  C3  UNK     1      14.824  10.036  35.371  1.00  0.00     0.183 C 
HETATM   28  O1  UNK     1      13.914  10.998  34.834  1.00  0.00    -0.389 OA
HETATM   29  C4  UNK     1      14.347  11.452  33.549  1.00  0.00     0.183 C 
HETATM   30  C2  UNK     1      14.396  10.291  32.567  1.00  0.00     0.134 C 
ENDBRANCH  22  25
ENDBRANCH   1  22
TORSDOF 4
ENDMDL
MODEL 2
REMARK VINA RESULT:     -10.2     13.460     16.894
REMARK  4 active torsions:
REMARK  status: ('A' for Active; 'I' for Inactive)
REMARK    1  A    between atoms: C5_14  and  S1_1 
REMARK    2  A    between atoms: N1_8  and  S1_1 
REMARK       I    between atoms: C11_20  and  N2_9 
REMARK    3  A    between atoms: C8_17  and  N2_9 
REMARK    4  A    between atoms: C11_20  and  C12_21 
ROOT
HETATM    1  C5  UNK     1      23.127 -10.373  36.133  1.00  0.00     0.076 A 
HETATM    2  C6  UNK     1      24.076  -9.434  36.537  1.00  0.00     0.054 A 
HETATM    3  C7  UNK     1      23.512 -11.689  35.880  1.00  0.00     0.025 A 
HETATM    4  C8  UNK     1      25.396  -9.827  36.682  1.00  0.00     0.036 A 
HETATM    5  C9  UNK     1      24.845 -12.068  36.031  1.00  0.00     0.004 A 
HETATM    6  C10 UNK     1      25.794 -11.129  36.435  1.00  0.00     0.029 A 
ENDROOT
BRANCH   4   7
HETATM    7  N2  UNK     1      26.359  -8.874  37.093  1.00  0.00    -0.323 N 
HETATM    8  C11 UNK     1      26.657  -8.474  38.389  1.00  0.00     0.262 C 
HETATM    9  O5  UNK     1      26.147  -8.864  39.438  1.00  0.00    -0.267 OA
HETATM   10  H13 UNK     1      26.863  -8.437  36.325  1.00  0.00     0.169 HD
BRANCH   8  11
HETATM   11  C12 UNK     1      27.720  -7.464  38.427  1.00  0.00     0.108 A 
HETATM   12  C14 UNK     1      28.974  -7.920  38.334  1.00  0.00     0.037 A 
HETATM   13  C13 UNK     1      30.096  -6.994  38.361  1.00  0.00    -0.001 A 
HETATM   14  C15 UNK     1      29.841  -5.632  38.486  1.00  0.00     0.089 A 
HETATM   15  C17 UNK     1      31.421  -7.427  38.267  1.00  0.00     0.014 A 
HETATM   16  O4  UNK     1      28.519  -5.157  38.583  1.00  0.00    -0.274 OA
HETATM   17  C18 UNK     1      30.870  -4.693  38.519  1.00  0.00     0.038 A 
HETATM   18  C16 UNK     1      27.425  -6.019  38.560  1.00  0.00     0.304 A 
HETATM   19  O6  UNK     1      26.278  -5.597  38.646  1.00  0.00    -0.259 OA
HETATM   20  C20 UNK     1      32.189  -5.133  38.424  1.00  0.00     0.003 A 
HETATM   21  C19 UNK     1      32.464  -6.496  38.298  1.00  0.00     0.001 A 
ENDBRANCH   8  11
ENDBRANCH   4   7
BRANCH   1  22
HETATM   22  S1  UNK     1      21.457  -9.900  35.943  1.00  0.00     0.243 S 
HETATM   23  O2  UNK     1      21.286  -9.347  34.607  1.00  0.00    -0.206 OA
HETATM   24  O3  UNK     1      20.610 -11.000  36.386  1.00  0.00    -0.206 OA
BRANCH  22  25
HETATM   25  N1  UNK     1      21.347  -8.628  37.085  1.00  0.00    -0.202 NA
HETATM   26  C1  UNK     1      20.604  -8.952  38.338  1.00  0.00     0.134 C 
HETATM   27  C3  UNK     1      20.813  -7.821  39.335  1.00  0.00     0.183 C 
HETATM   28  O1  UNK     1      20.369  -6.581  38.780  1.00  0.00    -0.389 OA
HETATM   29  C4  UNK     1      21.117  -6.246  37.609  1.00  0.00     0.183 C 
HETATM   30  C2  UNK     1      20.921  -7.308  36.536  1.00  0.00     0.134 C 
ENDBRANCH  22  25
ENDBRANCH   1  22
TORSDOF 4
ENDMDL
MODEL 3
REMARK VINA RESULT:     -10.0      3.404      8.965
REMARK  4 active torsions:
REMARK  status: ('A' for Active; 'I' for Inactive)
REMARK    1  A    between atoms: C5_14  and  S1_1 
REMARK    2  A    between atoms: N1_8  and  S1_1 
REMARK       I    between atoms: C11_20  and  N2_9 
REMARK    3  A    between atoms: C8_17  and  N2_9 
REMARK    4  A    between atoms: C11_20  and  C12_21 
ROOT
HETATM    1  C5  UNK     1      19.426   0.257  30.619  1.00  0.00     0.076 A 
HETATM    2  C6  UNK     1      19.183   1.450  31.302  1.00  0.00     0.054 A 
HETATM    3  C7  UNK     1      19.056   0.133  29.281  1.00  0.00     0.025 A 
HETATM    4  C8  UNK     1      18.574   2.499  30.634  1.00  0.00     0.036 A 
HETATM    5  C9  UNK     1      18.443   1.199  28.623  1.00  0.00     0.004 A 
HETATM    6  C10 UNK     1      18.201   2.391  29.306  1.00  0.00     0.029 A 
ENDROOT
BRANCH   4   7
HETATM    7  N2  UNK     1      18.328   3.709  31.327  1.00  0.00    -0.323 N 
HETATM    8  C11 UNK     1      18.890   4.955  31.080  1.00  0.00     0.262 C 
HETATM    9  O5  UNK     1      19.710   5.259  30.216  1.00  0.00    -0.267 OA
HETATM   10  H13 UNK     1      17.673   3.619  32.099  1.00  0.00     0.169 HD
BRANCH   8  11
HETATM   11  C12 UNK     1      18.391   5.980  32.004  1.00  0.00     0.108 A 
HETATM   12  C14 UNK     1      17.067   6.167  32.023  1.00  0.00     0.037 A 
HETATM   13  C13 UNK     1      16.477   7.160  32.907  1.00  0.00    -0.001 A 
HETATM   14  C15 UNK     1      17.313   7.909  33.729  1.00  0.00     0.089 A 
HETATM   15  C17 UNK     1      15.100   7.388  32.959  1.00  0.00     0.014 A 
HETATM   16  O4  UNK     1      18.708   7.708  33.706  1.00  0.00    -0.274 OA
HETATM   17  C18 UNK     1      16.813   8.876  34.598  1.00  0.00     0.038 A 
HETATM   18  C16 UNK     1      19.300   6.765  32.870  1.00  0.00     0.304 A 
HETATM   19  O6  UNK     1      20.514   6.597  32.856  1.00  0.00    -0.259 OA
HETATM   20  C20 UNK     1      15.438   9.097  34.644  1.00  0.00     0.003 A 
HETATM   21  C19 UNK     1      14.583   8.355  33.826  1.00  0.00     0.001 A 
ENDBRANCH   8  11
ENDBRANCH   4   7
BRANCH   1  22
HETATM   22  S1  UNK     1      20.192  -1.079  31.442  1.00  0.00     0.243 S 
HETATM   23  O2  UNK     1      19.767  -2.316  30.802  1.00  0.00    -0.206 OA
HETATM   24  O3  UNK     1      21.612  -0.785  31.579  1.00  0.00    -0.206 OA
BRANCH  22  25
HETATM   25  N1  UNK     1      19.458  -0.975  32.986  1.00  0.00    -0.202 NA
HETATM   26  C1  UNK     1      19.991  -1.914  34.016  1.00  0.00     0.134 C 
HETATM   27  C3  UNK     1      19.420  -1.526  35.372  1.00  0.00     0.183 C 
HETATM   28  O1  UNK     1      17.992  -1.559  35.338  1.00  0.00    -0.389 OA
HETATM   29  C4  UNK     1      17.479  -0.622  34.387  1.00  0.00     0.183 C 
HETATM   30  C2  UNK     1      17.965  -0.970  32.988  1.00  0.00     0.134 C 
ENDBRANCH  22  25
ENDBRANCH   1  22
TORSDOF 4
ENDMDL
MODEL 4
REMARK VINA RESULT:     -10.0      3.303      8.975
REMARK  4 active torsions:
REMARK  status: ('A' for Active; 'I' for Inactive)
REMARK    1  A    between atoms: C5_14  and  S1_1 
REMARK    2  A    between atoms: N1_8  and  S1_1 
REMARK       I    between atoms: C11_20  and  N2_9 
REMARK    3  A    between atoms: C8_17  and  N2_9 
REMARK    4  A    between atoms: C11_20  and  C12_21 
ROOT
HETATM    1  C5  UNK     1      19.359   0.347  30.536  1.00  0.00     0.076 A 
HETATM    2  C6  UNK     1      19.225   1.583  31.168  1.00  0.00     0.054 A 
HETATM    3  C7  UNK     1      18.871   0.168  29.242  1.00  0.00     0.025 A 
HETATM    4  C8  UNK     1      18.604   2.622  30.495  1.00  0.00     0.036 A 
HETATM    5  C9  UNK     1      18.248   1.225  28.579  1.00  0.00     0.004 A 
HETATM    6  C10 UNK     1      18.114   2.461  29.210  1.00  0.00     0.029 A 
ENDROOT
BRANCH   4   7
HETATM    7  N2  UNK     1      18.468   3.877  31.136  1.00  0.00    -0.323 N 
HETATM    8  C11 UNK     1      18.144   4.119  32.465  1.00  0.00     0.262 C 
HETATM    9  O5  UNK     1      17.911   3.298  33.349  1.00  0.00    -0.267 OA
HETATM   10  H13 UNK     1      18.613   4.674  30.522  1.00  0.00     0.169 HD
BRANCH   8  11
HETATM   11  C12 UNK     1      18.096   5.553  32.771  1.00  0.00     0.108 A 
HETATM   12  C14 UNK     1      19.208   6.085  33.291  1.00  0.00     0.037 A 
HETATM   13  C13 UNK     1      19.258   7.500  33.626  1.00  0.00    -0.001 A 
HETATM   14  C15 UNK     1      18.132   8.286  33.398  1.00  0.00     0.089 A 
HETATM   15  C17 UNK     1      20.397   8.096  34.170  1.00  0.00     0.014 A 
HETATM   16  O4  UNK     1      16.964   7.720  32.850  1.00  0.00    -0.274 OA
HETATM   17  C18 UNK     1      18.114   9.646  33.698  1.00  0.00     0.038 A 
HETATM   18  C16 UNK     1      16.887   6.369  32.519  1.00  0.00     0.304 A 
HETATM   19  O6  UNK     1      15.866   5.886  32.043  1.00  0.00    -0.259 OA
HETATM   20  C20 UNK     1      19.255  10.233  34.240  1.00  0.00     0.003 A 
HETATM   21  C19 UNK     1      20.395   9.461  34.476  1.00  0.00     0.001 A 
ENDBRANCH   8  11
ENDBRANCH   4   7
BRANCH   1  22
HETATM   22  S1  UNK     1      20.138  -0.978  31.366  1.00  0.00     0.243 S 
HETATM   23  O2  UNK     1      19.739  -2.221  30.721  1.00  0.00    -0.206 OA
HETATM   24  O3  UNK     1      21.551  -0.662  31.518  1.00  0.00    -0.206 OA
BRANCH  22  25
HETATM   25  N1  UNK     1      19.386  -0.887  32.901  1.00  0.00    -0.202 NA
HETATM   26  C1  UNK     1      19.933  -1.807  33.941  1.00  0.00     0.134 C 
HETATM   27  C3  UNK     1      19.339  -1.428  35.290  1.00  0.00     0.183 C 
HETATM   28  O1  UNK     1      17.912  -1.499  35.242  1.00  0.00    -0.389 OA
HETATM   29  C4  UNK     1      17.385  -0.579  34.282  1.00  0.00     0.183 C 
HETATM   30  C2  UNK     1      17.894  -0.921  32.889  1.00  0.00     0.134 C 
ENDBRANCH  22  25
ENDBRANCH   1  22
TORSDOF 4
ENDMDL
MODEL 5
REMARK VINA RESULT:      -9.9      1.906      2.357
REMARK  4 active torsions:
REMARK  status: ('A' for Active; 'I' for Inactive)
REMARK    1  A    between atoms: C5_14  and  S1_1 
REMARK    2  A    between atoms: N1_8  and  S1_1 
REMARK       I    between atoms: C11_20  and  N2_9 
REMARK    3  A    between atoms: C8_17  and  N2_9 
REMARK    4  A    between atoms: C11_20  and  C12_21 
ROOT
HETATM    1  C5  UNK     1      17.436   6.732  31.895  1.00  0.00     0.076 A 
HETATM    2  C6  UNK     1      17.455   5.549  32.634  1.00  0.00     0.054 A 
HETATM    3  C7  UNK     1      18.175   6.830  30.716  1.00  0.00     0.025 A 
HETATM    4  C8  UNK     1      18.213   4.482  32.183  1.00  0.00     0.036 A 
HETATM    5  C9  UNK     1      18.933   5.745  30.275  1.00  0.00     0.004 A 
HETATM    6  C10 UNK     1      18.951   4.562  31.015  1.00  0.00     0.029 A 
ENDROOT
BRANCH   4   7
HETATM    7  N2  UNK     1      18.232   3.281  32.933  1.00  0.00    -0.323 N 
HETATM    8  C11 UNK     1      18.263   1.980  32.448  1.00  0.00     0.262 C 
HETATM    9  O5  UNK     1      18.280   1.608  31.276  1.00  0.00    -0.267 OA
HETATM   10  H13 UNK     1      18.201   3.421  33.939  1.00  0.00     0.169 HD
BRANCH   8  11
HETATM   11  C12 UNK     1      18.278   0.987  33.528  1.00  0.00     0.108 A 
HETATM   12  C14 UNK     1      18.044   1.450  34.761  1.00  0.00     0.037 A 
HETATM   13  C13 UNK     1      18.037   0.542  35.897  1.00  0.00    -0.001 A 
HETATM   14  C15 UNK     1      18.277  -0.811  35.679  1.00  0.00     0.089 A 
HETATM   15  C17 UNK     1      17.798   0.982  37.201  1.00  0.00     0.014 A 
HETATM   16  O4  UNK     1      18.522  -1.293  34.378  1.00  0.00    -0.274 OA
HETATM   17  C18 UNK     1      18.284  -1.733  36.723  1.00  0.00     0.038 A 
HETATM   18  C16 UNK     1      18.535  -0.448  33.271  1.00  0.00     0.304 A 
HETATM   19  O6  UNK     1      18.750  -0.877  32.143  1.00  0.00    -0.259 OA
HETATM   20  C20 UNK     1      18.044  -1.286  38.020  1.00  0.00     0.003 A 
HETATM   21  C19 UNK     1      17.801   0.069  38.260  1.00  0.00     0.001 A 
ENDBRANCH   8  11
ENDBRANCH   4   7
BRANCH   1  22
HETATM   22  S1  UNK     1      16.488   8.091  32.446  1.00  0.00     0.243 S 
HETATM   23  O2  UNK     1      15.901   8.742  31.283  1.00  0.00    -0.206 OA
HETATM   24  O3  UNK     1      15.631   7.646  33.537  1.00  0.00    -0.206 OA
BRANCH  22  25
HETATM   25  N1  UNK     1      17.711   9.104  33.087  1.00  0.00    -0.202 NA
HETATM   26  C1  UNK     1      18.720   8.425  33.951  1.00  0.00     0.134 C 
HETATM   27  C3  UNK     1      19.860   9.397  34.226  1.00  0.00     0.183 C 
HETATM   28  O1  UNK     1      19.362  10.582  34.851  1.00  0.00    -0.389 OA
HETATM   29  C4  UNK     1      18.434  11.260  34.000  1.00  0.00     0.183 C 
HETATM   30  C2  UNK     1      17.233  10.370  33.715  1.00  0.00     0.134 C 
ENDBRANCH  22  25
ENDBRANCH   1  22
TORSDOF 4
ENDMDL
MODEL 6
REMARK VINA RESULT:      -9.9     12.658     16.125
REMARK  4 active torsions:
REMARK  status: ('A' for Active; 'I' for Inactive)
REMARK    1  A    between atoms: C5_14  and  S1_1 
REMARK    2  A    between atoms: N1_8  and  S1_1 
REMARK       I    between atoms: C11_20  and  N2_9 
REMARK    3  A    between atoms: C8_17  and  N2_9 
REMARK    4  A    between atoms: C11_20  and  C12_21 
ROOT
HETATM    1  C5  UNK     1      21.884  -9.151  37.705  1.00  0.00     0.076 A 
HETATM    2  C6  UNK     1      23.145  -8.559  37.634  1.00  0.00     0.054 A 
HETATM    3  C7  UNK     1      21.192  -9.175  38.915  1.00  0.00     0.025 A 
HETATM    4  C8  UNK     1      23.695  -8.000  38.775  1.00  0.00     0.036 A 
HETATM    5  C9  UNK     1      21.760  -8.607  40.055  1.00  0.00     0.004 A 
HETATM    6  C10 UNK     1      23.021  -8.015  39.984  1.00  0.00     0.029 A 
ENDROOT
BRANCH   4   7
HETATM    7  N2  UNK     1      24.975  -7.398  38.703  1.00  0.00    -0.323 N 
HETATM    8  C11 UNK     1      26.200  -7.976  39.008  1.00  0.00     0.262 C 
HETATM    9  O5  UNK     1      26.422  -9.120  39.400  1.00  0.00    -0.267 OA
HETATM   10  H13 UNK     1      24.960  -6.426  38.408  1.00  0.00     0.169 HD
BRANCH   8  11
HETATM   11  C12 UNK     1      27.316  -7.044  38.811  1.00  0.00     0.108 A 
HETATM   12  C14 UNK     1      28.534  -7.590  38.720  1.00  0.00     0.037 A 
HETATM   13  C13 UNK     1      29.704  -6.747  38.523  1.00  0.00    -0.001 A 
HETATM   14  C15 UNK     1      29.533  -5.369  38.433  1.00  0.00     0.089 A 
HETATM   15  C17 UNK     1      30.993  -7.275  38.423  1.00  0.00     0.014 A 
HETATM   16  O4  UNK     1      28.247  -4.800  38.529  1.00  0.00    -0.274 OA
HETATM   17  C18 UNK     1      30.611  -4.507  38.245  1.00  0.00     0.038 A 
HETATM   18  C16 UNK     1      27.110  -5.581  38.717  1.00  0.00     0.304 A 
HETATM   19  O6  UNK     1      25.996  -5.077  38.800  1.00  0.00    -0.259 OA
HETATM   20  C20 UNK     1      31.893  -5.041  38.145  1.00  0.00     0.003 A 
HETATM   21  C19 UNK     1      32.085  -6.422  38.234  1.00  0.00     0.001 A 
ENDBRANCH   8  11
ENDBRANCH   4   7
BRANCH   1  22
HETATM   22  S1  UNK     1      21.173  -9.863  36.278  1.00  0.00     0.243 S 
HETATM   23  O2  UNK     1      22.218 -10.028  35.277  1.00  0.00    -0.206 OA
HETATM   24  O3  UNK     1      20.371 -11.010  36.683  1.00  0.00    -0.206 OA
BRANCH  22  25
HETATM   25  N1  UNK     1      20.122  -8.608  35.776  1.00  0.00    -0.202 NA
HETATM   26  C1  UNK     1      20.725  -7.244  35.732  1.00  0.00     0.134 C 
HETATM   27  C3  UNK     1      19.752  -6.302  35.036  1.00  0.00     0.183 C 
HETATM   28  O1  UNK     1      18.498  -6.288  35.722  1.00  0.00    -0.389 OA
HETATM   29  C4  UNK     1      17.896  -7.585  35.719  1.00  0.00     0.183 C 
HETATM   30  C2  UNK     1      18.788  -8.582  36.444  1.00  0.00     0.134 C 
ENDBRANCH  22  25
ENDBRANCH   1  22
TORSDOF 4
ENDMDL
MODEL 7
REMARK VINA RESULT:      -9.8      6.060      9.006
REMARK  4 active torsions:
REMARK  status: ('A' for Active; 'I' for Inactive)
REMARK    1  A    between atoms: C5_14  and  S1_1 
REMARK    2  A    between atoms: N1_8  and  S1_1 
REMARK       I    between atoms: C11_20  and  N2_9 
REMARK    3  A    between atoms: C8_17  and  N2_9 
REMARK    4  A    between atoms: C11_20  and  C12_21 
ROOT
HETATM    1  C5  UNK     1      17.942   0.120  35.754  1.00  0.00     0.076 A 
HETATM    2  C6  UNK     1      18.289  -1.229  35.685  1.00  0.00     0.054 A 
HETATM    3  C7  UNK     1      17.770   0.734  36.994  1.00  0.00     0.025 A 
HETATM    4  C8  UNK     1      18.458  -1.945  36.858  1.00  0.00     0.036 A 
HETATM    5  C9  UNK     1      17.944  -0.001  38.166  1.00  0.00     0.004 A 
HETATM    6  C10 UNK     1      18.291  -1.351  38.097  1.00  0.00     0.029 A 
ENDROOT
BRANCH   4   7
HETATM    7  N2  UNK     1      18.809  -3.314  36.789  1.00  0.00    -0.323 N 
HETATM    8  C11 UNK     1      20.071  -3.855  36.576  1.00  0.00     0.262 C 
HETATM    9  O5  UNK     1      21.132  -3.258  36.405  1.00  0.00    -0.267 OA
HETATM   10  H13 UNK     1      18.023  -3.950  36.893  1.00  0.00     0.169 HD
BRANCH   8  11
HETATM   11  C12 UNK     1      20.050  -5.322  36.569  1.00  0.00     0.108 A 
HETATM   12  C14 UNK     1      19.911  -5.918  37.758  1.00  0.00     0.037 A 
HETATM   13  C13 UNK     1      19.878  -7.369  37.853  1.00  0.00    -0.001 A 
HETATM   14  C15 UNK     1      19.995  -8.123  36.689  1.00  0.00     0.089 A 
HETATM   15  C17 UNK     1      19.734  -8.032  39.074  1.00  0.00     0.014 A 
HETATM   16  O4  UNK     1      20.142  -7.490  35.439  1.00  0.00    -0.274 OA
HETATM   17  C18 UNK     1      19.972  -9.515  36.712  1.00  0.00     0.038 A 
HETATM   18  C16 UNK     1      20.177  -6.103  35.317  1.00  0.00     0.304 A 
HETATM   19  O6  UNK     1      20.305  -5.561  34.225  1.00  0.00    -0.259 OA
HETATM   20  C20 UNK     1      19.828 -10.169  37.933  1.00  0.00     0.003 A 
HETATM   21  C19 UNK     1      19.709  -9.430  39.113  1.00  0.00     0.001 A 
ENDBRANCH   8  11
ENDBRANCH   4   7
BRANCH   1  22
HETATM   22  S1  UNK     1      17.723   1.041  34.286  1.00  0.00     0.243 S 
HETATM   23  O2  UNK     1      16.343   0.884  33.848  1.00  0.00    -0.206 OA
HETATM   24  O3  UNK     1      18.271   2.376  34.491  1.00  0.00    -0.206 OA
BRANCH  22  25
HETATM   25  N1  UNK     1      18.745   0.187  33.210  1.00  0.00    -0.202 NA
HETATM   26  C1  UNK     1      18.990   0.848  31.895  1.00  0.00     0.134 C 
HETATM   27  C3  UNK     1      20.099   0.098  31.171  1.00  0.00     0.183 C 
HETATM   28  O1  UNK     1      19.739  -1.275  30.997  1.00  0.00    -0.389 OA
HETATM   29  C4  UNK     1      19.556  -1.921  32.259  1.00  0.00     0.183 C 
HETATM   30  C2  UNK     1      18.423  -1.259  33.031  1.00  0.00     0.134 C 
ENDBRANCH  22  25
ENDBRANCH   1  22
TORSDOF 4
ENDMDL
MODEL 8
REMARK VINA RESULT:      -9.7     12.032     16.048
REMARK  4 active torsions:
REMARK  status: ('A' for Active; 'I' for Inactive)
REMARK    1  A    between atoms: C5_14  and  S1_1 
REMARK    2  A    between atoms: N1_8  and  S1_1 
REMARK       I    between atoms: C11_20  and  N2_9 
REMARK    3  A    between atoms: C8_17  and  N2_9 
REMARK    4  A    between atoms: C11_20  and  C12_21 
ROOT
HETATM    1  C5  UNK     1      21.753  -9.645  37.166  1.00  0.00     0.076 A 
HETATM    2  C6  UNK     1      22.813  -8.801  37.499  1.00  0.00     0.054 A 
HETATM    3  C7  UNK     1      21.995 -10.824  36.462  1.00  0.00     0.025 A 
HETATM    4  C8  UNK     1      24.099  -9.150  37.121  1.00  0.00     0.036 A 
HETATM    5  C9  UNK     1      23.296 -11.160  36.089  1.00  0.00     0.004 A 
HETATM    6  C10 UNK     1      24.355 -10.316  36.422  1.00  0.00     0.029 A 
ENDROOT
BRANCH   4   7
HETATM    7  N2  UNK     1      25.174  -8.294  37.459  1.00  0.00    -0.323 N 
HETATM    8  C11 UNK     1      25.979  -8.350  38.589  1.00  0.00     0.262 C 
HETATM    9  O5  UNK     1      25.922  -9.150  39.521  1.00  0.00    -0.267 OA
HETATM   10  H13 UNK     1      25.341  -7.551  36.784  1.00  0.00     0.169 HD
BRANCH   8  11
HETATM   11  C12 UNK     1      26.999  -7.295  38.597  1.00  0.00     0.108 A 
HETATM   12  C14 UNK     1      28.270  -7.699  38.502  1.00  0.00     0.037 A 
HETATM   13  C13 UNK     1      29.352  -6.727  38.500  1.00  0.00    -0.001 A 
HETATM   14  C15 UNK     1      29.041  -5.374  38.599  1.00  0.00     0.089 A 
HETATM   15  C17 UNK     1      30.693  -7.105  38.403  1.00  0.00     0.014 A 
HETATM   16  O4  UNK     1      27.700  -4.954  38.698  1.00  0.00    -0.274 OA
HETATM   17  C18 UNK     1      30.029  -4.392  38.603  1.00  0.00     0.038 A 
HETATM   18  C16 UNK     1      26.643  -5.862  38.703  1.00  0.00     0.304 A 
HETATM   19  O6  UNK     1      25.480  -5.487  38.790  1.00  0.00    -0.259 OA
HETATM   20  C20 UNK     1      31.364  -4.778  38.505  1.00  0.00     0.003 A 
HETATM   21  C19 UNK     1      31.696  -6.131  38.405  1.00  0.00     0.001 A 
ENDBRANCH   8  11
ENDBRANCH   4   7
BRANCH   1  22
HETATM   22  S1  UNK     1      20.123  -9.224  37.632  1.00  0.00     0.243 S 
HETATM   23  O2  UNK     1      19.231 -10.288  37.191  1.00  0.00    -0.206 OA
HETATM   24  O3  UNK     1      20.131  -8.819  39.031  1.00  0.00    -0.206 OA
BRANCH  22  25
HETATM   25  N1  UNK     1      19.853  -7.841  36.660  1.00  0.00    -0.202 NA
HETATM   26  C1  UNK     1      20.535  -7.844  35.332  1.00  0.00     0.134 C 
HETATM   27  C3  UNK     1      19.998  -6.685  34.505  1.00  0.00     0.183 C 
HETATM   28  O1  UNK     1      20.210  -5.447  35.188  1.00  0.00    -0.389 OA
HETATM   29  C4  UNK     1      19.514  -5.424  36.437  1.00  0.00     0.183 C 
HETATM   30  C2  UNK     1      20.030  -6.528  37.348  1.00  0.00     0.134 C 
ENDBRANCH  22  25
ENDBRANCH   1  22
TORSDOF 4
ENDMDL
MODEL 9
REMARK VINA RESULT:      -9.6      3.005      3.891
REMARK  4 active torsions:
REMARK  status: ('A' for Active; 'I' for Inactive)
REMARK    1  A    between atoms: C5_14  and  S1_1 
REMARK    2  A    between atoms: N1_8  and  S1_1 
REMARK       I    between atoms: C11_20  and  N2_9 
REMARK    3  A    between atoms: C8_17  and  N2_9 
REMARK    4  A    between atoms: C11_20  and  C12_21 
ROOT
HETATM    1  C5  UNK     1      16.594   7.364  32.908  1.00  0.00     0.076 A 
HETATM    2  C6  UNK     1      16.904   6.135  32.326  1.00  0.00     0.054 A 
HETATM    3  C7  UNK     1      17.615   8.211  33.336  1.00  0.00     0.025 A 
HETATM    4  C8  UNK     1      18.232   5.772  32.181  1.00  0.00     0.036 A 
HETATM    5  C9  UNK     1      18.948   7.830  33.184  1.00  0.00     0.004 A 
HETATM    6  C10 UNK     1      19.258   6.601  32.601  1.00  0.00     0.029 A 
ENDROOT
BRANCH   4   7
HETATM    7  N2  UNK     1      18.547   4.525  31.591  1.00  0.00    -0.323 N 
HETATM    8  C11 UNK     1      18.253   3.258  32.078  1.00  0.00     0.262 C 
HETATM    9  O5  UNK     1      17.662   2.963  33.115  1.00  0.00    -0.267 OA
HETATM   10  H13 UNK     1      19.065   4.598  30.718  1.00  0.00     0.169 HD
BRANCH   8  11
HETATM   11  C12 UNK     1      18.737   2.196  31.189  1.00  0.00     0.108 A 
HETATM   12  C14 UNK     1      19.104   1.052  31.778  1.00  0.00     0.037 A 
HETATM   13  C13 UNK     1      19.597  -0.059  30.980  1.00  0.00    -0.001 A 
HETATM   14  C15 UNK     1      19.680   0.088  29.599  1.00  0.00     0.089 A 
HETATM   15  C17 UNK     1      19.991  -1.271  31.553  1.00  0.00     0.014 A 
HETATM   16  O4  UNK     1      19.292   1.295  28.984  1.00  0.00    -0.274 OA
HETATM   17  C18 UNK     1      20.144  -0.937  28.778  1.00  0.00     0.038 A 
HETATM   18  C16 UNK     1      18.816   2.376  29.721  1.00  0.00     0.304 A 
HETATM   19  O6  UNK     1      18.481   3.422  29.177  1.00  0.00    -0.259 OA
HETATM   20  C20 UNK     1      20.534  -2.142  29.358  1.00  0.00     0.003 A 
HETATM   21  C19 UNK     1      20.458  -2.310  30.742  1.00  0.00     0.001 A 
ENDBRANCH   8  11
ENDBRANCH   4   7
BRANCH   1  22
HETATM   22  S1  UNK     1      14.925   7.843  33.100  1.00  0.00     0.243 S 
HETATM   23  O2  UNK     1      14.250   7.678  31.820  1.00  0.00    -0.206 OA
HETATM   24  O3  UNK     1      14.391   7.192  34.289  1.00  0.00    -0.206 OA
BRANCH  22  25
HETATM   25  N1  UNK     1      15.100   9.515  33.421  1.00  0.00    -0.202 NA
HETATM   26  C1  UNK     1      15.624   9.859  34.775  1.00  0.00     0.134 C 
HETATM   27  C3  UNK     1      15.955  11.345  34.808  1.00  0.00     0.183 C 
HETATM   28  O1  UNK     1      14.796  12.119  34.494  1.00  0.00    -0.389 OA
HETATM   29  C4  UNK     1      14.325  11.827  33.176  1.00  0.00     0.183 C 
HETATM   30  C2  UNK     1      13.922  10.363  33.072  1.00  0.00     0.134 C 
ENDBRANCH  22  25
ENDBRANCH   1  22
TORSDOF 4
ENDMDL
MODEL 10
REMARK VINA RESULT:      -9.6      7.508     13.713
REMARK  4 active torsions:
REMARK  status: ('A' for Active; 'I' for Inactive)
REMARK    1  A    between atoms: C5_14  and  S1_1 
REMARK    2  A    between atoms: N1_8  and  S1_1 
REMARK       I    between atoms: C11_20  and  N2_9 
REMARK    3  A    between atoms: C8_17  and  N2_9 
REMARK    4  A    between atoms: C11_20  and  C12_21 
ROOT
HETATM    1  C5  UNK     1      19.268  -8.240  37.806  1.00  0.00     0.076 A 
HETATM    2  C6  UNK     1      19.307  -6.856  37.634  1.00  0.00     0.054 A 
HETATM    3  C7  UNK     1      18.598  -9.040  36.881  1.00  0.00     0.025 A 
HETATM    4  C8  UNK     1      18.673  -6.294  36.538  1.00  0.00     0.036 A 
HETATM    5  C9  UNK     1      17.965  -8.457  35.784  1.00  0.00     0.004 A 
HETATM    6  C10 UNK     1      18.004  -7.073  35.611  1.00  0.00     0.029 A 
ENDROOT
BRANCH   4   7
HETATM    7  N2  UNK     1      18.712  -4.889  36.363  1.00  0.00    -0.323 N 
HETATM    8  C11 UNK     1      19.809  -4.048  36.501  1.00  0.00     0.262 C 
HETATM    9  O5  UNK     1      20.963  -4.350  36.802  1.00  0.00    -0.267 OA
HETATM   10  H13 UNK     1      17.814  -4.476  36.126  1.00  0.00     0.169 HD
BRANCH   8  11
HETATM   11  C12 UNK     1      19.468  -2.646  36.237  1.00  0.00     0.108 A 
HETATM   12  C14 UNK     1      18.722  -2.034  37.164  1.00  0.00     0.037 A 
HETATM   13  C13 UNK     1      18.333  -0.643  36.992  1.00  0.00    -0.001 A 
HETATM   14  C15 UNK     1      18.750   0.037  35.852  1.00  0.00     0.089 A 
HETATM   15  C17 UNK     1      17.555   0.035  37.934  1.00  0.00     0.014 A 
HETATM   16  O4  UNK     1      19.536  -0.613  34.879  1.00  0.00    -0.274 OA
HETATM   17  C18 UNK     1      18.412   1.369  35.627  1.00  0.00     0.038 A 
HETATM   18  C16 UNK     1      19.924  -1.943  35.016  1.00  0.00     0.304 A 
HETATM   19  O6  UNK     1      20.607  -2.500  34.165  1.00  0.00    -0.259 OA
HETATM   20  C20 UNK     1      17.636   2.038  36.571  1.00  0.00     0.003 A 
HETATM   21  C19 UNK     1      17.208   1.373  37.723  1.00  0.00     0.001 A 
ENDBRANCH   8  11
ENDBRANCH   4   7
BRANCH   1  22
HETATM   22  S1  UNK     1      20.060  -8.970  39.181  1.00  0.00     0.243 S 
HETATM   23  O2  UNK     1      19.878  -8.097  40.332  1.00  0.00    -0.206 OA
HETATM   24  O3  UNK     1      19.655 -10.367  39.260  1.00  0.00    -0.206 OA
BRANCH  22  25
HETATM   25  N1  UNK     1      21.698  -8.900  38.689  1.00  0.00    -0.202 NA
HETATM   26  C1  UNK     1      22.495  -7.777  39.263  1.00  0.00     0.134 C 
HETATM   27  C3  UNK     1      23.964  -8.002  38.935  1.00  0.00     0.183 C 
HETATM   28  O1  UNK     1      24.149  -8.091  37.520  1.00  0.00    -0.389 OA
HETATM   29  C4  UNK     1      23.426  -9.199  36.977  1.00  0.00     0.183 C 
HETATM   30  C2  UNK     1      21.934  -9.027  37.220  1.00  0.00     0.134 C 
ENDBRANCH  22  25
ENDBRANCH   1  22
TORSDOF 4
ENDMDL
