MODEL 1
REMARK VINA RESULT:      -9.8      0.000      0.000
REMARK  5 active torsions:
REMARK  status: ('A' for Active; 'I' for Inactive)
REMARK    1  A    between atoms: C13_20  and  N1_6 
REMARK       I    between atoms: C15_22  and  N1_6 
REMARK       I    between atoms: C14_21  and  N2_7 
REMARK    2  A    between atoms: C1_8  and  C2_9 
REMARK    3  A    between atoms: C2_9  and  C6_13 
REMARK    4  A    between atoms: C11_18  and  C14_21 
REMARK    5  A    between atoms: C15_22  and  C16_23 
ROOT
HETATM    1  S1  UNK     1      15.464   6.610  32.430  1.00  0.00    -0.075 SA
HETATM    2  C1  UNK     1      14.956  10.614  33.208  1.00  0.00    -0.002 C 
HETATM    3  C3  UNK     1      15.963  10.667  34.378  1.00  0.00     0.010 C 
HETATM    4  C4  UNK     1      14.460   9.170  32.968  1.00  0.00     0.052 C 
HETATM    5  C5  UNK     1      17.211   9.816  34.093  1.00  0.00     0.041 C 
HETATM    6  C7  UNK     1      15.604   8.204  33.010  1.00  0.00    -0.008 A 
HETATM    7  C8  UNK     1      16.852   8.473  33.538  1.00  0.00    -0.026 A 
HETATM    8  C11 UNK     1      17.708   7.334  33.452  1.00  0.00     0.073 A 
HETATM    9  C13 UNK     1      17.080   6.254  32.871  1.00  0.00     0.093 A 
ENDROOT
BRANCH   9  10
HETATM   10  N1  UNK     1      17.525   4.989  32.598  1.00  0.00    -0.316 N 
HETATM   11  C15 UNK     1      18.219   4.522  31.458  1.00  0.00     0.262 C 
HETATM   12  O2  UNK     1      18.562   5.173  30.479  1.00  0.00    -0.267 OA
HETATM   13  H19 UNK     1      17.301   4.308  33.320  1.00  0.00     0.169 HD
BRANCH  11  14
HETATM   14  C16 UNK     1      18.538   3.080  31.518  1.00  0.00     0.108 A 
HETATM   15  C17 UNK     1      19.001   2.530  30.389  1.00  0.00     0.037 A 
HETATM   16  C19 UNK     1      19.343   1.117  30.348  1.00  0.00    -0.001 A 
HETATM   17  C20 UNK     1      19.179   0.351  31.499  1.00  0.00     0.089 A 
HETATM   18  C21 UNK     1      19.830   0.501  29.192  1.00  0.00     0.014 A 
HETATM   19  O3  UNK     1      18.692   0.937  32.683  1.00  0.00    -0.274 OA
HETATM   20  C22 UNK     1      19.488  -1.007  31.526  1.00  0.00     0.038 A 
HETATM   21  C18 UNK     1      18.357   2.285  32.753  1.00  0.00     0.304 A 
HETATM   22  O4  UNK     1      17.931   2.786  33.789  1.00  0.00    -0.259 OA
HETATM   23  C24 UNK     1      19.973  -1.613  30.370  1.00  0.00     0.003 A 
HETATM   24  C23 UNK     1      20.144  -0.861  29.205  1.00  0.00     0.001 A 
ENDBRANCH  11  14
ENDBRANCH   9  10
BRANCH   8  25
HETATM   25  C14 UNK     1      19.077   7.281  33.901  1.00  0.00     0.252 C 
HETATM   26  O1  UNK     1      20.041   7.135  33.126  1.00  0.00    -0.268 OA
HETATM   27  N2  UNK     1      19.311   7.426  35.266  1.00  0.00    -0.366 N 
HETATM   28  H20 UNK     1      18.556   7.557  35.931  1.00  0.00     0.159 HD
HETATM   29  H21 UNK     1      20.255   7.406  35.639  1.00  0.00     0.159 HD
ENDBRANCH   8  25
BRANCH   2  30
HETATM   30  C2  UNK     1      13.776  11.549  33.465  1.00  0.00    -0.044 C 
HETATM   31  C10 UNK     1      14.157  12.973  33.007  1.00  0.00     0.015 C 
HETATM   32  C9  UNK     1      12.561  11.086  32.638  1.00  0.00     0.015 C 
BRANCH  30  33
HETATM   33  C6  UNK     1      13.420  11.615  34.977  1.00  0.00     0.004 C 
HETATM   34  C12 UNK     1      12.236  12.504  35.337  1.00  0.00     0.006 C 
ENDBRANCH  30  33
ENDBRANCH   2  30
TORSDOF 5
ENDMDL
MODEL 2
REMARK VINA RESULT:      -9.8      1.223      2.126
REMARK  5 active torsions:
REMARK  status: ('A' for Active; 'I' for Inactive)
REMARK    1  A    between atoms: C13_20  and  N1_6 
REMARK       I    between atoms: C15_22  and  N1_6 
REMARK       I    between atoms: C14_21  and  N2_7 
REMARK    2  A    between atoms: C1_8  and  C2_9 
REMARK    3  A    between atoms: C2_9  and  C6_13 
REMARK    4  A    between atoms: C11_18  and  C14_21 
REMARK    5  A    between atoms: C15_22  and  C16_23 
ROOT
HETATM    1  S1  UNK     1      16.183   6.576  31.569  1.00  0.00    -0.075 SA
HETATM    2  C1  UNK     1      15.865  10.258  33.369  1.00  0.00    -0.002 C 
HETATM    3  C3  UNK     1      16.732   9.899  34.596  1.00  0.00     0.010 C 
HETATM    4  C4  UNK     1      15.302   8.985  32.696  1.00  0.00     0.052 C 
HETATM    5  C5  UNK     1      17.943   9.038  34.203  1.00  0.00     0.041 C 
HETATM    6  C7  UNK     1      16.364   7.937  32.576  1.00  0.00    -0.008 A 
HETATM    7  C8  UNK     1      17.559   7.932  33.270  1.00  0.00    -0.026 A 
HETATM    8  C11 UNK     1      18.339   6.780  32.953  1.00  0.00     0.073 A 
HETATM    9  C13 UNK     1      17.709   5.960  32.042  1.00  0.00     0.093 A 
ENDROOT
BRANCH   9  10
HETATM   10  N1  UNK     1      18.095   4.776  31.473  1.00  0.00    -0.316 N 
HETATM   11  C15 UNK     1      18.135   3.488  32.054  1.00  0.00     0.262 C 
HETATM   12  O2  UNK     1      17.825   3.179  33.198  1.00  0.00    -0.267 OA
HETATM   13  H19 UNK     1      18.404   4.864  30.508  1.00  0.00     0.169 HD
BRANCH  11  14
HETATM   14  C16 UNK     1      18.609   2.442  31.124  1.00  0.00     0.108 A 
HETATM   15  C17 UNK     1      18.995   1.287  31.680  1.00  0.00     0.037 A 
HETATM   16  C19 UNK     1      19.479   0.197  30.848  1.00  0.00    -0.001 A 
HETATM   17  C20 UNK     1      19.533   0.377  29.469  1.00  0.00     0.089 A 
HETATM   18  C21 UNK     1      19.891  -1.025  31.385  1.00  0.00     0.014 A 
HETATM   19  O3  UNK     1      19.126   1.595  28.890  1.00  0.00    -0.274 OA
HETATM   20  C22 UNK     1      19.987  -0.627  28.615  1.00  0.00     0.038 A 
HETATM   21  C18 UNK     1      18.658   2.655  29.660  1.00  0.00     0.304 A 
HETATM   22  O4  UNK     1      18.307   3.712  29.148  1.00  0.00    -0.259 OA
HETATM   23  C24 UNK     1      20.395  -1.842  29.159  1.00  0.00     0.003 A 
HETATM   24  C23 UNK     1      20.348  -2.041  30.541  1.00  0.00     0.001 A 
ENDBRANCH  11  14
ENDBRANCH   9  10
BRANCH   8  25
HETATM   25  C14 UNK     1      19.640   6.477  33.493  1.00  0.00     0.252 C 
HETATM   26  O1  UNK     1      20.688   7.010  33.083  1.00  0.00    -0.268 OA
HETATM   27  N2  UNK     1      19.703   5.559  34.538  1.00  0.00    -0.366 N 
HETATM   28  H20 UNK     1      18.874   5.106  34.909  1.00  0.00     0.159 HD
HETATM   29  H21 UNK     1      20.590   5.312  34.964  1.00  0.00     0.159 HD
ENDBRANCH   8  25
BRANCH   2  30
HETATM   30  C2  UNK     1      14.730  11.201  33.764  1.00  0.00    -0.044 C 
HETATM   31  C10 UNK     1      14.128  10.727  35.104  1.00  0.00     0.015 C 
HETATM   32  C9  UNK     1      15.287  12.624  33.963  1.00  0.00     0.015 C 
BRANCH  30  33
HETATM   33  C6  UNK     1      13.593  11.199  32.703  1.00  0.00     0.004 C 
HETATM   34  C12 UNK     1      12.267  11.799  33.157  1.00  0.00     0.006 C 
ENDBRANCH  30  33
ENDBRANCH   2  30
TORSDOF 5
ENDMDL
MODEL 3
REMARK VINA RESULT:      -9.1     16.697     22.139
REMARK  5 active torsions:
REMARK  status: ('A' for Active; 'I' for Inactive)
REMARK    1  A    between atoms: C13_20  and  N1_6 
REMARK       I    between atoms: C15_22  and  N1_6 
REMARK       I    between atoms: C14_21  and  N2_7 
REMARK    2  A    between atoms: C1_8  and  C2_9 
REMARK    3  A    between atoms: C2_9  and  C6_13 
REMARK    4  A    between atoms: C11_18  and  C14_21 
REMARK    5  A    between atoms: C15_22  and  C16_23 
ROOT
HETATM    1  S1  UNK     1      19.308  -1.543  12.149  1.00  0.00    -0.075 SA
HETATM    2  C1  UNK     1      19.389  -4.720   9.542  1.00  0.00    -0.002 C 
HETATM    3  C3  UNK     1      20.498  -5.495  10.287  1.00  0.00     0.010 C 
HETATM    4  C4  UNK     1      19.422  -3.218   9.906  1.00  0.00     0.052 C 
HETATM    5  C5  UNK     1      20.326  -5.408  11.812  1.00  0.00     0.041 C 
HETATM    6  C7  UNK     1      19.595  -3.035  11.382  1.00  0.00    -0.008 A 
HETATM    7  C8  UNK     1      20.027  -4.011  12.259  1.00  0.00    -0.026 A 
HETATM    8  C11 UNK     1      20.113  -3.511  13.593  1.00  0.00     0.073 A 
HETATM    9  C13 UNK     1      19.752  -2.184  13.674  1.00  0.00     0.093 A 
ENDROOT
BRANCH   9  10
HETATM   10  N1  UNK     1      19.690  -1.327  14.740  1.00  0.00    -0.316 N 
HETATM   11  C15 UNK     1      18.780  -1.326  15.822  1.00  0.00     0.262 C 
HETATM   12  O2  UNK     1      17.856  -2.106  16.017  1.00  0.00    -0.267 OA
HETATM   13  H19 UNK     1      20.393  -0.593  14.720  1.00  0.00     0.169 HD
BRANCH  11  14
HETATM   14  C16 UNK     1      19.027  -0.238  16.792  1.00  0.00     0.108 A 
HETATM   15  C17 UNK     1      18.983  -0.579  18.086  1.00  0.00     0.037 A 
HETATM   16  C19 UNK     1      19.212   0.422  19.116  1.00  0.00    -0.001 A 
HETATM   17  C20 UNK     1      19.474   1.734  18.733  1.00  0.00     0.089 A 
HETATM   18  C21 UNK     1      19.177   0.111  20.478  1.00  0.00     0.014 A 
HETATM   19  O3  UNK     1      19.519   2.086  17.370  1.00  0.00    -0.274 OA
HETATM   20  C22 UNK     1      19.702   2.740  19.670  1.00  0.00     0.038 A 
HETATM   21  C18 UNK     1      19.305   1.151  16.362  1.00  0.00     0.304 A 
HETATM   22  O4  UNK     1      19.343   1.466  15.178  1.00  0.00    -0.259 OA
HETATM   23  C24 UNK     1      19.665   2.422  21.025  1.00  0.00     0.003 A 
HETATM   24  C23 UNK     1      19.403   1.110  21.428  1.00  0.00     0.001 A 
ENDBRANCH  11  14
ENDBRANCH   9  10
BRANCH   8  25
HETATM   25  C14 UNK     1      20.520  -4.272  14.747  1.00  0.00     0.252 C 
HETATM   26  O1  UNK     1      21.712  -4.433  15.070  1.00  0.00    -0.268 OA
HETATM   27  N2  UNK     1      19.516  -4.825  15.537  1.00  0.00    -0.366 N 
HETATM   28  H20 UNK     1      18.531  -4.712  15.316  1.00  0.00     0.159 HD
HETATM   29  H21 UNK     1      19.741  -5.364  16.367  1.00  0.00     0.159 HD
ENDBRANCH   8  25
BRANCH   2  30
HETATM   30  C2  UNK     1      19.517  -4.907   8.032  1.00  0.00    -0.044 C 
HETATM   31  C10 UNK     1      19.792  -3.536   7.379  1.00  0.00     0.015 C 
HETATM   32  C9  UNK     1      20.709  -5.834   7.725  1.00  0.00     0.015 C 
BRANCH  30  33
HETATM   33  C6  UNK     1      18.206  -5.473   7.416  1.00  0.00     0.004 C 
HETATM   34  C12 UNK     1      17.017  -5.564   8.365  1.00  0.00     0.006 C 
ENDBRANCH  30  33
ENDBRANCH   2  30
TORSDOF 5
ENDMDL
MODEL 4
REMARK VINA RESULT:      -9.0      5.149      8.133
REMARK  5 active torsions:
REMARK  status: ('A' for Active; 'I' for Inactive)
REMARK    1  A    between atoms: C13_20  and  N1_6 
REMARK       I    between atoms: C15_22  and  N1_6 
REMARK       I    between atoms: C14_21  and  N2_7 
REMARK    2  A    between atoms: C1_8  and  C2_9 
REMARK    3  A    between atoms: C2_9  and  C6_13 
REMARK    4  A    between atoms: C11_18  and  C14_21 
REMARK    5  A    between atoms: C15_22  and  C16_23 
ROOT
HETATM    1  S1  UNK     1      18.890   1.193  35.752  1.00  0.00    -0.075 SA
HETATM    2  C1  UNK     1      17.882   4.396  33.380  1.00  0.00    -0.002 C 
HETATM    3  C3  UNK     1      18.498   3.821  32.085  1.00  0.00     0.010 C 
HETATM    4  C4  UNK     1      18.501   3.731  34.631  1.00  0.00     0.052 C 
HETATM    5  C5  UNK     1      18.240   2.311  31.954  1.00  0.00     0.041 C 
HETATM    6  C7  UNK     1      18.601   2.249  34.448  1.00  0.00    -0.008 A 
HETATM    7  C8  UNK     1      18.509   1.589  33.237  1.00  0.00    -0.026 A 
HETATM    8  C11 UNK     1      18.674   0.181  33.400  1.00  0.00     0.073 A 
HETATM    9  C13 UNK     1      18.890  -0.169  34.715  1.00  0.00     0.093 A 
ENDROOT
BRANCH   9  10
HETATM   10  N1  UNK     1      19.093  -1.388  35.304  1.00  0.00    -0.316 N 
HETATM   11  C15 UNK     1      20.145  -2.308  35.093  1.00  0.00     0.262 C 
HETATM   12  O2  UNK     1      21.094  -2.189  34.328  1.00  0.00    -0.267 OA
HETATM   13  H19 UNK     1      18.369  -1.651  35.968  1.00  0.00     0.169 HD
BRANCH  11  14
HETATM   14  C16 UNK     1      20.030  -3.528  35.918  1.00  0.00     0.108 A 
HETATM   15  C17 UNK     1      20.024  -4.692  35.256  1.00  0.00     0.037 A 
HETATM   16  C19 UNK     1      19.914  -5.948  35.981  1.00  0.00    -0.001 A 
HETATM   17  C20 UNK     1      19.813  -5.917  37.369  1.00  0.00     0.089 A 
HETATM   18  C21 UNK     1      19.905  -7.185  35.332  1.00  0.00     0.014 A 
HETATM   19  O3  UNK     1      19.818  -4.689  38.059  1.00  0.00    -0.274 OA
HETATM   20  C22 UNK     1      19.704  -7.084  38.123  1.00  0.00     0.038 A 
HETATM   21  C18 UNK     1      19.923  -3.472  37.394  1.00  0.00     0.304 A 
HETATM   22  O4  UNK     1      19.926  -2.408  38.003  1.00  0.00    -0.259 OA
HETATM   23  C24 UNK     1      19.696  -8.313  37.467  1.00  0.00     0.003 A 
HETATM   24  C23 UNK     1      19.797  -8.363  36.075  1.00  0.00     0.001 A 
ENDBRANCH  11  14
ENDBRANCH   9  10
BRANCH   8  25
HETATM   25  C14 UNK     1      18.623  -0.795  32.340  1.00  0.00     0.252 C 
HETATM   26  O1  UNK     1      19.505  -0.897  31.467  1.00  0.00    -0.268 OA
HETATM   27  N2  UNK     1      17.539  -1.669  32.323  1.00  0.00    -0.366 N 
HETATM   28  H20 UNK     1      16.802  -1.626  33.020  1.00  0.00     0.159 HD
HETATM   29  H21 UNK     1      17.453  -2.381  31.606  1.00  0.00     0.159 HD
ENDBRANCH   8  25
BRANCH   2  30
HETATM   30  C2  UNK     1      18.055   5.911  33.437  1.00  0.00    -0.044 C 
HETATM   31  C10 UNK     1      17.973   6.480  32.004  1.00  0.00     0.015 C 
HETATM   32  C9  UNK     1      16.913   6.531  34.267  1.00  0.00     0.015 C 
BRANCH  30  33
HETATM   33  C6  UNK     1      19.439   6.305  34.026  1.00  0.00     0.004 C 
HETATM   34  C12 UNK     1      20.510   6.672  33.005  1.00  0.00     0.006 C 
ENDBRANCH  30  33
ENDBRANCH   2  30
TORSDOF 5
ENDMDL
MODEL 5
REMARK VINA RESULT:      -8.8      2.050      2.847
REMARK  5 active torsions:
REMARK  status: ('A' for Active; 'I' for Inactive)
REMARK    1  A    between atoms: C13_20  and  N1_6 
REMARK       I    between atoms: C15_22  and  N1_6 
REMARK       I    between atoms: C14_21  and  N2_7 
REMARK    2  A    between atoms: C1_8  and  C2_9 
REMARK    3  A    between atoms: C2_9  and  C6_13 
REMARK    4  A    between atoms: C11_18  and  C14_21 
REMARK    5  A    between atoms: C15_22  and  C16_23 
ROOT
HETATM    1  S1  UNK     1      17.901   8.616  33.680  1.00  0.00    -0.075 SA
HETATM    2  C1  UNK     1      15.793  12.019  34.613  1.00  0.00    -0.002 C 
HETATM    3  C3  UNK     1      14.710  11.824  33.529  1.00  0.00     0.010 C 
HETATM    4  C4  UNK     1      17.075  11.228  34.265  1.00  0.00     0.052 C 
HETATM    5  C5  UNK     1      14.295  10.350  33.399  1.00  0.00     0.041 C 
HETATM    6  C7  UNK     1      16.734   9.849  33.792  1.00  0.00    -0.008 A 
HETATM    7  C8  UNK     1      15.482   9.439  33.373  1.00  0.00    -0.026 A 
HETATM    8  C11 UNK     1      15.495   8.073  32.959  1.00  0.00     0.073 A 
HETATM    9  C13 UNK     1      16.746   7.507  33.073  1.00  0.00     0.093 A 
ENDROOT
BRANCH   9  10
HETATM   10  N1  UNK     1      17.196   6.245  32.793  1.00  0.00    -0.316 N 
HETATM   11  C15 UNK     1      17.993   5.811  31.708  1.00  0.00     0.262 C 
HETATM   12  O2  UNK     1      18.442   6.494  30.796  1.00  0.00    -0.267 OA
HETATM   13  H19 UNK     1      16.891   5.541  33.460  1.00  0.00     0.169 HD
BRANCH  11  14
HETATM   14  C16 UNK     1      18.282   4.362  31.739  1.00  0.00     0.108 A 
HETATM   15  C17 UNK     1      18.557   3.789  30.560  1.00  0.00     0.037 A 
HETATM   16  C19 UNK     1      18.854   2.368  30.487  1.00  0.00    -0.001 A 
HETATM   17  C20 UNK     1      18.846   1.617  31.660  1.00  0.00     0.089 A 
HETATM   18  C21 UNK     1      19.147   1.728  29.280  1.00  0.00     0.014 A 
HETATM   19  O3  UNK     1      18.556   2.226  32.896  1.00  0.00    -0.274 OA
HETATM   20  C22 UNK     1      19.122   0.251  31.659  1.00  0.00     0.038 A 
HETATM   21  C18 UNK     1      18.269   3.584  32.998  1.00  0.00     0.304 A 
HETATM   22  O4  UNK     1      18.016   4.105  34.078  1.00  0.00    -0.259 OA
HETATM   23  C24 UNK     1      19.414  -0.378  30.451  1.00  0.00     0.003 A 
HETATM   24  C23 UNK     1      19.426   0.359  29.264  1.00  0.00     0.001 A 
ENDBRANCH  11  14
ENDBRANCH   9  10
BRANCH   8  25
HETATM   25  C14 UNK     1      14.355   7.335  32.477  1.00  0.00     0.252 C 
HETATM   26  O1  UNK     1      14.265   6.907  31.311  1.00  0.00    -0.268 OA
HETATM   27  N2  UNK     1      13.327   7.080  33.381  1.00  0.00    -0.366 N 
HETATM   28  H20 UNK     1      13.362   7.403  34.343  1.00  0.00     0.159 HD
HETATM   29  H21 UNK     1      12.503   6.558  33.101  1.00  0.00     0.159 HD
ENDBRANCH   8  25
BRANCH   2  30
HETATM   30  C2  UNK     1      16.113  13.500  34.801  1.00  0.00    -0.044 C 
HETATM   31  C10 UNK     1      17.550  13.769  34.306  1.00  0.00     0.015 C 
HETATM   32  C9  UNK     1      15.145  14.349  33.954  1.00  0.00     0.015 C 
BRANCH  30  33
HETATM   33  C6  UNK     1      16.040  13.913  36.299  1.00  0.00     0.004 C 
HETATM   34  C12 UNK     1      14.898  13.297  37.098  1.00  0.00     0.006 C 
ENDBRANCH  30  33
ENDBRANCH   2  30
TORSDOF 5
ENDMDL
MODEL 6
REMARK VINA RESULT:      -8.8     16.372     22.368
REMARK  5 active torsions:
REMARK  status: ('A' for Active; 'I' for Inactive)
REMARK    1  A    between atoms: C13_20  and  N1_6 
REMARK       I    between atoms: C15_22  and  N1_6 
REMARK       I    between atoms: C14_21  and  N2_7 
REMARK    2  A    between atoms: C1_8  and  C2_9 
REMARK    3  A    between atoms: C2_9  and  C6_13 
REMARK    4  A    between atoms: C11_18  and  C14_21 
REMARK    5  A    between atoms: C15_22  and  C16_23 
ROOT
HETATM    1  S1  UNK     1      20.388  -4.538  14.761  1.00  0.00    -0.075 SA
HETATM    2  C1  UNK     1      21.102  -6.866  11.449  1.00  0.00    -0.002 C 
HETATM    3  C3  UNK     1      20.200  -6.049  10.497  1.00  0.00     0.010 C 
HETATM    4  C4  UNK     1      20.707  -6.630  12.925  1.00  0.00     0.052 C 
HETATM    5  C5  UNK     1      20.327  -4.539  10.750  1.00  0.00     0.041 C 
HETATM    6  C7  UNK     1      20.476  -5.174  13.185  1.00  0.00    -0.008 A 
HETATM    7  C8  UNK     1      20.278  -4.214  12.211  1.00  0.00    -0.026 A 
HETATM    8  C11 UNK     1      20.058  -2.927  12.787  1.00  0.00     0.073 A 
HETATM    9  C13 UNK     1      20.091  -2.961  14.164  1.00  0.00     0.093 A 
ENDROOT
BRANCH   9  10
HETATM   10  N1  UNK     1      19.932  -1.972  15.097  1.00  0.00    -0.316 N 
HETATM   11  C15 UNK     1      18.806  -1.690  15.904  1.00  0.00     0.262 C 
HETATM   12  O2  UNK     1      17.737  -2.288  15.924  1.00  0.00    -0.267 OA
HETATM   13  H19 UNK     1      20.741  -1.363  15.193  1.00  0.00     0.169 HD
BRANCH  11  14
HETATM   14  C16 UNK     1      19.006  -0.534  16.803  1.00  0.00     0.108 A 
HETATM   15  C17 UNK     1      18.998  -0.798  18.115  1.00  0.00     0.037 A 
HETATM   16  C19 UNK     1      19.186   0.274  19.080  1.00  0.00    -0.001 A 
HETATM   17  C20 UNK     1      19.372   1.573  18.615  1.00  0.00     0.089 A 
HETATM   18  C21 UNK     1      19.185   0.045  20.458  1.00  0.00     0.014 A 
HETATM   19  O3  UNK     1      19.379   1.843  17.233  1.00  0.00    -0.274 OA
HETATM   20  C22 UNK     1      19.557   2.645  19.486  1.00  0.00     0.038 A 
HETATM   21  C18 UNK     1      19.203   0.839  16.286  1.00  0.00     0.304 A 
HETATM   22  O4  UNK     1      19.209   1.084  15.085  1.00  0.00    -0.259 OA
HETATM   23  C24 UNK     1      19.555   2.407  20.859  1.00  0.00     0.003 A 
HETATM   24  C23 UNK     1      19.370   1.110  21.344  1.00  0.00     0.001 A 
ENDBRANCH  11  14
ENDBRANCH   9  10
BRANCH   8  25
HETATM   25  C14 UNK     1      19.830  -1.709  12.050  1.00  0.00     0.252 C 
HETATM   26  O1  UNK     1      18.743  -1.101  12.061  1.00  0.00    -0.268 OA
HETATM   27  N2  UNK     1      20.896  -1.193  11.317  1.00  0.00    -0.366 N 
HETATM   28  H20 UNK     1      21.801  -1.651  11.287  1.00  0.00     0.159 HD
HETATM   29  H21 UNK     1      20.797  -0.335  10.786  1.00  0.00     0.159 HD
ENDBRANCH   8  25
BRANCH   2  30
HETATM   30  C2  UNK     1      21.042  -8.353  11.110  1.00  0.00    -0.044 C 
HETATM   31  C10 UNK     1      20.251  -9.087  12.215  1.00  0.00     0.015 C 
HETATM   32  C9  UNK     1      20.299  -8.550   9.775  1.00  0.00     0.015 C 
BRANCH  30  33
HETATM   33  C6  UNK     1      22.464  -8.980  11.047  1.00  0.00     0.004 C 
HETATM   34  C12 UNK     1      23.581  -8.040  10.610  1.00  0.00     0.006 C 
ENDBRANCH  30  33
ENDBRANCH   2  30
TORSDOF 5
ENDMDL
MODEL 7
REMARK VINA RESULT:      -8.7      2.297      3.678
REMARK  5 active torsions:
REMARK  status: ('A' for Active; 'I' for Inactive)
REMARK    1  A    between atoms: C13_20  and  N1_6 
REMARK       I    between atoms: C15_22  and  N1_6 
REMARK       I    between atoms: C14_21  and  N2_7 
REMARK    2  A    between atoms: C1_8  and  C2_9 
REMARK    3  A    between atoms: C2_9  and  C6_13 
REMARK    4  A    between atoms: C11_18  and  C14_21 
REMARK    5  A    between atoms: C15_22  and  C16_23 
ROOT
HETATM    1  S1  UNK     1      18.027   8.412  33.784  1.00  0.00    -0.075 SA
HETATM    2  C1  UNK     1      16.129  11.990  34.489  1.00  0.00    -0.002 C 
HETATM    3  C3  UNK     1      15.060  11.809  33.389  1.00  0.00     0.010 C 
HETATM    4  C4  UNK     1      17.363  11.100  34.214  1.00  0.00     0.052 C 
HETATM    5  C5  UNK     1      14.551  10.361  33.322  1.00  0.00     0.041 C 
HETATM    6  C7  UNK     1      16.942   9.723  33.803  1.00  0.00    -0.008 A 
HETATM    7  C8  UNK     1      15.676   9.374  33.374  1.00  0.00    -0.026 A 
HETATM    8  C11 UNK     1      15.607   7.991  33.030  1.00  0.00     0.073 A 
HETATM    9  C13 UNK     1      16.814   7.351  33.205  1.00  0.00     0.093 A 
ENDROOT
BRANCH   9  10
HETATM   10  N1  UNK     1      17.186   6.049  33.001  1.00  0.00    -0.316 N 
HETATM   11  C15 UNK     1      18.143   5.534  32.097  1.00  0.00     0.262 C 
HETATM   12  O2  UNK     1      18.837   6.166  31.309  1.00  0.00    -0.267 OA
HETATM   13  H19 UNK     1      16.681   5.381  33.577  1.00  0.00     0.169 HD
BRANCH  11  14
HETATM   14  C16 UNK     1      18.275   4.064  32.160  1.00  0.00     0.108 A 
HETATM   15  C17 UNK     1      18.146   3.509  33.371  1.00  0.00     0.037 A 
HETATM   16  C19 UNK     1      18.261   2.069  33.535  1.00  0.00    -0.001 A 
HETATM   17  C20 UNK     1      18.508   1.282  32.414  1.00  0.00     0.089 A 
HETATM   18  C21 UNK     1      18.132   1.448  34.780  1.00  0.00     0.014 A 
HETATM   19  O3  UNK     1      18.643   1.871  31.142  1.00  0.00    -0.274 OA
HETATM   20  C22 UNK     1      18.629  -0.104  32.503  1.00  0.00     0.038 A 
HETATM   21  C18 UNK     1      18.538   3.245  30.954  1.00  0.00     0.304 A 
HETATM   22  O4  UNK     1      18.658   3.750  29.843  1.00  0.00    -0.259 OA
HETATM   23  C24 UNK     1      18.499  -0.714  33.748  1.00  0.00     0.003 A 
HETATM   24  C23 UNK     1      18.252   0.060  34.884  1.00  0.00     0.001 A 
ENDBRANCH  11  14
ENDBRANCH   9  10
BRANCH   8  25
HETATM   25  C14 UNK     1      14.431   7.304  32.557  1.00  0.00     0.252 C 
HETATM   26  O1  UNK     1      14.322   6.861  31.398  1.00  0.00    -0.268 OA
HETATM   27  N2  UNK     1      13.389   7.118  33.462  1.00  0.00    -0.366 N 
HETATM   28  H20 UNK     1      13.439   7.455  34.418  1.00  0.00     0.159 HD
HETATM   29  H21 UNK     1      12.540   6.634  33.189  1.00  0.00     0.159 HD
ENDBRANCH   8  25
BRANCH   2  30
HETATM   30  C2  UNK     1      16.542  13.455  34.609  1.00  0.00    -0.044 C 
HETATM   31  C10 UNK     1      15.828  14.269  33.510  1.00  0.00     0.015 C 
HETATM   32  C9  UNK     1      16.100  14.005  35.980  1.00  0.00     0.015 C 
BRANCH  30  33
HETATM   33  C6  UNK     1      18.075  13.633  34.413  1.00  0.00     0.004 C 
HETATM   34  C12 UNK     1      18.493  14.427  33.181  1.00  0.00     0.006 C 
ENDBRANCH  30  33
ENDBRANCH   2  30
TORSDOF 5
ENDMDL
MODEL 8
REMARK VINA RESULT:      -8.7     17.151     23.001
REMARK  5 active torsions:
REMARK  status: ('A' for Active; 'I' for Inactive)
REMARK    1  A    between atoms: C13_20  and  N1_6 
REMARK       I    between atoms: C15_22  and  N1_6 
REMARK       I    between atoms: C14_21  and  N2_7 
REMARK    2  A    between atoms: C1_8  and  C2_9 
REMARK    3  A    between atoms: C2_9  and  C6_13 
REMARK    4  A    between atoms: C11_18  and  C14_21 
REMARK    5  A    between atoms: C15_22  and  C16_23 
ROOT
HETATM    1  S1  UNK     1      19.417  -3.456  11.956  1.00  0.00    -0.075 SA
HETATM    2  C1  UNK     1      19.855  -7.122  10.150  1.00  0.00    -0.002 C 
HETATM    3  C3  UNK     1      21.021  -7.591  11.048  1.00  0.00     0.010 C 
HETATM    4  C4  UNK     1      19.734  -5.581  10.158  1.00  0.00     0.052 C 
HETATM    5  C5  UNK     1      20.814  -7.175  12.513  1.00  0.00     0.041 C 
HETATM    6  C7  UNK     1      19.862  -5.048  11.552  1.00  0.00    -0.008 A 
HETATM    7  C8  UNK     1      20.372  -5.749  12.628  1.00  0.00    -0.026 A 
HETATM    8  C11 UNK     1      20.385  -4.949  13.809  1.00  0.00     0.073 A 
HETATM    9  C13 UNK     1      19.894  -3.682  13.585  1.00  0.00     0.093 A 
ENDROOT
BRANCH   9  10
HETATM   10  N1  UNK     1      19.730  -2.613  14.425  1.00  0.00    -0.316 N 
HETATM   11  C15 UNK     1      18.758  -2.423  15.434  1.00  0.00     0.262 C 
HETATM   12  O2  UNK     1      17.861  -3.192  15.756  1.00  0.00    -0.267 OA
HETATM   13  H19 UNK     1      20.400  -1.863  14.273  1.00  0.00     0.169 HD
BRANCH  11  14
HETATM   14  C16 UNK     1      18.897  -1.134  16.143  1.00  0.00     0.108 A 
HETATM   15  C17 UNK     1      18.682  -1.159  17.464  1.00  0.00     0.037 A 
HETATM   16  C19 UNK     1      18.794   0.059  18.249  1.00  0.00    -0.001 A 
HETATM   17  C20 UNK     1      19.126   1.247  17.604  1.00  0.00     0.089 A 
HETATM   18  C21 UNK     1      18.579   0.079  19.630  1.00  0.00     0.014 A 
HETATM   19  O3  UNK     1      19.350   1.268  16.214  1.00  0.00    -0.274 OA
HETATM   20  C22 UNK     1      19.248   2.449  18.299  1.00  0.00     0.038 A 
HETATM   21  C18 UNK     1      19.251   0.118  15.437  1.00  0.00     0.304 A 
HETATM   22  O4  UNK     1      19.446   0.146  14.226  1.00  0.00    -0.259 OA
HETATM   23  C24 UNK     1      19.033   2.459  19.675  1.00  0.00     0.003 A 
HETATM   24  C23 UNK     1      18.699   1.277  20.339  1.00  0.00     0.001 A 
ENDBRANCH  11  14
ENDBRANCH   9  10
BRANCH   8  25
HETATM   25  C14 UNK     1      20.844  -5.381  15.106  1.00  0.00     0.252 C 
HETATM   26  O1  UNK     1      22.042  -5.361  15.445  1.00  0.00    -0.268 OA
HETATM   27  N2  UNK     1      19.882  -5.815  16.015  1.00  0.00    -0.366 N 
HETATM   28  H20 UNK     1      18.894  -5.840  15.784  1.00  0.00     0.159 HD
HETATM   29  H21 UNK     1      20.145  -6.123  16.945  1.00  0.00     0.159 HD
ENDBRANCH   8  25
BRANCH   2  30
HETATM   30  C2  UNK     1      20.027  -7.638   8.724  1.00  0.00    -0.044 C 
HETATM   31  C10 UNK     1      20.633  -6.515   7.855  1.00  0.00     0.015 C 
HETATM   32  C9  UNK     1      21.004  -8.830   8.719  1.00  0.00     0.015 C 
BRANCH  30  33
HETATM   33  C6  UNK     1      18.663  -8.042   8.095  1.00  0.00     0.004 C 
HETATM   34  C12 UNK     1      18.078  -7.050   7.096  1.00  0.00     0.006 C 
ENDBRANCH  30  33
ENDBRANCH   2  30
TORSDOF 5
ENDMDL
MODEL 9
REMARK VINA RESULT:      -8.6     22.669     24.680
REMARK  5 active torsions:
REMARK  status: ('A' for Active; 'I' for Inactive)
REMARK    1  A    between atoms: C13_20  and  N1_6 
REMARK       I    between atoms: C15_22  and  N1_6 
REMARK       I    between atoms: C14_21  and  N2_7 
REMARK    2  A    between atoms: C1_8  and  C2_9 
REMARK    3  A    between atoms: C2_9  and  C6_13 
REMARK    4  A    between atoms: C11_18  and  C14_21 
REMARK    5  A    between atoms: C15_22  and  C16_23 
ROOT
HETATM    1  S1  UNK     1      14.951  10.018   8.555  1.00  0.00    -0.075 SA
HETATM    2  C1  UNK     1      12.009   7.198   9.093  1.00  0.00    -0.002 C 
HETATM    3  C3  UNK     1      12.960   5.982   9.056  1.00  0.00     0.010 C 
HETATM    4  C4  UNK     1      12.651   8.426   8.407  1.00  0.00     0.052 C 
HETATM    5  C5  UNK     1      14.274   6.265   9.802  1.00  0.00     0.041 C 
HETATM    6  C7  UNK     1      14.078   8.584   8.832  1.00  0.00    -0.008 A 
HETATM    7  C8  UNK     1      14.837   7.606   9.445  1.00  0.00    -0.026 A 
HETATM    8  C11 UNK     1      16.166   8.062   9.695  1.00  0.00     0.073 A 
HETATM    9  C13 UNK     1      16.363   9.354   9.261  1.00  0.00     0.093 A 
ENDROOT
BRANCH   9  10
HETATM   10  N1  UNK     1      17.465  10.165   9.304  1.00  0.00    -0.316 N 
HETATM   11  C15 UNK     1      17.728  11.256  10.163  1.00  0.00     0.262 C 
HETATM   12  O2  UNK     1      17.006  11.692  11.052  1.00  0.00    -0.267 OA
HETATM   13  H19 UNK     1      18.168   9.941   8.604  1.00  0.00     0.169 HD
BRANCH  11  14
HETATM   14  C16 UNK     1      19.036  11.896   9.913  1.00  0.00     0.108 A 
HETATM   15  C17 UNK     1      19.957  11.757  10.874  1.00  0.00     0.037 A 
HETATM   16  C19 UNK     1      21.274  12.352  10.720  1.00  0.00    -0.001 A 
HETATM   17  C20 UNK     1      21.558  13.067   9.559  1.00  0.00     0.089 A 
HETATM   18  C21 UNK     1      22.266  12.232  11.697  1.00  0.00     0.014 A 
HETATM   19  O3  UNK     1      20.585  13.210   8.552  1.00  0.00    -0.274 OA
HETATM   20  C22 UNK     1      22.801  13.662   9.350  1.00  0.00     0.038 A 
HETATM   21  C18 UNK     1      19.316  12.652   8.671  1.00  0.00     0.304 A 
HETATM   22  O4  UNK     1      18.474  12.782   7.789  1.00  0.00    -0.259 OA
HETATM   23  C24 UNK     1      23.783  13.537  10.329  1.00  0.00     0.003 A 
HETATM   24  C23 UNK     1      23.517  12.823  11.500  1.00  0.00     0.001 A 
ENDBRANCH  11  14
ENDBRANCH   9  10
BRANCH   8  25
HETATM   25  C14 UNK     1      17.208   7.294  10.331  1.00  0.00     0.252 C 
HETATM   26  O1  UNK     1      17.417   7.318  11.559  1.00  0.00    -0.268 OA
HETATM   27  N2  UNK     1      17.990   6.477   9.520  1.00  0.00    -0.366 N 
HETATM   28  H20 UNK     1      17.848   6.420   8.516  1.00  0.00     0.159 HD
HETATM   29  H21 UNK     1      18.732   5.907   9.912  1.00  0.00     0.159 HD
ENDBRANCH   8  25
BRANCH   2  30
HETATM   30  C2  UNK     1      10.670   6.860   8.441  1.00  0.00    -0.044 C 
HETATM   31  C10 UNK     1      10.270   5.421   8.835  1.00  0.00     0.015 C 
HETATM   32  C9  UNK     1       9.584   7.821   8.963  1.00  0.00     0.015 C 
BRANCH  30  33
HETATM   33  C6  UNK     1      10.760   6.920   6.890  1.00  0.00     0.004 C 
HETATM   34  C12 UNK     1       9.678   6.156   6.137  1.00  0.00     0.006 C 
ENDBRANCH  30  33
ENDBRANCH   2  30
TORSDOF 5
ENDMDL
MODEL 10
REMARK VINA RESULT:      -8.6     18.502     23.671
REMARK  5 active torsions:
REMARK  status: ('A' for Active; 'I' for Inactive)
REMARK    1  A    between atoms: C13_20  and  N1_6 
REMARK       I    between atoms: C15_22  and  N1_6 
REMARK       I    between atoms: C14_21  and  N2_7 
REMARK    2  A    between atoms: C1_8  and  C2_9 
REMARK    3  A    between atoms: C2_9  and  C6_13 
REMARK    4  A    between atoms: C11_18  and  C14_21 
REMARK    5  A    between atoms: C15_22  and  C16_23 
ROOT
HETATM    1  S1  UNK     1      32.973  -9.979  31.386  1.00  0.00    -0.075 SA
HETATM    2  C1  UNK     1      29.726  -7.772  30.169  1.00  0.00    -0.002 C 
HETATM    3  C3  UNK     1      30.502  -6.448  29.998  1.00  0.00     0.010 C 
HETATM    4  C4  UNK     1      30.477  -8.737  31.115  1.00  0.00     0.052 C 
HETATM    5  C5  UNK     1      31.890  -6.678  29.380  1.00  0.00     0.041 C 
HETATM    6  C7  UNK     1      31.938  -8.767  30.789  1.00  0.00    -0.008 A 
HETATM    7  C8  UNK     1      32.601  -7.828  30.023  1.00  0.00    -0.026 A 
HETATM    8  C11 UNK     1      33.993  -8.127  29.925  1.00  0.00     0.073 A 
HETATM    9  C13 UNK     1      34.329  -9.268  30.619  1.00  0.00     0.093 A 
ENDROOT
BRANCH   9  10
HETATM   10  N1  UNK     1      35.531  -9.904  30.786  1.00  0.00    -0.316 N 
HETATM   11  C15 UNK     1      36.675  -9.461  31.488  1.00  0.00     0.262 C 
HETATM   12  O2  UNK     1      36.813  -8.405  32.094  1.00  0.00    -0.267 OA
HETATM   13  H19 UNK     1      35.588 -10.806  30.321  1.00  0.00     0.169 HD
BRANCH  11  14
HETATM   14  C16 UNK     1      37.793 -10.427  31.452  1.00  0.00     0.108 A 
HETATM   15  C17 UNK     1      38.257 -10.840  32.637  1.00  0.00     0.037 A 
HETATM   16  C19 UNK     1      39.356 -11.789  32.705  1.00  0.00    -0.001 A 
HETATM   17  C20 UNK     1      39.915 -12.257  31.519  1.00  0.00     0.089 A 
HETATM   18  C21 UNK     1      39.872 -12.248  33.920  1.00  0.00     0.014 A 
HETATM   19  O3  UNK     1      39.423 -11.818  30.275  1.00  0.00    -0.274 OA
HETATM   20  C22 UNK     1      40.971 -13.167  31.514  1.00  0.00     0.038 A 
HETATM   21  C18 UNK     1      38.372 -10.911  30.178  1.00  0.00     0.304 A 
HETATM   22  O4  UNK     1      37.951 -10.533  29.090  1.00  0.00    -0.259 OA
HETATM   23  C24 UNK     1      41.478 -13.619  32.730  1.00  0.00     0.003 A 
HETATM   24  C23 UNK     1      40.930 -13.160  33.930  1.00  0.00     0.001 A 
ENDBRANCH  11  14
ENDBRANCH   9  10
BRANCH   8  25
HETATM   25  C14 UNK     1      34.964  -7.355  29.190  1.00  0.00     0.252 C 
HETATM   26  O1  UNK     1      35.232  -7.563  27.992  1.00  0.00    -0.268 OA
HETATM   27  N2  UNK     1      35.604  -6.319  29.865  1.00  0.00    -0.366 N 
HETATM   28  H20 UNK     1      35.410  -6.109  30.839  1.00  0.00     0.159 HD
HETATM   29  H21 UNK     1      36.291  -5.737  29.397  1.00  0.00     0.159 HD
ENDBRANCH   8  25
BRANCH   2  30
HETATM   30  C2  UNK     1      28.312  -7.511  30.683  1.00  0.00    -0.044 C 
HETATM   31  C10 UNK     1      27.831  -6.143  30.152  1.00  0.00     0.015 C 
HETATM   32  C9  UNK     1      27.359  -8.597  30.148  1.00  0.00     0.015 C 
BRANCH  30  33
HETATM   33  C6  UNK     1      28.271  -7.458  32.236  1.00  0.00     0.004 C 
HETATM   34  C12 UNK     1      27.990  -6.088  32.843  1.00  0.00     0.006 C 
ENDBRANCH  30  33
ENDBRANCH   2  30
TORSDOF 5
ENDMDL
