MODEL 1
REMARK VINA RESULT:      -8.3      0.000      0.000
REMARK  5 active torsions:
REMARK  status: ('A' for Active; 'I' for Inactive)
REMARK    1  A    between atoms: C2_5  and  O1_1 
REMARK    2  A    between atoms: C15_18  and  O3_3 
REMARK    3  A    between atoms: C1_4  and  C4_7 
REMARK    4  A    between atoms: C3_6  and  C6_9 
REMARK    5  A    between atoms: C6_9  and  C7_10 
ROOT
HETATM    1  O2  UNK     1      18.062   2.445  28.244  1.00  0.00    -0.288 OA
HETATM    2  C6  UNK     1      18.425   2.121  29.385  1.00  0.00     0.182 C 
ENDROOT
BRANCH   2   3
HETATM    3  C3  UNK     1      19.053   0.833  29.628  1.00  0.00     0.014 A 
HETATM    4  C10 UNK     1      19.430   0.026  28.555  1.00  0.00     0.018 A 
HETATM    5  C14 UNK     1      20.033  -1.210  28.788  1.00  0.00     0.037 A 
HETATM    6  C15 UNK     1      20.261  -1.639  30.095  1.00  0.00     0.065 A 
HETATM    7  C13 UNK     1      19.885  -0.832  31.169  1.00  0.00     0.037 A 
HETATM    8  C9  UNK     1      19.281   0.403  30.936  1.00  0.00     0.018 A 
BRANCH   6   9
HETATM    9  O3  UNK     1      20.851  -2.844  30.324  1.00  0.00    -0.361 OA
HETATM   10  H14 UNK     1      20.217  -3.550  30.113  1.00  0.00     0.217 HD
ENDBRANCH   6   9
ENDBRANCH   2   3
BRANCH   2  11
HETATM   11  C7  UNK     1      18.250   3.067  30.540  1.00  0.00     0.056 C 
HETATM   12  C4  UNK     1      18.942   4.215  30.592  1.00  0.00     0.018 C 
BRANCH  12  13
HETATM   13  C1  UNK     1      18.840   5.153  31.671  1.00  0.00    -0.003 A 
HETATM   14  C2  UNK     1      19.904   6.007  32.017  1.00  0.00     0.078 A 
HETATM   15  C8  UNK     1      19.780   6.911  33.071  1.00  0.00     0.037 A 
HETATM   16  C12 UNK     1      18.592   6.976  33.799  1.00  0.00     0.003 A 
HETATM   17  C11 UNK     1      17.527   6.137  33.472  1.00  0.00     0.001 A 
HETATM   18  C5  UNK     1      17.651   5.233  32.416  1.00  0.00     0.014 A 
BRANCH  14  19
HETATM   19  O1  UNK     1      21.076   5.963  31.322  1.00  0.00    -0.355 OA
HETATM   20  C16 UNK     1      22.273   5.815  32.081  1.00  0.00     0.210 C 
ENDBRANCH  14  19
ENDBRANCH  12  13
ENDBRANCH   2  11
TORSDOF 5
ENDMDL
MODEL 2
REMARK VINA RESULT:      -8.3      1.239      2.443
REMARK  5 active torsions:
REMARK  status: ('A' for Active; 'I' for Inactive)
REMARK    1  A    between atoms: C2_5  and  O1_1 
REMARK    2  A    between atoms: C15_18  and  O3_3 
REMARK    3  A    between atoms: C1_4  and  C4_7 
REMARK    4  A    between atoms: C3_6  and  C6_9 
REMARK    5  A    between atoms: C6_9  and  C7_10 
ROOT
HETATM    1  O2  UNK     1      17.974   2.775  28.635  1.00  0.00    -0.288 OA
HETATM    2  C6  UNK     1      18.574   2.405  29.656  1.00  0.00     0.182 C 
ENDROOT
BRANCH   2   3
HETATM    3  C3  UNK     1      19.139   1.068  29.745  1.00  0.00     0.014 A 
HETATM    4  C10 UNK     1      19.496   0.543  30.986  1.00  0.00     0.018 A 
HETATM    5  C14 UNK     1      20.037  -0.740  31.072  1.00  0.00     0.037 A 
HETATM    6  C15 UNK     1      20.220  -1.498  29.916  1.00  0.00     0.065 A 
HETATM    7  C13 UNK     1      19.863  -0.974  28.674  1.00  0.00     0.037 A 
HETATM    8  C9  UNK     1      19.322   0.309  28.588  1.00  0.00     0.018 A 
BRANCH   6   9
HETATM    9  O3  UNK     1      20.746  -2.751  29.999  1.00  0.00    -0.361 OA
HETATM   10  H14 UNK     1      20.412  -3.283  29.257  1.00  0.00     0.217 HD
ENDBRANCH   6   9
ENDBRANCH   2   3
BRANCH   2  11
HETATM   11  C7  UNK     1      18.759   3.344  30.816  1.00  0.00     0.056 C 
HETATM   12  C4  UNK     1      18.943   4.656  30.608  1.00  0.00     0.018 C 
BRANCH  12  13
HETATM   13  C1  UNK     1      19.145   5.604  31.664  1.00  0.00    -0.003 A 
HETATM   14  C2  UNK     1      18.067   6.190  32.353  1.00  0.00     0.078 A 
HETATM   15  C8  UNK     1      18.289   7.111  33.377  1.00  0.00     0.037 A 
HETATM   16  C12 UNK     1      19.592   7.461  33.729  1.00  0.00     0.003 A 
HETATM   17  C11 UNK     1      20.674   6.891  33.058  1.00  0.00     0.001 A 
HETATM   18  C5  UNK     1      20.451   5.970  32.034  1.00  0.00     0.014 A 
BRANCH  14  19
HETATM   19  O1  UNK     1      16.783   5.866  32.028  1.00  0.00    -0.355 OA
HETATM   20  C16 UNK     1      15.790   6.865  32.239  1.00  0.00     0.210 C 
ENDBRANCH  14  19
ENDBRANCH  12  13
ENDBRANCH   2  11
TORSDOF 5
ENDMDL
MODEL 3
REMARK VINA RESULT:      -7.9      1.556      2.314
REMARK  5 active torsions:
REMARK  status: ('A' for Active; 'I' for Inactive)
REMARK    1  A    between atoms: C2_5  and  O1_1 
REMARK    2  A    between atoms: C15_18  and  O3_3 
REMARK    3  A    between atoms: C1_4  and  C4_7 
REMARK    4  A    between atoms: C3_6  and  C6_9 
REMARK    5  A    between atoms: C6_9  and  C7_10 
ROOT
HETATM    1  O2  UNK     1      17.911   2.076  28.115  1.00  0.00    -0.288 OA
HETATM    2  C6  UNK     1      18.612   1.963  29.132  1.00  0.00     0.182 C 
ENDROOT
BRANCH   2   3
HETATM    3  C3  UNK     1      19.184   0.678  29.502  1.00  0.00     0.014 A 
HETATM    4  C10 UNK     1      19.333   0.342  30.847  1.00  0.00     0.018 A 
HETATM    5  C14 UNK     1      19.881  -0.890  31.203  1.00  0.00     0.037 A 
HETATM    6  C15 UNK     1      20.280  -1.787  30.213  1.00  0.00     0.065 A 
HETATM    7  C13 UNK     1      20.132  -1.453  28.867  1.00  0.00     0.037 A 
HETATM    8  C9  UNK     1      19.584  -0.220  28.512  1.00  0.00     0.018 A 
BRANCH   6   9
HETATM    9  O3  UNK     1      20.814  -2.991  30.559  1.00  0.00    -0.361 OA
HETATM   10  H14 UNK     1      20.480  -3.671  29.950  1.00  0.00     0.217 HD
ENDBRANCH   6   9
ENDBRANCH   2   3
BRANCH   2  11
HETATM   11  C7  UNK     1      18.913   3.160  29.991  1.00  0.00     0.056 C 
HETATM   12  C4  UNK     1      18.209   3.390  31.109  1.00  0.00     0.018 C 
BRANCH  12  13
HETATM   13  C1  UNK     1      18.427   4.519  31.964  1.00  0.00    -0.003 A 
HETATM   14  C2  UNK     1      18.216   4.453  33.353  1.00  0.00     0.078 A 
HETATM   15  C8  UNK     1      18.435   5.566  34.164  1.00  0.00     0.037 A 
HETATM   16  C12 UNK     1      18.868   6.765  33.599  1.00  0.00     0.003 A 
HETATM   17  C11 UNK     1      19.083   6.851  32.223  1.00  0.00     0.001 A 
HETATM   18  C5  UNK     1      18.864   5.737  31.413  1.00  0.00     0.014 A 
BRANCH  14  19
HETATM   19  O1  UNK     1      17.792   3.292  33.930  1.00  0.00    -0.355 OA
HETATM   20  C16 UNK     1      18.623   2.733  34.945  1.00  0.00     0.210 C 
ENDBRANCH  14  19
ENDBRANCH  12  13
ENDBRANCH   2  11
TORSDOF 5
ENDMDL
MODEL 4
REMARK VINA RESULT:      -7.7      1.906      6.923
REMARK  5 active torsions:
REMARK  status: ('A' for Active; 'I' for Inactive)
REMARK    1  A    between atoms: C2_5  and  O1_1 
REMARK    2  A    between atoms: C15_18  and  O3_3 
REMARK    3  A    between atoms: C1_4  and  C4_7 
REMARK    4  A    between atoms: C3_6  and  C6_9 
REMARK    5  A    between atoms: C6_9  and  C7_10 
ROOT
HETATM    1  O2  UNK     1      18.321   5.312  29.393  1.00  0.00    -0.288 OA
HETATM    2  C6  UNK     1      18.856   4.766  30.369  1.00  0.00     0.182 C 
ENDROOT
BRANCH   2   3
HETATM    3  C3  UNK     1      18.903   5.431  31.662  1.00  0.00     0.014 A 
HETATM    4  C10 UNK     1      17.816   5.343  32.531  1.00  0.00     0.018 A 
HETATM    5  C14 UNK     1      17.860   5.981  33.771  1.00  0.00     0.037 A 
HETATM    6  C15 UNK     1      18.992   6.705  34.142  1.00  0.00     0.065 A 
HETATM    7  C13 UNK     1      20.079   6.794  33.273  1.00  0.00     0.037 A 
HETATM    8  C9  UNK     1      20.035   6.157  32.033  1.00  0.00     0.018 A 
BRANCH   6   9
HETATM    9  O3  UNK     1      19.036   7.327  35.352  1.00  0.00    -0.361 OA
HETATM   10  H14 UNK     1      18.351   8.016  35.378  1.00  0.00     0.217 HD
ENDBRANCH   6   9
ENDBRANCH   2   3
BRANCH   2  11
HETATM   11  C7  UNK     1      19.445   3.387  30.247  1.00  0.00     0.056 C 
HETATM   12  C4  UNK     1      18.729   2.307  30.593  1.00  0.00     0.018 C 
BRANCH  12  13
HETATM   13  C1  UNK     1      19.232   0.968  30.521  1.00  0.00    -0.003 A 
HETATM   14  C2  UNK     1      19.198   0.100  31.628  1.00  0.00     0.078 A 
HETATM   15  C8  UNK     1      19.695  -1.200  31.534  1.00  0.00     0.037 A 
HETATM   16  C12 UNK     1      20.234  -1.654  30.331  1.00  0.00     0.003 A 
HETATM   17  C11 UNK     1      20.277  -0.809  29.222  1.00  0.00     0.001 A 
HETATM   18  C5  UNK     1      19.780   0.491  29.317  1.00  0.00     0.014 A 
BRANCH  14  19
HETATM   19  O1  UNK     1      18.676   0.520  32.816  1.00  0.00    -0.355 OA
HETATM   20  C16 UNK     1      18.436  -0.477  33.806  1.00  0.00     0.210 C 
ENDBRANCH  14  19
ENDBRANCH  12  13
ENDBRANCH   2  11
TORSDOF 5
ENDMDL
MODEL 5
REMARK VINA RESULT:      -7.4      2.279      3.457
REMARK  5 active torsions:
REMARK  status: ('A' for Active; 'I' for Inactive)
REMARK    1  A    between atoms: C2_5  and  O1_1 
REMARK    2  A    between atoms: C15_18  and  O3_3 
REMARK    3  A    between atoms: C1_4  and  C4_7 
REMARK    4  A    between atoms: C3_6  and  C6_9 
REMARK    5  A    between atoms: C6_9  and  C7_10 
ROOT
HETATM    1  O2  UNK     1      17.693   2.106  33.403  1.00  0.00    -0.288 OA
HETATM    2  C6  UNK     1      18.145   2.686  32.404  1.00  0.00     0.182 C 
ENDROOT
BRANCH   2   3
HETATM    3  C3  UNK     1      18.478   1.945  31.199  1.00  0.00     0.014 A 
HETATM    4  C10 UNK     1      17.971   2.354  29.965  1.00  0.00     0.018 A 
HETATM    5  C14 UNK     1      18.291   1.643  28.808  1.00  0.00     0.037 A 
HETATM    6  C15 UNK     1      19.118   0.523  28.885  1.00  0.00     0.065 A 
HETATM    7  C13 UNK     1      19.626   0.113  30.118  1.00  0.00     0.037 A 
HETATM    8  C9  UNK     1      19.305   0.824  31.274  1.00  0.00     0.018 A 
BRANCH   6   9
HETATM    9  O3  UNK     1      19.431  -0.171  27.757  1.00  0.00    -0.361 OA
HETATM   10  H14 UNK     1      20.247  -0.677  27.914  1.00  0.00     0.217 HD
ENDBRANCH   6   9
ENDBRANCH   2   3
BRANCH   2  11
HETATM   11  C7  UNK     1      18.332   4.179  32.407  1.00  0.00     0.056 C 
HETATM   12  C4  UNK     1      18.127   4.889  33.526  1.00  0.00     0.018 C 
BRANCH  12  13
HETATM   13  C1  UNK     1      18.266   6.314  33.596  1.00  0.00    -0.003 A 
HETATM   14  C2  UNK     1      17.232   7.182  33.202  1.00  0.00     0.078 A 
HETATM   15  C8  UNK     1      17.392   8.566  33.279  1.00  0.00     0.037 A 
HETATM   16  C12 UNK     1      18.589   9.103  33.751  1.00  0.00     0.003 A 
HETATM   17  C11 UNK     1      19.626   8.259  34.146  1.00  0.00     0.001 A 
HETATM   18  C5  UNK     1      19.465   6.875  34.069  1.00  0.00     0.014 A 
BRANCH  14  19
HETATM   19  O1  UNK     1      16.052   6.682  32.737  1.00  0.00    -0.355 OA
HETATM   20  C16 UNK     1      15.287   7.522  31.876  1.00  0.00     0.210 C 
ENDBRANCH  14  19
ENDBRANCH  12  13
ENDBRANCH   2  11
TORSDOF 5
ENDMDL
MODEL 6
REMARK VINA RESULT:      -7.4     12.127     16.099
REMARK  5 active torsions:
REMARK  status: ('A' for Active; 'I' for Inactive)
REMARK    1  A    between atoms: C2_5  and  O1_1 
REMARK    2  A    between atoms: C15_18  and  O3_3 
REMARK    3  A    between atoms: C1_4  and  C4_7 
REMARK    4  A    between atoms: C3_6  and  C6_9 
REMARK    5  A    between atoms: C6_9  and  C7_10 
ROOT
HETATM    1  O2  UNK     1      19.155   0.679  15.719  1.00  0.00    -0.288 OA
HETATM    2  C6  UNK     1      19.054  -0.001  16.752  1.00  0.00     0.182 C 
ENDROOT
BRANCH   2   3
HETATM    3  C3  UNK     1      19.052   0.630  18.062  1.00  0.00     0.014 A 
HETATM    4  C10 UNK     1      19.040  -0.155  19.215  1.00  0.00     0.018 A 
HETATM    5  C14 UNK     1      19.039   0.450  20.472  1.00  0.00     0.037 A 
HETATM    6  C15 UNK     1      19.052   1.841  20.576  1.00  0.00     0.065 A 
HETATM    7  C13 UNK     1      19.064   2.627  19.424  1.00  0.00     0.037 A 
HETATM    8  C9  UNK     1      19.065   2.021  18.167  1.00  0.00     0.018 A 
BRANCH   6   9
HETATM    9  O3  UNK     1      19.052   2.432  21.802  1.00  0.00    -0.361 OA
HETATM   10  H14 UNK     1      18.871   3.381  21.694  1.00  0.00     0.217 HD
ENDBRANCH   6   9
ENDBRANCH   2   3
BRANCH   2  11
HETATM   11  C7  UNK     1      18.899  -1.495  16.672  1.00  0.00     0.056 C 
HETATM   12  C4  UNK     1      19.225  -2.154  15.550  1.00  0.00     0.018 C 
BRANCH  12  13
HETATM   13  C1  UNK     1      19.085  -3.572  15.396  1.00  0.00    -0.003 A 
HETATM   14  C2  UNK     1      20.195  -4.409  15.175  1.00  0.00     0.078 A 
HETATM   15  C8  UNK     1      20.033  -5.786  15.028  1.00  0.00     0.037 A 
HETATM   16  C12 UNK     1      18.759  -6.350  15.099  1.00  0.00     0.003 A 
HETATM   17  C11 UNK     1      17.647  -5.537  15.318  1.00  0.00     0.001 A 
HETATM   18  C5  UNK     1      17.810  -4.159  15.465  1.00  0.00     0.014 A 
BRANCH  14  19
HETATM   19  O1  UNK     1      21.450  -3.883  15.100  1.00  0.00    -0.355 OA
HETATM   20  C16 UNK     1      22.319  -4.120  16.205  1.00  0.00     0.210 C 
ENDBRANCH  14  19
ENDBRANCH  12  13
ENDBRANCH   2  11
TORSDOF 5
ENDMDL
MODEL 7
REMARK VINA RESULT:      -7.4      7.132     10.989
REMARK  5 active torsions:
REMARK  status: ('A' for Active; 'I' for Inactive)
REMARK    1  A    between atoms: C2_5  and  O1_1 
REMARK    2  A    between atoms: C15_18  and  O3_3 
REMARK    3  A    between atoms: C1_4  and  C4_7 
REMARK    4  A    between atoms: C3_6  and  C6_9 
REMARK    5  A    between atoms: C6_9  and  C7_10 
ROOT
HETATM    1  O2  UNK     1      21.554  -1.954  35.639  1.00  0.00    -0.288 OA
HETATM    2  C6  UNK     1      20.447  -2.324  36.059  1.00  0.00     0.182 C 
ENDROOT
BRANCH   2   3
HETATM    3  C3  UNK     1      19.234  -1.616  35.682  1.00  0.00     0.014 A 
HETATM    4  C10 UNK     1      18.277  -1.309  36.649  1.00  0.00     0.018 A 
HETATM    5  C14 UNK     1      17.112  -0.630  36.288  1.00  0.00     0.037 A 
HETATM    6  C15 UNK     1      16.907  -0.258  34.960  1.00  0.00     0.065 A 
HETATM    7  C13 UNK     1      17.863  -0.564  33.992  1.00  0.00     0.037 A 
HETATM    8  C9  UNK     1      19.027  -1.244  34.353  1.00  0.00     0.018 A 
BRANCH   6   9
HETATM    9  O3  UNK     1      15.772   0.406  34.607  1.00  0.00    -0.361 OA
HETATM   10  H14 UNK     1      15.465   0.071  33.747  1.00  0.00     0.217 HD
ENDBRANCH   6   9
ENDBRANCH   2   3
BRANCH   2  11
HETATM   11  C7  UNK     1      20.330  -3.533  36.945  1.00  0.00     0.056 C 
HETATM   12  C4  UNK     1      19.959  -4.718  36.435  1.00  0.00     0.018 C 
BRANCH  12  13
HETATM   13  C1  UNK     1      19.808  -5.906  37.223  1.00  0.00    -0.003 A 
HETATM   14  C2  UNK     1      19.155  -7.049  36.726  1.00  0.00     0.078 A 
HETATM   15  C8  UNK     1      19.020  -8.193  37.512  1.00  0.00     0.037 A 
HETATM   16  C12 UNK     1      19.536  -8.213  38.808  1.00  0.00     0.003 A 
HETATM   17  C11 UNK     1      20.186  -7.090  39.318  1.00  0.00     0.001 A 
HETATM   18  C5  UNK     1      20.321  -5.946  38.531  1.00  0.00     0.014 A 
BRANCH  14  19
HETATM   19  O1  UNK     1      18.642  -7.055  35.463  1.00  0.00    -0.355 OA
HETATM   20  C16 UNK     1      17.273  -7.429  35.322  1.00  0.00     0.210 C 
ENDBRANCH  14  19
ENDBRANCH  12  13
ENDBRANCH   2  11
TORSDOF 5
ENDMDL
MODEL 8
REMARK VINA RESULT:      -7.4      1.831      6.767
REMARK  5 active torsions:
REMARK  status: ('A' for Active; 'I' for Inactive)
REMARK    1  A    between atoms: C2_5  and  O1_1 
REMARK    2  A    between atoms: C15_18  and  O3_3 
REMARK    3  A    between atoms: C1_4  and  C4_7 
REMARK    4  A    between atoms: C3_6  and  C6_9 
REMARK    5  A    between atoms: C6_9  and  C7_10 
ROOT
HETATM    1  O2  UNK     1      17.939   2.525  28.282  1.00  0.00    -0.288 OA
HETATM    2  C6  UNK     1      18.620   2.507  29.319  1.00  0.00     0.182 C 
ENDROOT
BRANCH   2   3
HETATM    3  C3  UNK     1      18.693   3.676  30.181  1.00  0.00     0.014 A 
HETATM    4  C10 UNK     1      19.247   4.862  29.702  1.00  0.00     0.018 A 
HETATM    5  C14 UNK     1      19.318   5.984  30.529  1.00  0.00     0.037 A 
HETATM    6  C15 UNK     1      18.832   5.918  31.835  1.00  0.00     0.065 A 
HETATM    7  C13 UNK     1      18.278   4.732  32.315  1.00  0.00     0.037 A 
HETATM    8  C9  UNK     1      18.208   3.610  31.488  1.00  0.00     0.018 A 
BRANCH   6   9
HETATM    9  O3  UNK     1      18.900   7.012  32.642  1.00  0.00    -0.361 OA
HETATM   10  H14 UNK     1      19.834   7.243  32.783  1.00  0.00     0.217 HD
ENDBRANCH   6   9
ENDBRANCH   2   3
BRANCH   2  11
HETATM   11  C7  UNK     1      19.363   1.264  29.724  1.00  0.00     0.056 C 
HETATM   12  C4  UNK     1      18.896   0.482  30.710  1.00  0.00     0.018 C 
BRANCH  12  13
HETATM   13  C1  UNK     1      19.561  -0.704  31.161  1.00  0.00    -0.003 A 
HETATM   14  C2  UNK     1      19.575  -1.078  32.517  1.00  0.00     0.078 A 
HETATM   15  C8  UNK     1      20.230  -2.237  32.933  1.00  0.00     0.037 A 
HETATM   16  C12 UNK     1      20.883  -3.041  31.998  1.00  0.00     0.003 A 
HETATM   17  C11 UNK     1      20.881  -2.687  30.649  1.00  0.00     0.001 A 
HETATM   18  C5  UNK     1      20.225  -1.527  30.235  1.00  0.00     0.014 A 
BRANCH  14  19
HETATM   19  O1  UNK     1      18.945  -0.309  33.451  1.00  0.00    -0.355 OA
HETATM   20  C16 UNK     1      18.570  -0.947  34.669  1.00  0.00     0.210 C 
ENDBRANCH  14  19
ENDBRANCH  12  13
ENDBRANCH   2  11
TORSDOF 5
ENDMDL
MODEL 9
REMARK VINA RESULT:      -7.2      2.195      7.552
REMARK  5 active torsions:
REMARK  status: ('A' for Active; 'I' for Inactive)
REMARK    1  A    between atoms: C2_5  and  O1_1 
REMARK    2  A    between atoms: C15_18  and  O3_3 
REMARK    3  A    between atoms: C1_4  and  C4_7 
REMARK    4  A    between atoms: C3_6  and  C6_9 
REMARK    5  A    between atoms: C6_9  and  C7_10 
ROOT
HETATM    1  O2  UNK     1      18.404   3.866  34.407  1.00  0.00    -0.288 OA
HETATM    2  C6  UNK     1      18.293   4.511  33.353  1.00  0.00     0.182 C 
ENDROOT
BRANCH   2   3
HETATM    3  C3  UNK     1      18.208   5.963  33.374  1.00  0.00     0.014 A 
HETATM    4  C10 UNK     1      19.146   6.706  34.091  1.00  0.00     0.018 A 
HETATM    5  C14 UNK     1      19.065   8.099  34.111  1.00  0.00     0.037 A 
HETATM    6  C15 UNK     1      18.046   8.748  33.414  1.00  0.00     0.065 A 
HETATM    7  C13 UNK     1      17.108   8.005  32.697  1.00  0.00     0.037 A 
HETATM    8  C9  UNK     1      17.189   6.613  32.678  1.00  0.00     0.018 A 
BRANCH   6   9
HETATM    9  O3  UNK     1      17.967  10.107  33.432  1.00  0.00    -0.361 OA
HETATM   10  H14 UNK     1      18.621  10.469  32.811  1.00  0.00     0.217 HD
ENDBRANCH   6   9
ENDBRANCH   2   3
BRANCH   2  11
HETATM   11  C7  UNK     1      18.274   3.808  32.024  1.00  0.00     0.056 C 
HETATM   12  C4  UNK     1      18.666   2.529  31.925  1.00  0.00     0.018 C 
BRANCH  12  13
HETATM   13  C1  UNK     1      18.693   1.803  30.689  1.00  0.00    -0.003 A 
HETATM   14  C2  UNK     1      19.369   0.575  30.563  1.00  0.00     0.078 A 
HETATM   15  C8  UNK     1      19.381  -0.112  29.349  1.00  0.00     0.037 A 
HETATM   16  C12 UNK     1      18.718   0.417  28.242  1.00  0.00     0.003 A 
HETATM   17  C11 UNK     1      18.043   1.633  28.348  1.00  0.00     0.001 A 
HETATM   18  C5  UNK     1      18.031   2.320  29.562  1.00  0.00     0.014 A 
BRANCH  14  19
HETATM   19  O1  UNK     1      20.025   0.037  31.630  1.00  0.00    -0.355 OA
HETATM   20  C16 UNK     1      19.676  -1.295  32.000  1.00  0.00     0.210 C 
ENDBRANCH  14  19
ENDBRANCH  12  13
ENDBRANCH   2  11
TORSDOF 5
ENDMDL
MODEL 10
REMARK VINA RESULT:      -7.2     21.868     24.121
REMARK  5 active torsions:
REMARK  status: ('A' for Active; 'I' for Inactive)
REMARK    1  A    between atoms: C2_5  and  O1_1 
REMARK    2  A    between atoms: C15_18  and  O3_3 
REMARK    3  A    between atoms: C1_4  and  C4_7 
REMARK    4  A    between atoms: C3_6  and  C6_9 
REMARK    5  A    between atoms: C6_9  and  C7_10 
ROOT
HETATM    1  O2  UNK     1      14.434   5.055  10.532  1.00  0.00    -0.288 OA
HETATM    2  C6  UNK     1      14.356   5.991   9.721  1.00  0.00     0.182 C 
ENDROOT
BRANCH   2   3
HETATM    3  C3  UNK     1      15.327   7.073   9.737  1.00  0.00     0.014 A 
HETATM    4  C10 UNK     1      14.939   8.364   9.378  1.00  0.00     0.018 A 
HETATM    5  C14 UNK     1      15.870   9.403   9.392  1.00  0.00     0.037 A 
HETATM    6  C15 UNK     1      17.189   9.150   9.767  1.00  0.00     0.065 A 
HETATM    7  C13 UNK     1      17.578   7.860  10.126  1.00  0.00     0.037 A 
HETATM    8  C9  UNK     1      16.647   6.822  10.111  1.00  0.00     0.018 A 
BRANCH   6   9
HETATM    9  O3  UNK     1      18.098  10.163   9.783  1.00  0.00    -0.361 OA
HETATM   10  H14 UNK     1      18.598  10.126  10.616  1.00  0.00     0.217 HD
ENDBRANCH   6   9
ENDBRANCH   2   3
BRANCH   2  11
HETATM   11  C7  UNK     1      13.268   6.013   8.682  1.00  0.00     0.056 C 
HETATM   12  C4  UNK     1      11.991   6.222   9.037  1.00  0.00     0.018 C 
BRANCH  12  13
HETATM   13  C1  UNK     1      10.903   6.236   8.104  1.00  0.00    -0.003 A 
HETATM   14  C2  UNK     1       9.576   5.999   8.507  1.00  0.00     0.078 A 
HETATM   15  C8  UNK     1       8.534   6.018   7.580  1.00  0.00     0.037 A 
HETATM   16  C12 UNK     1       8.802   6.273   6.236  1.00  0.00     0.003 A 
HETATM   17  C11 UNK     1      10.111   6.510   5.817  1.00  0.00     0.001 A 
HETATM   18  C5  UNK     1      11.153   6.492   6.745  1.00  0.00     0.014 A 
BRANCH  14  19
HETATM   19  O1  UNK     1       9.288   5.747   9.815  1.00  0.00    -0.355 OA
HETATM   20  C16 UNK     1       8.209   4.853  10.080  1.00  0.00     0.210 C 
ENDBRANCH  14  19
ENDBRANCH  12  13
ENDBRANCH   2  11
TORSDOF 5
ENDMDL
