MODEL 1
REMARK VINA RESULT:      -9.2      0.000      0.000
REMARK  6 active torsions:
REMARK  status: ('A' for Active; 'I' for Inactive)
REMARK    1  A    between atoms: C1_6  and  O1_3 
REMARK    2  A    between atoms: C4_9  and  O1_3 
REMARK    3  A    between atoms: C3_8  and  O2_4 
REMARK    4  A    between atoms: C2_7  and  C9_14 
REMARK    5  A    between atoms: C4_9  and  C6_11 
REMARK    6  A    between atoms: C10_15  and  C11_16 
ROOT
HETATM    1  N1  UNK     1      21.971  -1.696  35.321  1.00  0.00    -0.191 NA
HETATM    2  C9  UNK     1      18.673  -2.455  35.980  1.00  0.00     0.036 C 
HETATM    3  C10 UNK     1      19.900  -2.998  36.199  1.00  0.00     0.055 C 
HETATM    4  C23 UNK     1      21.041  -2.271  35.709  1.00  0.00     0.100 C 
ENDROOT
BRANCH   3   5
HETATM    5  C11 UNK     1      20.115  -4.257  36.897  1.00  0.00    -0.015 A 
HETATM    6  C16 UNK     1      19.177  -5.284  36.787  1.00  0.00     0.013 A 
HETATM    7  C19 UNK     1      19.383  -6.490  37.457  1.00  0.00     0.001 A 
HETATM    8  C21 UNK     1      20.527  -6.669  38.237  1.00  0.00     0.000 A 
HETATM    9  C20 UNK     1      21.463  -5.642  38.346  1.00  0.00     0.001 A 
HETATM   10  C17 UNK     1      21.258  -4.436  37.676  1.00  0.00     0.013 A 
ENDBRANCH   3   5
BRANCH   2  11
HETATM   11  C2  UNK     1      18.410  -1.186  35.287  1.00  0.00    -0.015 A 
HETATM   12  C5  UNK     1      18.642  -1.152  33.917  1.00  0.00     0.052 A 
HETATM   13  C3  UNK     1      18.410   0.027  33.208  1.00  0.00     0.102 A 
HETATM   14  C1  UNK     1      17.948   1.161  33.874  1.00  0.00     0.103 A 
HETATM   15  C7  UNK     1      17.717   1.118  35.249  1.00  0.00     0.059 A 
HETATM   16  C8  UNK     1      17.950  -0.060  35.959  1.00  0.00     0.024 A 
HETATM   17 Br1  UNK     1      17.616  -0.051  37.829  1.00  0.00    -0.050 Br
BRANCH  13  18
HETATM   18  O2  UNK     1      18.638   0.057  31.865  1.00  0.00    -0.353 OA
HETATM   19  C22 UNK     1      19.677  -0.784  31.365  1.00  0.00     0.210 C 
ENDBRANCH  13  18
BRANCH  14  20
HETATM   20  O1  UNK     1      17.717   2.318  33.192  1.00  0.00    -0.344 OA
BRANCH  20  21
HETATM   21  C4  UNK     1      18.371   3.493  33.667  1.00  0.00     0.216 C 
BRANCH  21  22
HETATM   22  C6  UNK     1      18.731   4.360  32.497  1.00  0.00    -0.012 A 
HETATM   23  C12 UNK     1      19.165   5.670  32.672  1.00  0.00     0.042 A 
HETATM   24 Cl1  UNK     1      19.316   6.370  34.243  1.00  0.00    -0.084 Cl
HETATM   25  C14 UNK     1      19.492   6.447  31.559  1.00  0.00     0.024 A 
HETATM   26  C18 UNK     1      19.380   5.909  30.277  1.00  0.00     0.002 A 
HETATM   27  C15 UNK     1      18.943   4.596  30.107  1.00  0.00     0.001 A 
HETATM   28  C13 UNK     1      18.618   3.819  31.220  1.00  0.00     0.011 A 
ENDBRANCH  21  22
ENDBRANCH  20  21
ENDBRANCH  14  20
ENDBRANCH   2  11
TORSDOF 6
ENDMDL
MODEL 2
REMARK VINA RESULT:      -8.9      6.059      8.317
REMARK  6 active torsions:
REMARK  status: ('A' for Active; 'I' for Inactive)
REMARK    1  A    between atoms: C1_6  and  O1_3 
REMARK    2  A    between atoms: C4_9  and  O1_3 
REMARK    3  A    between atoms: C3_8  and  O2_4 
REMARK    4  A    between atoms: C2_7  and  C9_14 
REMARK    5  A    between atoms: C4_9  and  C6_11 
REMARK    6  A    between atoms: C10_15  and  C11_16 
ROOT
HETATM    1  N1  UNK     1      17.902   2.310  33.575  1.00  0.00    -0.191 NA
HETATM    2  C9  UNK     1      18.777   4.242  30.856  1.00  0.00     0.036 C 
HETATM    3  C10 UNK     1      18.644   2.923  31.160  1.00  0.00     0.055 C 
HETATM    4  C23 UNK     1      18.233   2.593  32.499  1.00  0.00     0.100 C 
ENDROOT
BRANCH   3   5
HETATM    5  C11 UNK     1      18.887   1.845  30.213  1.00  0.00    -0.015 A 
HETATM    6  C16 UNK     1      19.923   0.939  30.439  1.00  0.00     0.013 A 
HETATM    7  C19 UNK     1      20.156  -0.094  29.532  1.00  0.00     0.001 A 
HETATM    8  C21 UNK     1      19.353  -0.221  28.398  1.00  0.00     0.000 A 
HETATM    9  C20 UNK     1      18.317   0.685  28.172  1.00  0.00     0.001 A 
HETATM   10  C17 UNK     1      18.084   1.718  29.080  1.00  0.00     0.013 A 
ENDBRANCH   3   5
BRANCH   2  11
HETATM   11  C2  UNK     1      18.535   5.361  31.776  1.00  0.00    -0.015 A 
HETATM   12  C5  UNK     1      17.217   5.611  32.138  1.00  0.00     0.052 A 
HETATM   13  C3  UNK     1      16.928   6.661  33.009  1.00  0.00     0.102 A 
HETATM   14  C1  UNK     1      17.960   7.453  33.512  1.00  0.00     0.103 A 
HETATM   15  C7  UNK     1      19.281   7.195  33.144  1.00  0.00     0.059 A 
HETATM   16  C8  UNK     1      19.569   6.145  32.273  1.00  0.00     0.024 A 
HETATM   17 Br1  UNK     1      21.388   5.848  31.813  1.00  0.00    -0.050 Br
BRANCH  13  18
HETATM   18  O2  UNK     1      15.634   6.904  33.361  1.00  0.00    -0.353 OA
HETATM   19  C22 UNK     1      14.736   7.270  32.315  1.00  0.00     0.210 C 
ENDBRANCH  13  18
BRANCH  14  20
HETATM   20  O1  UNK     1      17.690   8.482  34.364  1.00  0.00    -0.344 OA
BRANCH  20  21
HETATM   21  C4  UNK     1      17.773   9.802  33.833  1.00  0.00     0.216 C 
BRANCH  21  22
HETATM   22  C6  UNK     1      16.645  10.623  34.384  1.00  0.00    -0.012 A 
HETATM   23  C12 UNK     1      16.704  12.013  34.411  1.00  0.00     0.042 A 
HETATM   24 Cl1  UNK     1      18.078  12.870  33.812  1.00  0.00    -0.084 Cl
HETATM   25  C14 UNK     1      15.634  12.743  34.930  1.00  0.00     0.024 A 
HETATM   26  C18 UNK     1      14.509  12.078  35.421  1.00  0.00     0.002 A 
HETATM   27  C15 UNK     1      14.456  10.685  35.392  1.00  0.00     0.001 A 
HETATM   28  C13 UNK     1      15.525   9.956  34.873  1.00  0.00     0.011 A 
ENDBRANCH  21  22
ENDBRANCH  20  21
ENDBRANCH  14  20
ENDBRANCH   2  11
TORSDOF 6
ENDMDL
MODEL 3
REMARK VINA RESULT:      -8.9      4.775     10.092
REMARK  6 active torsions:
REMARK  status: ('A' for Active; 'I' for Inactive)
REMARK    1  A    between atoms: C1_6  and  O1_3 
REMARK    2  A    between atoms: C4_9  and  O1_3 
REMARK    3  A    between atoms: C3_8  and  O2_4 
REMARK    4  A    between atoms: C2_7  and  C9_14 
REMARK    5  A    between atoms: C4_9  and  C6_11 
REMARK    6  A    between atoms: C10_15  and  C11_16 
ROOT
HETATM    1  N1  UNK     1      15.231   6.703  32.299  1.00  0.00    -0.191 NA
HETATM    2  C9  UNK     1      18.551   6.717  33.232  1.00  0.00     0.036 C 
HETATM    3  C10 UNK     1      17.510   7.591  33.179  1.00  0.00     0.055 C 
HETATM    4  C23 UNK     1      16.253   7.091  32.690  1.00  0.00     0.100 C 
ENDROOT
BRANCH   3   5
HETATM    5  C11 UNK     1      17.601   8.984  33.591  1.00  0.00    -0.015 A 
HETATM    6  C16 UNK     1      18.851   9.574  33.779  1.00  0.00     0.013 A 
HETATM    7  C19 UNK     1      18.939  10.909  34.174  1.00  0.00     0.001 A 
HETATM    8  C21 UNK     1      17.776  11.654  34.380  1.00  0.00     0.000 A 
HETATM    9  C20 UNK     1      16.528  11.063  34.191  1.00  0.00     0.001 A 
HETATM   10  C17 UNK     1      16.440   9.728  33.796  1.00  0.00     0.013 A 
ENDBRANCH   3   5
BRANCH   2  11
HETATM   11  C2  UNK     1      18.502   5.303  32.834  1.00  0.00    -0.015 A 
HETATM   12  C5  UNK     1      18.290   4.369  33.842  1.00  0.00     0.052 A 
HETATM   13  C3  UNK     1      18.234   3.012  33.522  1.00  0.00     0.102 A 
HETATM   14  C1  UNK     1      18.391   2.601  32.199  1.00  0.00     0.103 A 
HETATM   15  C7  UNK     1      18.603   3.546  31.195  1.00  0.00     0.059 A 
HETATM   16  C8  UNK     1      18.659   4.902  31.514  1.00  0.00     0.024 A 
HETATM   17 Br1  UNK     1      18.951   6.136  30.099  1.00  0.00    -0.050 Br
BRANCH  13  18
HETATM   18  O2  UNK     1      18.027   2.099  34.512  1.00  0.00    -0.353 OA
HETATM   19  C22 UNK     1      18.759   2.277  35.723  1.00  0.00     0.210 C 
ENDBRANCH  13  18
BRANCH  14  20
HETATM   20  O1  UNK     1      18.338   1.278  31.875  1.00  0.00    -0.344 OA
BRANCH  20  21
HETATM   21  C4  UNK     1      18.988   0.880  30.670  1.00  0.00     0.216 C 
BRANCH  21  22
HETATM   22  C6  UNK     1      19.625  -0.462  30.878  1.00  0.00    -0.012 A 
HETATM   23  C12 UNK     1      20.016  -1.254  29.803  1.00  0.00     0.042 A 
HETATM   24 Cl1  UNK     1      19.791  -0.737  28.172  1.00  0.00    -0.084 Cl
HETATM   25  C14 UNK     1      20.607  -2.497  30.036  1.00  0.00     0.024 A 
HETATM   26  C18 UNK     1      20.802  -2.942  31.344  1.00  0.00     0.002 A 
HETATM   27  C15 UNK     1      20.408  -2.144  32.418  1.00  0.00     0.001 A 
HETATM   28  C13 UNK     1      19.818  -0.902  32.184  1.00  0.00     0.011 A 
ENDBRANCH  21  22
ENDBRANCH  20  21
ENDBRANCH  14  20
ENDBRANCH   2  11
TORSDOF 6
ENDMDL
MODEL 4
REMARK VINA RESULT:      -8.5     12.299     14.252
REMARK  6 active torsions:
REMARK  status: ('A' for Active; 'I' for Inactive)
REMARK    1  A    between atoms: C1_6  and  O1_3 
REMARK    2  A    between atoms: C4_9  and  O1_3 
REMARK    3  A    between atoms: C3_8  and  O2_4 
REMARK    4  A    between atoms: C2_7  and  C9_14 
REMARK    5  A    between atoms: C4_9  and  C6_11 
REMARK    6  A    between atoms: C10_15  and  C11_16 
ROOT
HETATM    1  N1  UNK     1      27.201 -10.327  39.798  1.00  0.00    -0.191 NA
HETATM    2  C9  UNK     1      27.428  -8.929  36.654  1.00  0.00     0.036 C 
HETATM    3  C10 UNK     1      26.586  -9.747  37.340  1.00  0.00     0.055 C 
HETATM    4  C23 UNK     1      26.935 -10.063  38.700  1.00  0.00     0.100 C 
ENDROOT
BRANCH   3   5
HETATM    5  C11 UNK     1      25.365 -10.305  36.779  1.00  0.00    -0.015 A 
HETATM    6  C16 UNK     1      25.363 -11.603  36.268  1.00  0.00     0.013 A 
HETATM    7  C19 UNK     1      24.193 -12.139  35.730  1.00  0.00     0.001 A 
HETATM    8  C21 UNK     1      23.024 -11.377  35.704  1.00  0.00     0.000 A 
HETATM    9  C20 UNK     1      23.026 -10.079  36.216  1.00  0.00     0.001 A 
HETATM   10  C17 UNK     1      24.196  -9.544  36.754  1.00  0.00     0.013 A 
ENDBRANCH   3   5
BRANCH   2  11
HETATM   11  C2  UNK     1      28.666  -8.338  37.182  1.00  0.00    -0.015 A 
HETATM   12  C5  UNK     1      29.860  -8.966  36.850  1.00  0.00     0.052 A 
HETATM   13  C3  UNK     1      31.066  -8.448  37.324  1.00  0.00     0.102 A 
HETATM   14  C1  UNK     1      31.067  -7.307  38.124  1.00  0.00     0.103 A 
HETATM   15  C7  UNK     1      29.863  -6.682  38.452  1.00  0.00     0.059 A 
HETATM   16  C8  UNK     1      28.658  -7.200  37.979  1.00  0.00     0.024 A 
HETATM   17 Br1  UNK     1      27.055  -6.301  38.462  1.00  0.00    -0.050 Br
BRANCH  13  18
HETATM   18  O2  UNK     1      32.235  -9.067  36.998  1.00  0.00    -0.353 OA
HETATM   19  C22 UNK     1      32.488  -9.284  35.611  1.00  0.00     0.210 C 
ENDBRANCH  13  18
BRANCH  14  20
HETATM   20  O1  UNK     1      32.239  -6.791  38.593  1.00  0.00    -0.344 OA
BRANCH  20  21
HETATM   21  C4  UNK     1      32.492  -5.413  38.329  1.00  0.00     0.216 C 
BRANCH  21  22
HETATM   22  C6  UNK     1      33.337  -5.298  37.094  1.00  0.00    -0.012 A 
HETATM   23  C12 UNK     1      33.146  -4.270  36.177  1.00  0.00     0.042 A 
HETATM   24 Cl1  UNK     1      31.927  -3.070  36.407  1.00  0.00    -0.084 Cl
HETATM   25  C14 UNK     1      33.952  -4.196  35.040  1.00  0.00     0.024 A 
HETATM   26  C18 UNK     1      34.946  -5.152  34.827  1.00  0.00     0.002 A 
HETATM   27  C15 UNK     1      35.133  -6.180  35.749  1.00  0.00     0.001 A 
HETATM   28  C13 UNK     1      34.327  -6.254  36.885  1.00  0.00     0.011 A 
ENDBRANCH  21  22
ENDBRANCH  20  21
ENDBRANCH  14  20
ENDBRANCH   2  11
TORSDOF 6
ENDMDL
MODEL 5
REMARK VINA RESULT:      -8.2     25.908     28.327
REMARK  6 active torsions:
REMARK  status: ('A' for Active; 'I' for Inactive)
REMARK    1  A    between atoms: C1_6  and  O1_3 
REMARK    2  A    between atoms: C4_9  and  O1_3 
REMARK    3  A    between atoms: C3_8  and  O2_4 
REMARK    4  A    between atoms: C2_7  and  C9_14 
REMARK    5  A    between atoms: C4_9  and  C6_11 
REMARK    6  A    between atoms: C10_15  and  C11_16 
ROOT
HETATM    1  N1  UNK     1      16.658  12.398  11.496  1.00  0.00    -0.191 NA
HETATM    2  C9  UNK     1      17.896  10.147   9.196  1.00  0.00     0.036 C 
HETATM    3  C10 UNK     1      18.338  11.226   9.896  1.00  0.00     0.055 C 
HETATM    4  C23 UNK     1      17.401  11.869  10.778  1.00  0.00     0.100 C 
ENDROOT
BRANCH   3   5
HETATM    5  C11 UNK     1      19.692  11.751   9.803  1.00  0.00    -0.015 A 
HETATM    6  C16 UNK     1      20.446  11.943  10.961  1.00  0.00     0.013 A 
HETATM    7  C19 UNK     1      21.743  12.447  10.873  1.00  0.00     0.001 A 
HETATM    8  C21 UNK     1      22.288  12.759   9.626  1.00  0.00     0.000 A 
HETATM    9  C20 UNK     1      21.534  12.566   8.469  1.00  0.00     0.001 A 
HETATM   10  C17 UNK     1      20.237  12.062   8.557  1.00  0.00     0.013 A 
ENDBRANCH   3   5
BRANCH   2  11
HETATM   11  C2  UNK     1      16.542   9.579   9.264  1.00  0.00    -0.015 A 
HETATM   12  C5  UNK     1      16.370   8.446  10.049  1.00  0.00     0.052 A 
HETATM   13  C3  UNK     1      15.107   7.863  10.150  1.00  0.00     0.102 A 
HETATM   14  C1  UNK     1      14.027   8.419   9.466  1.00  0.00     0.103 A 
HETATM   15  C7  UNK     1      14.209   9.557   8.680  1.00  0.00     0.059 A 
HETATM   16  C8  UNK     1      15.472  10.139   8.579  1.00  0.00     0.024 A 
HETATM   17 Br1  UNK     1      15.651  11.687   7.492  1.00  0.00    -0.050 Br
BRANCH  13  18
HETATM   18  O2  UNK     1      14.941   6.751  10.921  1.00  0.00    -0.353 OA
HETATM   19  C22 UNK     1      15.162   5.490  10.295  1.00  0.00     0.210 C 
ENDBRANCH  13  18
BRANCH  14  20
HETATM   20  O1  UNK     1      12.787   7.859   9.558  1.00  0.00    -0.344 OA
BRANCH  20  21
HETATM   21  C4  UNK     1      11.707   8.573   8.961  1.00  0.00     0.216 C 
BRANCH  21  22
HETATM   22  C6  UNK     1      10.989   7.667   8.005  1.00  0.00    -0.012 A 
HETATM   23  C12 UNK     1       9.651   7.332   8.189  1.00  0.00     0.042 A 
HETATM   24 Cl1  UNK     1       8.743   7.942   9.525  1.00  0.00    -0.084 Cl
HETATM   25  C14 UNK     1       9.016   6.487   7.279  1.00  0.00     0.024 A 
HETATM   26  C18 UNK     1       9.725   5.978   6.189  1.00  0.00     0.002 A 
HETATM   27  C15 UNK     1      11.065   6.316   6.010  1.00  0.00     0.001 A 
HETATM   28  C13 UNK     1      11.699   7.162   6.920  1.00  0.00     0.011 A 
ENDBRANCH  21  22
ENDBRANCH  20  21
ENDBRANCH  14  20
ENDBRANCH   2  11
TORSDOF 6
ENDMDL
MODEL 6
REMARK VINA RESULT:      -8.1     26.477     28.401
REMARK  6 active torsions:
REMARK  status: ('A' for Active; 'I' for Inactive)
REMARK    1  A    between atoms: C1_6  and  O1_3 
REMARK    2  A    between atoms: C4_9  and  O1_3 
REMARK    3  A    between atoms: C3_8  and  O2_4 
REMARK    4  A    between atoms: C2_7  and  C9_14 
REMARK    5  A    between atoms: C4_9  and  C6_11 
REMARK    6  A    between atoms: C10_15  and  C11_16 
ROOT
HETATM    1  N1  UNK     1      15.915  11.740   7.348  1.00  0.00    -0.191 NA
HETATM    2  C9  UNK     1      17.152   9.979  10.043  1.00  0.00     0.036 C 
HETATM    3  C10 UNK     1      17.586  10.922   9.164  1.00  0.00     0.055 C 
HETATM    4  C23 UNK     1      16.655  11.368   8.162  1.00  0.00     0.100 C 
ENDROOT
BRANCH   3   5
HETATM    5  C11 UNK     1      18.922  11.498   9.188  1.00  0.00    -0.015 A 
HETATM    6  C16 UNK     1      19.584  11.775   7.992  1.00  0.00     0.013 A 
HETATM    7  C19 UNK     1      20.864  12.326   8.015  1.00  0.00     0.001 A 
HETATM    8  C21 UNK     1      21.484  12.601   9.235  1.00  0.00     0.000 A 
HETATM    9  C20 UNK     1      20.822  12.325  10.431  1.00  0.00     0.001 A 
HETATM   10  C17 UNK     1      19.541  11.773  10.408  1.00  0.00     0.013 A 
ENDBRANCH   3   5
BRANCH   2  11
HETATM   11  C2  UNK     1      15.812   9.377  10.059  1.00  0.00    -0.015 A 
HETATM   12  C5  UNK     1      15.670   8.131   9.460  1.00  0.00     0.052 A 
HETATM   13  C3  UNK     1      14.420   7.512   9.446  1.00  0.00     0.102 A 
HETATM   14  C1  UNK     1      13.323   8.143  10.031  1.00  0.00     0.103 A 
HETATM   15  C7  UNK     1      13.475   9.393  10.631  1.00  0.00     0.059 A 
HETATM   16  C8  UNK     1      14.725  10.013  10.644  1.00  0.00     0.024 A 
HETATM   17 Br1  UNK     1      14.862  11.715  11.477  1.00  0.00    -0.050 Br
BRANCH  13  18
HETATM   18  O2  UNK     1      14.284   6.290   8.858  1.00  0.00    -0.353 OA
HETATM   19  C22 UNK     1      14.776   5.164   9.581  1.00  0.00     0.210 C 
ENDBRANCH  13  18
BRANCH  14  20
HETATM   20  O1  UNK     1      12.097   7.548  10.025  1.00  0.00    -0.344 OA
BRANCH  20  21
HETATM   21  C4  UNK     1      11.030   8.267   9.409  1.00  0.00     0.216 C 
BRANCH  21  22
HETATM   22  C6  UNK     1      10.525   7.483   8.234  1.00  0.00    -0.012 A 
HETATM   23  C12 UNK     1       9.243   6.942   8.219  1.00  0.00     0.042 A 
HETATM   24 Cl1  UNK     1       8.163   7.144   9.549  1.00  0.00    -0.084 Cl
HETATM   25  C14 UNK     1       8.809   6.220   7.107  1.00  0.00     0.024 A 
HETATM   26  C18 UNK     1       9.660   6.040   6.016  1.00  0.00     0.002 A 
HETATM   27  C15 UNK     1      10.944   6.583   6.037  1.00  0.00     0.001 A 
HETATM   28  C13 UNK     1      11.378   7.306   7.148  1.00  0.00     0.011 A 
ENDBRANCH  21  22
ENDBRANCH  20  21
ENDBRANCH  14  20
ENDBRANCH   2  11
TORSDOF 6
ENDMDL
MODEL 7
REMARK VINA RESULT:      -8.1      1.845      2.769
REMARK  6 active torsions:
REMARK  status: ('A' for Active; 'I' for Inactive)
REMARK    1  A    between atoms: C1_6  and  O1_3 
REMARK    2  A    between atoms: C4_9  and  O1_3 
REMARK    3  A    between atoms: C3_8  and  O2_4 
REMARK    4  A    between atoms: C2_7  and  C9_14 
REMARK    5  A    between atoms: C4_9  and  C6_11 
REMARK    6  A    between atoms: C10_15  and  C11_16 
ROOT
HETATM    1  N1  UNK     1      18.032  -5.670  36.093  1.00  0.00    -0.191 NA
HETATM    2  C9  UNK     1      20.615  -3.536  36.907  1.00  0.00     0.036 C 
HETATM    3  C10 UNK     1      20.215  -4.800  37.205  1.00  0.00     0.055 C 
HETATM    4  C23 UNK     1      19.005  -5.273  36.586  1.00  0.00     0.100 C 
ENDROOT
BRANCH   3   5
HETATM    5  C11 UNK     1      20.940  -5.689  38.101  1.00  0.00    -0.015 A 
HETATM    6  C16 UNK     1      22.302  -5.490  38.327  1.00  0.00     0.013 A 
HETATM    7  C19 UNK     1      22.998  -6.342  39.185  1.00  0.00     0.001 A 
HETATM    8  C21 UNK     1      22.331  -7.392  39.818  1.00  0.00     0.000 A 
HETATM    9  C20 UNK     1      20.969  -7.589  39.592  1.00  0.00     0.001 A 
HETATM   10  C17 UNK     1      20.274  -6.738  38.734  1.00  0.00     0.013 A 
ENDBRANCH   3   5
BRANCH   2  11
HETATM   11  C2  UNK     1      19.919  -2.608  36.004  1.00  0.00    -0.015 A 
HETATM   12  C5  UNK     1      20.300  -2.620  34.668  1.00  0.00     0.052 A 
HETATM   13  C3  UNK     1      19.674  -1.760  33.765  1.00  0.00     0.102 A 
HETATM   14  C1  UNK     1      18.671  -0.897  34.206  1.00  0.00     0.103 A 
HETATM   15  C7  UNK     1      18.295  -0.893  35.549  1.00  0.00     0.059 A 
HETATM   16  C8  UNK     1      18.922  -1.752  36.452  1.00  0.00     0.024 A 
HETATM   17 Br1  UNK     1      18.361  -1.695  38.266  1.00  0.00    -0.050 Br
BRANCH  13  18
HETATM   18  O2  UNK     1      20.050  -1.774  32.455  1.00  0.00    -0.353 OA
HETATM   19  C22 UNK     1      20.959  -2.797  32.053  1.00  0.00     0.210 C 
ENDBRANCH  13  18
BRANCH  14  20
HETATM   20  O1  UNK     1      18.052  -0.053  33.333  1.00  0.00    -0.344 OA
BRANCH  20  21
HETATM   21  C4  UNK     1      18.306   1.341  33.488  1.00  0.00     0.216 C 
BRANCH  21  22
HETATM   22  C6  UNK     1      18.464   1.964  32.132  1.00  0.00    -0.012 A 
HETATM   23  C12 UNK     1      18.349   3.338  31.947  1.00  0.00     0.042 A 
HETATM   24 Cl1  UNK     1      18.020   4.402  33.265  1.00  0.00    -0.084 Cl
HETATM   25  C14 UNK     1      18.502   3.880  30.670  1.00  0.00     0.024 A 
HETATM   26  C18 UNK     1      18.769   3.045  29.585  1.00  0.00     0.002 A 
HETATM   27  C15 UNK     1      18.883   1.668  29.776  1.00  0.00     0.001 A 
HETATM   28  C13 UNK     1      18.730   1.126  31.052  1.00  0.00     0.011 A 
ENDBRANCH  21  22
ENDBRANCH  20  21
ENDBRANCH  14  20
ENDBRANCH   2  11
TORSDOF 6
ENDMDL
MODEL 8
REMARK VINA RESULT:      -8.0     26.505     28.210
REMARK  6 active torsions:
REMARK  status: ('A' for Active; 'I' for Inactive)
REMARK    1  A    between atoms: C1_6  and  O1_3 
REMARK    2  A    between atoms: C4_9  and  O1_3 
REMARK    3  A    between atoms: C3_8  and  O2_4 
REMARK    4  A    between atoms: C2_7  and  C9_14 
REMARK    5  A    between atoms: C4_9  and  C6_11 
REMARK    6  A    between atoms: C10_15  and  C11_16 
ROOT
HETATM    1  N1  UNK     1      15.289  10.998   7.573  1.00  0.00    -0.191 NA
HETATM    2  C9  UNK     1      16.719   9.539  10.351  1.00  0.00     0.036 C 
HETATM    3  C10 UNK     1      16.984  10.563   9.496  1.00  0.00     0.055 C 
HETATM    4  C23 UNK     1      16.041  10.796   8.434  1.00  0.00     0.100 C 
ENDROOT
BRANCH   3   5
HETATM    5  C11 UNK     1      18.151  11.425   9.603  1.00  0.00    -0.015 A 
HETATM    6  C16 UNK     1      18.364  12.170  10.763  1.00  0.00     0.013 A 
HETATM    7  C19 UNK     1      19.482  12.996  10.865  1.00  0.00     0.001 A 
HETATM    8  C21 UNK     1      20.389  13.078   9.807  1.00  0.00     0.000 A 
HETATM    9  C20 UNK     1      20.176  12.332   8.647  1.00  0.00     0.001 A 
HETATM   10  C17 UNK     1      19.057  11.506   8.545  1.00  0.00     0.013 A 
ENDBRANCH   3   5
BRANCH   2  11
HETATM   11  C2  UNK     1      15.551   8.649  10.286  1.00  0.00    -0.015 A 
HETATM   12  C5  UNK     1      14.318   9.198  10.617  1.00  0.00     0.052 A 
HETATM   13  C3  UNK     1      13.175   8.400  10.573  1.00  0.00     0.102 A 
HETATM   14  C1  UNK     1      13.273   7.061  10.198  1.00  0.00     0.103 A 
HETATM   15  C7  UNK     1      14.515   6.519   9.867  1.00  0.00     0.059 A 
HETATM   16  C8  UNK     1      15.659   7.316   9.911  1.00  0.00     0.024 A 
HETATM   17 Br1  UNK     1      17.318   6.515   9.448  1.00  0.00    -0.050 Br
BRANCH  13  18
HETATM   18  O2  UNK     1      11.967   8.941  10.899  1.00  0.00    -0.353 OA
HETATM   19  C22 UNK     1      11.221   9.545   9.843  1.00  0.00     0.210 C 
ENDBRANCH  13  18
BRANCH  14  20
HETATM   20  O1  UNK     1      12.163   6.272  10.151  1.00  0.00    -0.344 OA
BRANCH  20  21
HETATM   21  C4  UNK     1      12.135   5.252   9.154  1.00  0.00     0.216 C 
BRANCH  21  22
HETATM   22  C6  UNK     1      11.263   5.701   8.019  1.00  0.00    -0.012 A 
HETATM   23  C12 UNK     1       9.878   5.747   8.142  1.00  0.00     0.042 A 
HETATM   24 Cl1  UNK     1       9.086   5.292   9.607  1.00  0.00    -0.084 Cl
HETATM   25  C14 UNK     1       9.100   6.170   7.064  1.00  0.00     0.024 A 
HETATM   26  C18 UNK     1       9.712   6.544   5.867  1.00  0.00     0.002 A 
HETATM   27  C15 UNK     1      11.100   6.495   5.749  1.00  0.00     0.001 A 
HETATM   28  C13 UNK     1      11.877   6.073   6.827  1.00  0.00     0.011 A 
ENDBRANCH  21  22
ENDBRANCH  20  21
ENDBRANCH  14  20
ENDBRANCH   2  11
TORSDOF 6
ENDMDL
MODEL 9
REMARK VINA RESULT:      -8.0      9.684     13.278
REMARK  6 active torsions:
REMARK  status: ('A' for Active; 'I' for Inactive)
REMARK    1  A    between atoms: C1_6  and  O1_3 
REMARK    2  A    between atoms: C4_9  and  O1_3 
REMARK    3  A    between atoms: C3_8  and  O2_4 
REMARK    4  A    between atoms: C2_7  and  C9_14 
REMARK    5  A    between atoms: C4_9  and  C6_11 
REMARK    6  A    between atoms: C10_15  and  C11_16 
ROOT
HETATM    1  N1  UNK     1      29.316  -6.211  34.860  1.00  0.00    -0.191 NA
HETATM    2  C9  UNK     1      30.257  -6.950  38.095  1.00  0.00     0.036 C 
HETATM    3  C10 UNK     1      30.848  -6.575  36.929  1.00  0.00     0.055 C 
HETATM    4  C23 UNK     1      29.992  -6.376  35.789  1.00  0.00     0.100 C 
ENDROOT
BRANCH   3   5
HETATM    5  C11 UNK     1      32.280  -6.362  36.779  1.00  0.00    -0.015 A 
HETATM    6  C16 UNK     1      33.180  -7.148  37.498  1.00  0.00     0.013 A 
HETATM    7  C19 UNK     1      34.552  -6.944  37.356  1.00  0.00     0.001 A 
HETATM    8  C21 UNK     1      35.024  -5.954  36.493  1.00  0.00     0.000 A 
HETATM    9  C20 UNK     1      34.124  -5.169  35.774  1.00  0.00     0.001 A 
HETATM   10  C17 UNK     1      32.752  -5.373  35.917  1.00  0.00     0.013 A 
ENDBRANCH   3   5
BRANCH   2  11
HETATM   11  C2  UNK     1      28.817  -7.168  38.292  1.00  0.00    -0.015 A 
HETATM   12  C5  UNK     1      28.335  -8.453  38.072  1.00  0.00     0.052 A 
HETATM   13  C3  UNK     1      26.976  -8.718  38.244  1.00  0.00     0.102 A 
HETATM   14  C1  UNK     1      26.111  -7.697  38.636  1.00  0.00     0.103 A 
HETATM   15  C7  UNK     1      26.604  -6.411  38.856  1.00  0.00     0.059 A 
HETATM   16  C8  UNK     1      27.962  -6.145  38.683  1.00  0.00     0.024 A 
HETATM   17 Br1  UNK     1      28.567  -4.372  38.999  1.00  0.00    -0.050 Br
BRANCH  13  18
HETATM   18  O2  UNK     1      26.507  -9.979  38.026  1.00  0.00    -0.353 OA
HETATM   19  C22 UNK     1      26.284 -10.362  36.671  1.00  0.00     0.210 C 
ENDBRANCH  13  18
BRANCH  14  20
HETATM   20  O1  UNK     1      24.782  -7.944  38.808  1.00  0.00    -0.344 OA
BRANCH  20  21
HETATM   21  C4  UNK     1      23.938  -6.819  39.043  1.00  0.00     0.216 C 
BRANCH  21  22
HETATM   22  C6  UNK     1      22.513  -7.282  39.118  1.00  0.00    -0.012 A 
HETATM   23  C12 UNK     1      21.468  -6.490  38.656  1.00  0.00     0.042 A 
HETATM   24 Cl1  UNK     1      21.751  -4.931  37.971  1.00  0.00    -0.084 Cl
HETATM   25  C14 UNK     1      20.155  -6.955  38.741  1.00  0.00     0.024 A 
HETATM   26  C18 UNK     1      19.895  -8.211  39.290  1.00  0.00     0.002 A 
HETATM   27  C15 UNK     1      20.946  -9.001  39.752  1.00  0.00     0.001 A 
HETATM   28  C13 UNK     1      22.258  -8.536  39.666  1.00  0.00     0.011 A 
ENDBRANCH  21  22
ENDBRANCH  20  21
ENDBRANCH  14  20
ENDBRANCH   2  11
TORSDOF 6
ENDMDL
MODEL 10
REMARK VINA RESULT:      -7.9      6.041      9.106
REMARK  6 active torsions:
REMARK  status: ('A' for Active; 'I' for Inactive)
REMARK    1  A    between atoms: C1_6  and  O1_3 
REMARK    2  A    between atoms: C4_9  and  O1_3 
REMARK    3  A    between atoms: C3_8  and  O2_4 
REMARK    4  A    between atoms: C2_7  and  C9_14 
REMARK    5  A    between atoms: C4_9  and  C6_11 
REMARK    6  A    between atoms: C10_15  and  C11_16 
ROOT
HETATM    1  N1  UNK     1      19.423   6.162  29.440  1.00  0.00    -0.191 NA
HETATM    2  C9  UNK     1      17.808   4.747  32.139  1.00  0.00     0.036 C 
HETATM    3  C10 UNK     1      18.485   4.335  31.034  1.00  0.00     0.055 C 
HETATM    4  C23 UNK     1      19.000   5.353  30.157  1.00  0.00     0.100 C 
ENDROOT
BRANCH   3   5
HETATM    5  C11 UNK     1      18.716   2.937  30.701  1.00  0.00    -0.015 A 
HETATM    6  C16 UNK     1      18.995   2.017  31.712  1.00  0.00     0.013 A 
HETATM    7  C19 UNK     1      19.217   0.677  31.393  1.00  0.00     0.001 A 
HETATM    8  C21 UNK     1      19.159   0.257  30.063  1.00  0.00     0.000 A 
HETATM    9  C20 UNK     1      18.880   1.178  29.053  1.00  0.00     0.001 A 
HETATM   10  C17 UNK     1      18.658   2.517  29.372  1.00  0.00     0.013 A 
ENDBRANCH   3   5
BRANCH   2  11
HETATM   11  C2  UNK     1      17.559   6.145  32.517  1.00  0.00    -0.015 A 
HETATM   12  C5  UNK     1      16.269   6.630  32.335  1.00  0.00     0.052 A 
HETATM   13  C3  UNK     1      15.974   7.950  32.676  1.00  0.00     0.102 A 
HETATM   14  C1  UNK     1      16.971   8.774  33.198  1.00  0.00     0.103 A 
HETATM   15  C7  UNK     1      18.263   8.278  33.378  1.00  0.00     0.059 A 
HETATM   16  C8  UNK     1      18.557   6.959  33.036  1.00  0.00     0.024 A 
HETATM   17 Br1  UNK     1      20.336   6.348  33.306  1.00  0.00    -0.050 Br
BRANCH  13  18
HETATM   18  O2  UNK     1      14.709   8.422  32.496  1.00  0.00    -0.353 OA
HETATM   19  C22 UNK     1      13.648   7.470  32.547  1.00  0.00     0.210 C 
ENDBRANCH  13  18
BRANCH  14  20
HETATM   20  O1  UNK     1      16.695  10.065  33.536  1.00  0.00    -0.344 OA
BRANCH  20  21
HETATM   21  C4  UNK     1      17.796  10.883  33.925  1.00  0.00     0.216 C 
BRANCH  21  22
HETATM   22  C6  UNK     1      17.280  12.215  34.381  1.00  0.00    -0.012 A 
HETATM   23  C12 UNK     1      17.788  13.405  33.870  1.00  0.00     0.042 A 
HETATM   24 Cl1  UNK     1      19.040  13.415  32.681  1.00  0.00    -0.084 Cl
HETATM   25  C14 UNK     1      17.282  14.625  34.318  1.00  0.00     0.024 A 
HETATM   26  C18 UNK     1      16.269  14.649  35.279  1.00  0.00     0.002 A 
HETATM   27  C15 UNK     1      15.764  13.454  35.789  1.00  0.00     0.001 A 
HETATM   28  C13 UNK     1      16.270  12.234  35.339  1.00  0.00     0.011 A 
ENDBRANCH  21  22
ENDBRANCH  20  21
ENDBRANCH  14  20
ENDBRANCH   2  11
TORSDOF 6
ENDMDL
