MODEL 1
REMARK VINA RESULT:      -8.3      0.000      0.000
REMARK  4 active torsions:
REMARK  status: ('A' for Active; 'I' for Inactive)
REMARK    1  A    between atoms: C7_12  and  O2_2 
REMARK    2  A    between atoms: C13_18  and  O4_4 
REMARK    3  A    between atoms: C15_20  and  O5_5 
REMARK    4  A    between atoms: C2_7  and  C4_9 
ROOT
HETATM    1  O1  UNK     1      18.710  -0.596  33.934  1.00  0.00    -0.309 OA
HETATM    2  O3  UNK     1      20.609  -3.522  36.037  1.00  0.00    -0.287 OA
HETATM    3  C1  UNK     1      19.091  -1.712  36.057  1.00  0.00     0.081 A 
HETATM    4  C2  UNK     1      19.606  -1.462  33.327  1.00  0.00     0.090 A 
HETATM    5  C3  UNK     1      18.475  -0.733  35.278  1.00  0.00     0.093 A 
HETATM    6  C5  UNK     1      20.035  -2.639  35.416  1.00  0.00     0.190 A 
HETATM    7  C6  UNK     1      20.256  -2.447  33.967  1.00  0.00     0.094 A 
HETATM    8  C7  UNK     1      18.813  -1.807  37.422  1.00  0.00     0.082 A 
HETATM    9  C8  UNK     1      17.575   0.157  35.862  1.00  0.00     0.038 A 
HETATM   10  C11 UNK     1      17.912  -0.914  38.005  1.00  0.00     0.037 A 
HETATM   11  C12 UNK     1      17.294   0.066  37.226  1.00  0.00     0.006 A 
ENDROOT
BRANCH   4  12
HETATM   12  C4  UNK     1      19.781  -1.228  31.880  1.00  0.00     0.001 A 
HETATM   13  C10 UNK     1      20.168  -2.277  31.042  1.00  0.00     0.017 A 
HETATM   14  C14 UNK     1      20.334  -2.056  29.675  1.00  0.00     0.040 A 
HETATM   15  C15 UNK     1      20.113  -0.786  29.141  1.00  0.00     0.098 A 
HETATM   16  C13 UNK     1      19.725   0.262  29.975  1.00  0.00     0.099 A 
HETATM   17  C9  UNK     1      19.559   0.041  31.342  1.00  0.00     0.053 A 
BRANCH  15  18
HETATM   18  O5  UNK     1      20.277  -0.583  27.804  1.00  0.00    -0.358 OA
HETATM   19  H10 UNK     1      19.466  -0.852  27.341  1.00  0.00     0.217 HD
ENDBRANCH  15  18
BRANCH  16  20
HETATM   20  O4  UNK     1      19.503   1.506  29.465  1.00  0.00    -0.358 OA
HETATM   21  H9  UNK     1      18.546   1.617  29.333  1.00  0.00     0.217 HD
ENDBRANCH  16  20
ENDBRANCH   4  12
BRANCH   8  22
HETATM   22  O2  UNK     1      19.389  -2.744  38.225  1.00  0.00    -0.360 OA
HETATM   23  H8  UNK     1      19.573  -3.554  37.725  1.00  0.00     0.217 HD
ENDBRANCH   8  22
TORSDOF 4
ENDMDL
MODEL 2
REMARK VINA RESULT:      -8.3      5.142      7.193
REMARK  4 active torsions:
REMARK  status: ('A' for Active; 'I' for Inactive)
REMARK    1  A    between atoms: C7_12  and  O2_2 
REMARK    2  A    between atoms: C13_18  and  O4_4 
REMARK    3  A    between atoms: C15_20  and  O5_5 
REMARK    4  A    between atoms: C2_7  and  C4_9 
ROOT
HETATM    1  O1  UNK     1      18.002   3.240  33.302  1.00  0.00    -0.309 OA
HETATM    2  O3  UNK     1      19.157   1.725  29.702  1.00  0.00    -0.287 OA
HETATM    3  C1  UNK     1      18.651   1.314  31.972  1.00  0.00     0.081 A 
HETATM    4  C2  UNK     1      18.163   4.051  32.190  1.00  0.00     0.090 A 
HETATM    5  C3  UNK     1      18.252   1.897  33.174  1.00  0.00     0.093 A 
HETATM    6  C5  UNK     1      18.813   2.169  30.788  1.00  0.00     0.190 A 
HETATM    7  C6  UNK     1      18.536   3.608  30.979  1.00  0.00     0.094 A 
HETATM    8  C7  UNK     1      18.890  -0.060  31.900  1.00  0.00     0.082 A 
HETATM    9  C8  UNK     1      18.089   1.107  34.312  1.00  0.00     0.038 A 
HETATM   10  C11 UNK     1      18.727  -0.849  33.039  1.00  0.00     0.037 A 
HETATM   11  C12 UNK     1      18.328  -0.266  34.243  1.00  0.00     0.006 A 
ENDROOT
BRANCH   4  12
HETATM   12  C4  UNK     1      17.864   5.475  32.438  1.00  0.00     0.001 A 
HETATM   13  C10 UNK     1      18.134   6.041  33.687  1.00  0.00     0.017 A 
HETATM   14  C14 UNK     1      17.851   7.386  33.922  1.00  0.00     0.040 A 
HETATM   15  C15 UNK     1      17.299   8.171  32.909  1.00  0.00     0.098 A 
HETATM   16  C13 UNK     1      17.029   7.609  31.662  1.00  0.00     0.099 A 
HETATM   17  C9  UNK     1      17.312   6.264  31.426  1.00  0.00     0.053 A 
BRANCH  15  18
HETATM   18  O5  UNK     1      17.028   9.484  33.151  1.00  0.00    -0.358 OA
HETATM   19  H10 UNK     1      16.561   9.560  34.000  1.00  0.00     0.217 HD
ENDBRANCH  15  18
BRANCH  16  20
HETATM   20  O4  UNK     1      16.492   8.366  30.664  1.00  0.00    -0.358 OA
HETATM   21  H9  UNK     1      17.208   8.873  30.245  1.00  0.00     0.217 HD
ENDBRANCH  16  20
ENDBRANCH   4  12
BRANCH   8  22
HETATM   22  O2  UNK     1      19.282  -0.677  30.750  1.00  0.00    -0.360 OA
HETATM   23  H8  UNK     1      20.115  -1.153  30.885  1.00  0.00     0.217 HD
ENDBRANCH   8  22
TORSDOF 4
ENDMDL
MODEL 3
REMARK VINA RESULT:      -8.2      5.551      7.864
REMARK  4 active torsions:
REMARK  status: ('A' for Active; 'I' for Inactive)
REMARK    1  A    between atoms: C7_12  and  O2_2 
REMARK    2  A    between atoms: C13_18  and  O4_4 
REMARK    3  A    between atoms: C15_20  and  O5_5 
REMARK    4  A    between atoms: C2_7  and  C4_9 
ROOT
HETATM    1  O1  UNK     1      18.155   4.217  31.273  1.00  0.00    -0.309 OA
HETATM    2  O3  UNK     1      18.665   1.520  34.283  1.00  0.00    -0.287 OA
HETATM    3  C1  UNK     1      18.681   1.947  31.959  1.00  0.00     0.081 A 
HETATM    4  C2  UNK     1      17.985   4.570  32.602  1.00  0.00     0.090 A 
HETATM    5  C3  UNK     1      18.493   2.920  30.978  1.00  0.00     0.093 A 
HETATM    6  C5  UNK     1      18.512   2.320  33.371  1.00  0.00     0.190 A 
HETATM    7  C6  UNK     1      18.145   3.727  33.635  1.00  0.00     0.094 A 
HETATM    8  C7  UNK     1      19.026   0.642  31.602  1.00  0.00     0.082 A 
HETATM    9  C8  UNK     1      18.649   2.592  29.632  1.00  0.00     0.038 A 
HETATM   10  C11 UNK     1      19.182   0.316  30.254  1.00  0.00     0.037 A 
HETATM   11  C12 UNK     1      18.993   1.289  29.271  1.00  0.00     0.006 A 
ENDROOT
BRANCH   4  12
HETATM   12  C4  UNK     1      17.627   5.988  32.805  1.00  0.00     0.001 A 
HETATM   13  C10 UNK     1      18.063   6.665  33.947  1.00  0.00     0.017 A 
HETATM   14  C14 UNK     1      17.724   8.004  34.139  1.00  0.00     0.040 A 
HETATM   15  C15 UNK     1      16.949   8.671  33.190  1.00  0.00     0.098 A 
HETATM   16  C13 UNK     1      16.514   7.998  32.048  1.00  0.00     0.099 A 
HETATM   17  C9  UNK     1      16.853   6.659  31.856  1.00  0.00     0.053 A 
BRANCH  15  18
HETATM   18  O5  UNK     1      16.626   9.980  33.388  1.00  0.00    -0.358 OA
HETATM   19  H10 UNK     1      16.345  10.100  34.311  1.00  0.00     0.217 HD
ENDBRANCH  15  18
BRANCH  16  20
HETATM   20  O4  UNK     1      15.759   8.640  31.113  1.00  0.00    -0.358 OA
HETATM   21  H9  UNK     1      14.833   8.362  31.223  1.00  0.00     0.217 HD
ENDBRANCH  16  20
ENDBRANCH   4  12
BRANCH   8  22
HETATM   22  O2  UNK     1      19.222  -0.344  32.522  1.00  0.00    -0.360 OA
HETATM   23  H8  UNK     1      19.278   0.031  33.414  1.00  0.00     0.217 HD
ENDBRANCH   8  22
TORSDOF 4
ENDMDL
MODEL 4
REMARK VINA RESULT:      -8.2     15.038     18.056
REMARK  4 active torsions:
REMARK  status: ('A' for Active; 'I' for Inactive)
REMARK    1  A    between atoms: C7_12  and  O2_2 
REMARK    2  A    between atoms: C13_18  and  O4_4 
REMARK    3  A    between atoms: C15_20  and  O5_5 
REMARK    4  A    between atoms: C2_7  and  C4_9 
ROOT
HETATM    1  O1  UNK     1      19.228   0.481  15.545  1.00  0.00    -0.309 OA
HETATM    2  O3  UNK     1      18.771  -0.871  19.360  1.00  0.00    -0.287 OA
HETATM    3  C1  UNK     1      19.129   0.969  17.922  1.00  0.00     0.081 A 
HETATM    4  C2  UNK     1      19.033  -0.863  15.821  1.00  0.00     0.090 A 
HETATM    5  C3  UNK     1      19.277   1.365  16.594  1.00  0.00     0.093 A 
HETATM    6  C5  UNK     1      18.912  -0.455  18.219  1.00  0.00     0.190 A 
HETATM    7  C6  UNK     1      18.871  -1.365  17.055  1.00  0.00     0.094 A 
HETATM    8  C7  UNK     1      19.186   1.912  18.950  1.00  0.00     0.082 A 
HETATM    9  C8  UNK     1      19.482   2.709  16.286  1.00  0.00     0.038 A 
HETATM   10  C11 UNK     1      19.392   3.257  18.640  1.00  0.00     0.037 A 
HETATM   11  C12 UNK     1      19.540   3.655  17.310  1.00  0.00     0.006 A 
ENDROOT
BRANCH   4  12
HETATM   12  C4  UNK     1      18.993  -1.722  14.622  1.00  0.00     0.001 A 
HETATM   13  C10 UNK     1      18.964  -3.113  14.755  1.00  0.00     0.017 A 
HETATM   14  C14 UNK     1      18.927  -3.924  13.622  1.00  0.00     0.040 A 
HETATM   15  C15 UNK     1      18.919  -3.349  12.351  1.00  0.00     0.098 A 
HETATM   16  C13 UNK     1      18.948  -1.962  12.214  1.00  0.00     0.099 A 
HETATM   17  C9  UNK     1      18.985  -1.150  13.348  1.00  0.00     0.053 A 
BRANCH  15  18
HETATM   18  O5  UNK     1      18.883  -4.153  11.252  1.00  0.00    -0.358 OA
HETATM   19  H10 UNK     1      18.788  -3.600  10.458  1.00  0.00     0.217 HD
ENDBRANCH  15  18
BRANCH  16  20
HETATM   20  O4  UNK     1      18.939  -1.389  10.978  1.00  0.00    -0.358 OA
HETATM   21  H9  UNK     1      19.622  -0.697  10.956  1.00  0.00     0.217 HD
ENDBRANCH  16  20
ENDBRANCH   4  12
BRANCH   8  22
HETATM   22  O2  UNK     1      19.047   1.576  20.263  1.00  0.00    -0.360 OA
HETATM   23  H8  UNK     1      19.613   2.134  20.819  1.00  0.00     0.217 HD
ENDBRANCH   8  22
TORSDOF 4
ENDMDL
MODEL 5
REMARK VINA RESULT:      -8.1     14.875     17.491
REMARK  4 active torsions:
REMARK  status: ('A' for Active; 'I' for Inactive)
REMARK    1  A    between atoms: C7_12  and  O2_2 
REMARK    2  A    between atoms: C13_18  and  O4_4 
REMARK    3  A    between atoms: C15_20  and  O5_5 
REMARK    4  A    between atoms: C2_7  and  C4_9 
ROOT
HETATM    1  O1  UNK     1      19.163   0.398  16.001  1.00  0.00    -0.309 OA
HETATM    2  O3  UNK     1      18.611  -0.372  19.963  1.00  0.00    -0.287 OA
HETATM    3  C1  UNK     1      19.085   1.222  18.285  1.00  0.00     0.081 A 
HETATM    4  C2  UNK     1      18.885  -0.879  16.461  1.00  0.00     0.090 A 
HETATM    5  C3  UNK     1      19.261   1.417  16.916  1.00  0.00     0.093 A 
HETATM    6  C5  UNK     1      18.781  -0.130  18.776  1.00  0.00     0.190 A 
HETATM    7  C6  UNK     1      18.689  -1.192  17.752  1.00  0.00     0.094 A 
HETATM    8  C7  UNK     1      19.196   2.296  19.171  1.00  0.00     0.082 A 
HETATM    9  C8  UNK     1      19.549   2.689  16.424  1.00  0.00     0.038 A 
HETATM   10  C11 UNK     1      19.484   3.568  18.677  1.00  0.00     0.037 A 
HETATM   11  C12 UNK     1      19.661   3.765  17.306  1.00  0.00     0.006 A 
ENDROOT
BRANCH   4  12
HETATM   12  C4  UNK     1      18.798  -1.895  15.394  1.00  0.00     0.001 A 
HETATM   13  C10 UNK     1      19.313  -1.624  14.124  1.00  0.00     0.017 A 
HETATM   14  C14 UNK     1      19.230  -2.584  13.115  1.00  0.00     0.040 A 
HETATM   15  C15 UNK     1      18.632  -3.818  13.373  1.00  0.00     0.098 A 
HETATM   16  C13 UNK     1      18.118  -4.091  14.640  1.00  0.00     0.099 A 
HETATM   17  C9  UNK     1      18.201  -3.132  15.649  1.00  0.00     0.053 A 
BRANCH  15  18
HETATM   18  O5  UNK     1      18.558  -4.747  12.380  1.00  0.00    -0.358 OA
HETATM   19  H10 UNK     1      18.146  -4.343  11.598  1.00  0.00     0.217 HD
ENDBRANCH  15  18
BRANCH  16  20
HETATM   20  O4  UNK     1      17.535  -5.294  14.904  1.00  0.00    -0.358 OA
HETATM   21  H9  UNK     1      16.804  -5.424  14.276  1.00  0.00     0.217 HD
ENDBRANCH  16  20
ENDBRANCH   4  12
BRANCH   8  22
HETATM   22  O2  UNK     1      19.032   2.157  20.516  1.00  0.00    -0.360 OA
HETATM   23  H8  UNK     1      19.877   2.276  20.975  1.00  0.00     0.217 HD
ENDBRANCH   8  22
TORSDOF 4
ENDMDL
MODEL 6
REMARK VINA RESULT:      -8.0     14.560     17.443
REMARK  4 active torsions:
REMARK  status: ('A' for Active; 'I' for Inactive)
REMARK    1  A    between atoms: C7_12  and  O2_2 
REMARK    2  A    between atoms: C13_18  and  O4_4 
REMARK    3  A    between atoms: C15_20  and  O5_5 
REMARK    4  A    between atoms: C2_7  and  C4_9 
ROOT
HETATM    1  O1  UNK     1      18.941  -1.211  17.728  1.00  0.00    -0.309 OA
HETATM    2  O3  UNK     1      19.269   2.067  15.331  1.00  0.00    -0.287 OA
HETATM    3  C1  UNK     1      19.013   1.208  17.517  1.00  0.00     0.081 A 
HETATM    4  C2  UNK     1      19.077  -1.326  16.353  1.00  0.00     0.090 A 
HETATM    5  C3  UNK     1      18.907   0.045  18.279  1.00  0.00     0.093 A 
HETATM    6  C5  UNK     1      19.167   1.090  16.059  1.00  0.00     0.190 A 
HETATM    7  C6  UNK     1      19.194  -0.284  15.515  1.00  0.00     0.094 A 
HETATM    8  C7  UNK     1      18.974   2.461  18.132  1.00  0.00     0.082 A 
HETATM    9  C8  UNK     1      18.762   0.130  19.663  1.00  0.00     0.038 A 
HETATM   10  C11 UNK     1      18.829   2.544  19.517  1.00  0.00     0.037 A 
HETATM   11  C12 UNK     1      18.723   1.381  20.281  1.00  0.00     0.006 A 
ENDROOT
BRANCH   4  12
HETATM   12  C4  UNK     1      19.105  -2.720  15.868  1.00  0.00     0.001 A 
HETATM   13  C10 UNK     1      17.916  -3.367  15.523  1.00  0.00     0.017 A 
HETATM   14  C14 UNK     1      17.942  -4.684  15.065  1.00  0.00     0.040 A 
HETATM   15  C15 UNK     1      19.157  -5.359  14.951  1.00  0.00     0.098 A 
HETATM   16  C13 UNK     1      20.346  -4.716  15.295  1.00  0.00     0.099 A 
HETATM   17  C9  UNK     1      20.320  -3.399  15.752  1.00  0.00     0.053 A 
BRANCH  15  18
HETATM   18  O5  UNK     1      19.170  -6.645  14.502  1.00  0.00    -0.358 OA
HETATM   19  H10 UNK     1      18.283  -7.027  14.610  1.00  0.00     0.217 HD
ENDBRANCH  15  18
BRANCH  16  20
HETATM   20  O4  UNK     1      21.539  -5.365  15.185  1.00  0.00    -0.358 OA
HETATM   21  H9  UNK     1      21.362  -6.308  15.030  1.00  0.00     0.217 HD
ENDBRANCH  16  20
ENDBRANCH   4  12
BRANCH   8  22
HETATM   22  O2  UNK     1      19.074   3.625  17.431  1.00  0.00    -0.360 OA
HETATM   23  H8  UNK     1      19.741   4.206  17.829  1.00  0.00     0.217 HD
ENDBRANCH   8  22
TORSDOF 4
ENDMDL
MODEL 7
REMARK VINA RESULT:      -8.0      4.263      7.660
REMARK  4 active torsions:
REMARK  status: ('A' for Active; 'I' for Inactive)
REMARK    1  A    between atoms: C7_12  and  O2_2 
REMARK    2  A    between atoms: C13_18  and  O4_4 
REMARK    3  A    between atoms: C15_20  and  O5_5 
REMARK    4  A    between atoms: C2_7  and  C4_9 
ROOT
HETATM    1  O1  UNK     1      19.218   1.798  31.495  1.00  0.00    -0.309 OA
HETATM    2  O3  UNK     1      17.886   1.873  27.646  1.00  0.00    -0.287 OA
HETATM    3  C1  UNK     1      19.064   0.708  29.330  1.00  0.00     0.081 A 
HETATM    4  C2  UNK     1      18.498   2.872  30.996  1.00  0.00     0.090 A 
HETATM    5  C3  UNK     1      19.489   0.745  30.658  1.00  0.00     0.093 A 
HETATM    6  C5  UNK     1      18.292   1.841  28.799  1.00  0.00     0.190 A 
HETATM    7  C6  UNK     1      18.030   2.950  29.740  1.00  0.00     0.094 A 
HETATM    8  C7  UNK     1      19.368  -0.391  28.523  1.00  0.00     0.082 A 
HETATM    9  C8  UNK     1      20.221  -0.317  31.186  1.00  0.00     0.038 A 
HETATM   10  C11 UNK     1      20.101  -1.453  29.053  1.00  0.00     0.037 A 
HETATM   11  C12 UNK     1      20.527  -1.416  30.382  1.00  0.00     0.006 A 
ENDROOT
BRANCH   4  12
HETATM   12  C4  UNK     1      18.260   3.945  31.981  1.00  0.00     0.001 A 
HETATM   13  C10 UNK     1      18.317   3.666  33.349  1.00  0.00     0.017 A 
HETATM   14  C14 UNK     1      18.091   4.679  34.281  1.00  0.00     0.040 A 
HETATM   15  C15 UNK     1      17.809   5.975  33.848  1.00  0.00     0.098 A 
HETATM   16  C13 UNK     1      17.754   6.257  32.483  1.00  0.00     0.099 A 
HETATM   17  C9  UNK     1      17.979   5.244  31.552  1.00  0.00     0.053 A 
BRANCH  15  18
HETATM   18  O5  UNK     1      17.592   6.956  34.768  1.00  0.00    -0.358 OA
HETATM   19  H10 UNK     1      16.652   6.958  35.013  1.00  0.00     0.217 HD
ENDBRANCH  15  18
BRANCH  16  20
HETATM   20  O4  UNK     1      17.482   7.519  32.049  1.00  0.00    -0.358 OA
HETATM   21  H9  UNK     1      16.832   7.918  32.654  1.00  0.00     0.217 HD
ENDBRANCH  16  20
ENDBRANCH   4  12
BRANCH   8  22
HETATM   22  O2  UNK     1      18.975  -0.475  27.221  1.00  0.00    -0.360 OA
HETATM   23  H8  UNK     1      19.407  -1.225  26.784  1.00  0.00     0.217 HD
ENDBRANCH   8  22
TORSDOF 4
ENDMDL
MODEL 8
REMARK VINA RESULT:      -8.0      2.288      6.548
REMARK  4 active torsions:
REMARK  status: ('A' for Active; 'I' for Inactive)
REMARK    1  A    between atoms: C7_12  and  O2_2 
REMARK    2  A    between atoms: C13_18  and  O4_4 
REMARK    3  A    between atoms: C15_20  and  O5_5 
REMARK    4  A    between atoms: C2_7  and  C4_9 
ROOT
HETATM    1  O1  UNK     1      18.588   0.427  32.383  1.00  0.00    -0.309 OA
HETATM    2  O3  UNK     1      20.527  -3.155  32.378  1.00  0.00    -0.287 OA
HETATM    3  C1  UNK     1      19.865  -1.240  31.164  1.00  0.00     0.081 A 
HETATM    4  C2  UNK     1      18.654  -0.366  33.519  1.00  0.00     0.090 A 
HETATM    5  C3  UNK     1      19.186  -0.024  31.234  1.00  0.00     0.093 A 
HETATM    6  C5  UNK     1      19.945  -2.080  32.368  1.00  0.00     0.190 A 
HETATM    7  C6  UNK     1      19.282  -1.550  33.578  1.00  0.00     0.094 A 
HETATM    8  C7  UNK     1      20.457  -1.650  29.966  1.00  0.00     0.082 A 
HETATM    9  C8  UNK     1      19.097   0.790  30.106  1.00  0.00     0.038 A 
HETATM   10  C11 UNK     1      20.366  -0.833  28.839  1.00  0.00     0.037 A 
HETATM   11  C12 UNK     1      19.687   0.385  28.909  1.00  0.00     0.006 A 
ENDROOT
BRANCH   4  12
HETATM   12  C4  UNK     1      17.981   0.217  34.696  1.00  0.00     0.001 A 
HETATM   13  C10 UNK     1      16.627  -0.037  34.928  1.00  0.00     0.017 A 
HETATM   14  C14 UNK     1      15.991   0.513  36.040  1.00  0.00     0.040 A 
HETATM   15  C15 UNK     1      16.707   1.319  36.925  1.00  0.00     0.098 A 
HETATM   16  C13 UNK     1      18.059   1.574  36.698  1.00  0.00     0.099 A 
HETATM   17  C9  UNK     1      18.695   1.024  35.585  1.00  0.00     0.053 A 
BRANCH  15  18
HETATM   18  O5  UNK     1      16.075   1.851  38.009  1.00  0.00    -0.358 OA
HETATM   19  H10 UNK     1      16.739   2.080  38.681  1.00  0.00     0.217 HD
ENDBRANCH  15  18
BRANCH  16  20
HETATM   20  O4  UNK     1      18.769   2.358  37.557  1.00  0.00    -0.358 OA
HETATM   21  H9  UNK     1      18.671   3.285  37.279  1.00  0.00     0.217 HD
ENDBRANCH  16  20
ENDBRANCH   4  12
BRANCH   8  22
HETATM   22  O2  UNK     1      21.130  -2.828  29.846  1.00  0.00    -0.360 OA
HETATM   23  H8  UNK     1      21.709  -2.811  29.069  1.00  0.00     0.217 HD
ENDBRANCH   8  22
TORSDOF 4
ENDMDL
MODEL 9
REMARK VINA RESULT:      -8.0      1.728      7.300
REMARK  4 active torsions:
REMARK  status: ('A' for Active; 'I' for Inactive)
REMARK    1  A    between atoms: C7_12  and  O2_2 
REMARK    2  A    between atoms: C13_18  and  O4_4 
REMARK    3  A    between atoms: C15_20  and  O5_5 
REMARK    4  A    between atoms: C2_7  and  C4_9 
ROOT
HETATM    1  O1  UNK     1      19.303  -0.312  32.827  1.00  0.00    -0.309 OA
HETATM    2  O3  UNK     1      17.912   2.652  30.404  1.00  0.00    -0.287 OA
HETATM    3  C1  UNK     1      19.084   0.610  30.590  1.00  0.00     0.081 A 
HETATM    4  C2  UNK     1      18.606   0.773  33.333  1.00  0.00     0.090 A 
HETATM    5  C3  UNK     1      19.531  -0.371  31.475  1.00  0.00     0.093 A 
HETATM    6  C5  UNK     1      18.336   1.758  31.122  1.00  0.00     0.190 A 
HETATM    7  C6  UNK     1      18.120   1.776  32.584  1.00  0.00     0.094 A 
HETATM    8  C7  UNK     1      19.344   0.498  29.223  1.00  0.00     0.082 A 
HETATM    9  C8  UNK     1      20.242  -1.470  30.995  1.00  0.00     0.038 A 
HETATM   10  C11 UNK     1      20.056  -0.603  28.745  1.00  0.00     0.037 A 
HETATM   11  C12 UNK     1      20.504  -1.585  29.630  1.00  0.00     0.006 A 
ENDROOT
BRANCH   4  12
HETATM   12  C4  UNK     1      18.414   0.733  34.796  1.00  0.00     0.001 A 
HETATM   13  C10 UNK     1      18.388   1.920  35.533  1.00  0.00     0.017 A 
HETATM   14  C14 UNK     1      18.208   1.882  36.915  1.00  0.00     0.040 A 
HETATM   15  C15 UNK     1      18.052   0.658  37.566  1.00  0.00     0.098 A 
HETATM   16  C13 UNK     1      18.076  -0.529  36.833  1.00  0.00     0.099 A 
HETATM   17  C9  UNK     1      18.257  -0.491  35.451  1.00  0.00     0.053 A 
BRANCH  15  18
HETATM   18  O5  UNK     1      17.875   0.634  38.916  1.00  0.00    -0.358 OA
HETATM   19  H10 UNK     1      17.820  -0.291  39.212  1.00  0.00     0.217 HD
ENDBRANCH  15  18
BRANCH  16  20
HETATM   20  O4  UNK     1      17.922  -1.730  37.457  1.00  0.00    -0.358 OA
HETATM   21  H9  UNK     1      17.606  -1.567  38.362  1.00  0.00     0.217 HD
ENDBRANCH  16  20
ENDBRANCH   4  12
BRANCH   8  22
HETATM   22  O2  UNK     1      18.929   1.429  28.319  1.00  0.00    -0.360 OA
HETATM   23  H8  UNK     1      18.376   1.018  27.637  1.00  0.00     0.217 HD
ENDBRANCH   8  22
TORSDOF 4
ENDMDL
MODEL 10
REMARK VINA RESULT:      -8.0      3.852      7.521
REMARK  4 active torsions:
REMARK  status: ('A' for Active; 'I' for Inactive)
REMARK    1  A    between atoms: C7_12  and  O2_2 
REMARK    2  A    between atoms: C13_18  and  O4_4 
REMARK    3  A    between atoms: C15_20  and  O5_5 
REMARK    4  A    between atoms: C2_7  and  C4_9 
ROOT
HETATM    1  O1  UNK     1      18.244   3.573  34.112  1.00  0.00    -0.309 OA
HETATM    2  O3  UNK     1      18.579   2.624  30.165  1.00  0.00    -0.287 OA
HETATM    3  C1  UNK     1      18.506   4.314  31.814  1.00  0.00     0.081 A 
HETATM    4  C2  UNK     1      18.207   2.259  33.675  1.00  0.00     0.090 A 
HETATM    5  C3  UNK     1      18.387   4.569  33.180  1.00  0.00     0.093 A 
HETATM    6  C5  UNK     1      18.477   2.920  31.347  1.00  0.00     0.190 A 
HETATM    7  C6  UNK     1      18.317   1.886  32.391  1.00  0.00     0.094 A 
HETATM    8  C7  UNK     1      18.652   5.368  30.909  1.00  0.00     0.082 A 
HETATM    9  C8  UNK     1      18.413   5.882  33.648  1.00  0.00     0.038 A 
HETATM   10  C11 UNK     1      18.677   6.681  31.380  1.00  0.00     0.037 A 
HETATM   11  C12 UNK     1      18.558   6.938  32.747  1.00  0.00     0.006 A 
ENDROOT
BRANCH   4  12
HETATM   12  C4  UNK     1      18.054   1.270  34.761  1.00  0.00     0.001 A 
HETATM   13  C10 UNK     1      17.903  -0.086  34.458  1.00  0.00     0.017 A 
HETATM   14  C14 UNK     1      17.758  -1.020  35.483  1.00  0.00     0.040 A 
HETATM   15  C15 UNK     1      17.762  -0.602  36.814  1.00  0.00     0.098 A 
HETATM   16  C13 UNK     1      17.913   0.750  37.119  1.00  0.00     0.099 A 
HETATM   17  C9  UNK     1      18.059   1.684  36.094  1.00  0.00     0.053 A 
BRANCH  15  18
HETATM   18  O5  UNK     1      17.620  -1.525  37.807  1.00  0.00    -0.358 OA
HETATM   19  H10 UNK     1      17.019  -2.225  37.504  1.00  0.00     0.217 HD
ENDBRANCH  15  18
BRANCH  16  20
HETATM   20  O4  UNK     1      17.921   1.169  38.416  1.00  0.00    -0.358 OA
HETATM   21  H9  UNK     1      17.581   2.080  38.446  1.00  0.00     0.217 HD
ENDBRANCH  16  20
ENDBRANCH   4  12
BRANCH   8  22
HETATM   22  O2  UNK     1      18.772   5.171  29.567  1.00  0.00    -0.360 OA
HETATM   23  H8  UNK     1      19.196   4.318  29.385  1.00  0.00     0.217 HD
ENDBRANCH   8  22
TORSDOF 4
ENDMDL
