MODEL 1
REMARK VINA RESULT:      -7.9      0.000      0.000
REMARK  3 active torsions:
REMARK  status: ('A' for Active; 'I' for Inactive)
REMARK    1  A    between atoms: C6_10  and  O2_2 
REMARK    2  A    between atoms: C5_9  and  O3_3 
REMARK    3  A    between atoms: C3_7  and  C7_11 
ROOT
HETATM    1  O1  UNK     1      19.033  -0.736  33.600  1.00  0.00    -0.306 OA
HETATM    2  O4  UNK     1      18.822   1.740  30.371  1.00  0.00    -0.284 OA
HETATM    3  C1  UNK     1      19.530  -0.327  31.260  1.00  0.00     0.084 A 
HETATM    4  C2  UNK     1      19.571  -1.125  32.400  1.00  0.00     0.093 A 
HETATM    5  C3  UNK     1      18.413   0.500  33.677  1.00  0.00     0.123 A 
HETATM    6  C4  UNK     1      18.884   0.993  31.338  1.00  0.00     0.223 A 
HETATM    7  C5  UNK     1      18.314   1.368  32.654  1.00  0.00     0.152 A 
HETATM    8  C6  UNK     1      20.096  -0.776  30.064  1.00  0.00     0.085 A 
HETATM    9  C8  UNK     1      20.179  -2.380  32.352  1.00  0.00     0.038 A 
HETATM   10  C9  UNK     1      20.703  -2.031  30.018  1.00  0.00     0.038 A 
HETATM   11  C10 UNK     1      20.745  -2.832  31.160  1.00  0.00     0.006 A 
ENDROOT
BRANCH   5  12
HETATM   12  C7  UNK     1      17.880   0.795  35.019  1.00  0.00     0.001 A 
HETATM   13  C11 UNK     1      16.583   0.406  35.357  1.00  0.00     0.014 A 
HETATM   14  C13 UNK     1      16.082   0.683  36.628  1.00  0.00     0.001 A 
HETATM   15  C15 UNK     1      16.876   1.348  37.562  1.00  0.00     0.000 A 
HETATM   16  C14 UNK     1      18.172   1.736  37.224  1.00  0.00     0.001 A 
HETATM   17  C12 UNK     1      18.674   1.459  35.953  1.00  0.00     0.014 A 
ENDBRANCH   5  12
BRANCH   7  18
HETATM   18  O3  UNK     1      17.718   2.605  32.772  1.00  0.00    -0.355 OA
HETATM   19  H9  UNK     1      16.987   2.561  33.410  1.00  0.00     0.218 HD
ENDBRANCH   7  18
BRANCH   8  20
HETATM   20  O2  UNK     1      20.082  -0.034  28.921  1.00  0.00    -0.355 OA
HETATM   21  C16 UNK     1      19.174  -0.438  27.898  1.00  0.00     0.210 C 
ENDBRANCH   8  20
TORSDOF 3
ENDMDL
MODEL 2
REMARK VINA RESULT:      -7.8     13.295     16.877
REMARK  3 active torsions:
REMARK  status: ('A' for Active; 'I' for Inactive)
REMARK    1  A    between atoms: C6_10  and  O2_2 
REMARK    2  A    between atoms: C5_9  and  O3_3 
REMARK    3  A    between atoms: C3_7  and  C7_11 
ROOT
HETATM    1  O1  UNK     1      18.912  -1.235  17.736  1.00  0.00    -0.306 OA
HETATM    2  O4  UNK     1      19.440   2.224  15.648  1.00  0.00    -0.284 OA
HETATM    3  C1  UNK     1      19.107   1.184  17.739  1.00  0.00     0.084 A 
HETATM    4  C2  UNK     1      18.929  -0.032  18.393  1.00  0.00     0.093 A 
HETATM    5  C3  UNK     1      19.090  -1.240  16.362  1.00  0.00     0.123 A 
HETATM    6  C4  UNK     1      19.285   1.187  16.278  1.00  0.00     0.223 A 
HETATM    7  C5  UNK     1      19.263  -0.137  15.611  1.00  0.00     0.152 A 
HETATM    8  C6  UNK     1      19.116   2.380  18.462  1.00  0.00     0.085 A 
HETATM    9  C8  UNK     1      18.758  -0.061  19.778  1.00  0.00     0.038 A 
HETATM   10  C9  UNK     1      18.944   2.348  19.846  1.00  0.00     0.038 A 
HETATM   11  C10 UNK     1      18.765   1.130  20.503  1.00  0.00     0.006 A 
ENDROOT
BRANCH   5  12
HETATM   12  C7  UNK     1      19.049  -2.594  15.781  1.00  0.00     0.001 A 
HETATM   13  C11 UNK     1      17.831  -3.149  15.389  1.00  0.00     0.014 A 
HETATM   14  C13 UNK     1      17.794  -4.429  14.836  1.00  0.00     0.001 A 
HETATM   15  C15 UNK     1      18.975  -5.154  14.675  1.00  0.00     0.000 A 
HETATM   16  C14 UNK     1      20.193  -4.599  15.067  1.00  0.00     0.001 A 
HETATM   17  C12 UNK     1      20.230  -3.319  15.620  1.00  0.00     0.014 A 
ENDBRANCH   5  12
BRANCH   7  18
HETATM   18  O3  UNK     1      19.407  -0.174  14.241  1.00  0.00    -0.355 OA
HETATM   19  H9  UNK     1      20.317  -0.420  14.011  1.00  0.00     0.218 HD
ENDBRANCH   7  18
BRANCH   8  20
HETATM   20  O2  UNK     1      19.286   3.595  17.870  1.00  0.00    -0.355 OA
HETATM   21  C16 UNK     1      20.394   4.379  18.308  1.00  0.00     0.210 C 
ENDBRANCH   8  20
TORSDOF 3
ENDMDL
MODEL 3
REMARK VINA RESULT:      -7.7      3.204      7.065
REMARK  3 active torsions:
REMARK  status: ('A' for Active; 'I' for Inactive)
REMARK    1  A    between atoms: C6_10  and  O2_2 
REMARK    2  A    between atoms: C5_9  and  O3_3 
REMARK    3  A    between atoms: C3_7  and  C7_11 
ROOT
HETATM    1  O1  UNK     1      19.002   3.412  30.264  1.00  0.00    -0.306 OA
HETATM    2  O4  UNK     1      17.818   3.251  34.160  1.00  0.00    -0.284 OA
HETATM    3  C1  UNK     1      18.237   4.575  32.253  1.00  0.00     0.084 A 
HETATM    4  C2  UNK     1      18.651   4.562  30.923  1.00  0.00     0.093 A 
HETATM    5  C3  UNK     1      18.930   2.210  30.948  1.00  0.00     0.123 A 
HETATM    6  C4  UNK     1      18.170   3.302  32.989  1.00  0.00     0.223 A 
HETATM    7  C5  UNK     1      18.555   2.086  32.235  1.00  0.00     0.152 A 
HETATM    8  C6  UNK     1      17.891   5.778  32.873  1.00  0.00     0.085 A 
HETATM    9  C8  UNK     1      18.724   5.756  30.204  1.00  0.00     0.038 A 
HETATM   10  C9  UNK     1      17.965   6.970  32.152  1.00  0.00     0.038 A 
HETATM   11  C10 UNK     1      18.381   6.959  30.819  1.00  0.00     0.006 A 
ENDROOT
BRANCH   5  12
HETATM   12  C7  UNK     1      19.334   1.055  30.127  1.00  0.00     0.001 A 
HETATM   13  C11 UNK     1      20.321   0.182  30.587  1.00  0.00     0.014 A 
HETATM   14  C13 UNK     1      20.700  -0.913  29.811  1.00  0.00     0.001 A 
HETATM   15  C15 UNK     1      20.093  -1.135  28.575  1.00  0.00     0.000 A 
HETATM   16  C14 UNK     1      19.107  -0.262  28.115  1.00  0.00     0.001 A 
HETATM   17  C12 UNK     1      18.727   0.832  28.892  1.00  0.00     0.014 A 
ENDBRANCH   5  12
BRANCH   7  18
HETATM   18  O3  UNK     1      18.524   0.877  32.896  1.00  0.00    -0.355 OA
HETATM   19  H9  UNK     1      19.055   0.930  33.707  1.00  0.00     0.218 HD
ENDBRANCH   7  18
BRANCH   8  20
HETATM   20  O2  UNK     1      17.480   5.844  34.170  1.00  0.00    -0.355 OA
HETATM   21  C16 UNK     1      16.778   7.021  34.568  1.00  0.00     0.210 C 
ENDBRANCH   8  20
TORSDOF 3
ENDMDL
MODEL 4
REMARK VINA RESULT:      -7.7      1.348      2.822
REMARK  3 active torsions:
REMARK  status: ('A' for Active; 'I' for Inactive)
REMARK    1  A    between atoms: C6_10  and  O2_2 
REMARK    2  A    between atoms: C5_9  and  O3_3 
REMARK    3  A    between atoms: C3_7  and  C7_11 
ROOT
HETATM    1  O1  UNK     1      17.952   1.878  33.015  1.00  0.00    -0.306 OA
HETATM    2  O4  UNK     1      19.664  -1.484  31.475  1.00  0.00    -0.284 OA
HETATM    3  C1  UNK     1      18.948   0.735  31.120  1.00  0.00     0.084 A 
HETATM    4  C2  UNK     1      18.356   1.851  31.706  1.00  0.00     0.093 A 
HETATM    5  C3  UNK     1      18.153   0.749  33.792  1.00  0.00     0.123 A 
HETATM    6  C4  UNK     1      19.153  -0.472  31.936  1.00  0.00     0.223 A 
HETATM    7  C5  UNK     1      18.705  -0.395  33.347  1.00  0.00     0.152 A 
HETATM    8  C6  UNK     1      19.339   0.766  29.779  1.00  0.00     0.085 A 
HETATM    9  C8  UNK     1      18.149   3.008  30.952  1.00  0.00     0.038 A 
HETATM   10  C9  UNK     1      19.132   1.923  29.028  1.00  0.00     0.038 A 
HETATM   11  C10 UNK     1      18.538   3.042  29.613  1.00  0.00     0.006 A 
ENDROOT
BRANCH   5  12
HETATM   12  C7  UNK     1      17.675   0.909  35.176  1.00  0.00     0.001 A 
HETATM   13  C11 UNK     1      16.387   0.498  35.523  1.00  0.00     0.014 A 
HETATM   14  C13 UNK     1      15.937   0.648  36.834  1.00  0.00     0.001 A 
HETATM   15  C15 UNK     1      16.774   1.208  37.800  1.00  0.00     0.000 A 
HETATM   16  C14 UNK     1      18.061   1.619  37.453  1.00  0.00     0.001 A 
HETATM   17  C12 UNK     1      18.511   1.469  36.142  1.00  0.00     0.014 A 
ENDBRANCH   5  12
BRANCH   7  18
HETATM   18  O3  UNK     1      18.862  -1.512  34.138  1.00  0.00    -0.355 OA
HETATM   19  H9  UNK     1      18.235  -2.201  33.865  1.00  0.00     0.218 HD
ENDBRANCH   7  18
BRANCH   8  20
HETATM   20  O2  UNK     1      19.923  -0.298  29.159  1.00  0.00    -0.355 OA
HETATM   21  C16 UNK     1      19.310  -0.766  27.959  1.00  0.00     0.210 C 
ENDBRANCH   8  20
TORSDOF 3
ENDMDL
MODEL 5
REMARK VINA RESULT:      -7.7      3.620      5.066
REMARK  3 active torsions:
REMARK  status: ('A' for Active; 'I' for Inactive)
REMARK    1  A    between atoms: C6_10  and  O2_2 
REMARK    2  A    between atoms: C5_9  and  O3_3 
REMARK    3  A    between atoms: C3_7  and  C7_11 
ROOT
HETATM    1  O1  UNK     1      18.415   3.688  34.679  1.00  0.00    -0.306 OA
HETATM    2  O4  UNK     1      18.255   1.671  31.142  1.00  0.00    -0.284 OA
HETATM    3  C1  UNK     1      18.350   1.569  33.497  1.00  0.00     0.084 A 
HETATM    4  C2  UNK     1      18.406   2.317  34.670  1.00  0.00     0.093 A 
HETATM    5  C3  UNK     1      18.355   4.357  33.468  1.00  0.00     0.123 A 
HETATM    6  C4  UNK     1      18.299   2.274  32.206  1.00  0.00     0.223 A 
HETATM    7  C5  UNK     1      18.307   3.755  32.265  1.00  0.00     0.152 A 
HETATM    8  C6  UNK     1      18.344   0.173  33.549  1.00  0.00     0.085 A 
HETATM    9  C8  UNK     1      18.456   1.672  35.907  1.00  0.00     0.038 A 
HETATM   10  C9  UNK     1      18.394  -0.469  34.787  1.00  0.00     0.038 A 
HETATM   11  C10 UNK     1      18.450   0.279  35.964  1.00  0.00     0.006 A 
ENDROOT
BRANCH   5  12
HETATM   12  C7  UNK     1      18.373   5.823  33.618  1.00  0.00     0.001 A 
HETATM   13  C11 UNK     1      17.180   6.545  33.573  1.00  0.00     0.014 A 
HETATM   14  C13 UNK     1      17.198   7.932  33.719  1.00  0.00     0.001 A 
HETATM   15  C15 UNK     1      18.409   8.597  33.909  1.00  0.00     0.000 A 
HETATM   16  C14 UNK     1      19.602   7.876  33.953  1.00  0.00     0.001 A 
HETATM   17  C12 UNK     1      19.584   6.489  33.808  1.00  0.00     0.014 A 
ENDBRANCH   5  12
BRANCH   7  18
HETATM   18  O3  UNK     1      18.280   4.451  31.076  1.00  0.00    -0.355 OA
HETATM   19  H9  UNK     1      19.162   4.809  30.882  1.00  0.00     0.218 HD
ENDBRANCH   7  18
BRANCH   8  20
HETATM   20  O2  UNK     1      18.290  -0.604  32.432  1.00  0.00    -0.355 OA
HETATM   21  C16 UNK     1      19.368  -1.515  32.224  1.00  0.00     0.210 C 
ENDBRANCH   8  20
TORSDOF 3
ENDMDL
MODEL 6
REMARK VINA RESULT:      -7.7      1.864      2.123
REMARK  3 active torsions:
REMARK  status: ('A' for Active; 'I' for Inactive)
REMARK    1  A    between atoms: C6_10  and  O2_2 
REMARK    2  A    between atoms: C5_9  and  O3_3 
REMARK    3  A    between atoms: C3_7  and  C7_11 
ROOT
HETATM    1  O1  UNK     1      19.369  -1.180  33.084  1.00  0.00    -0.306 OA
HETATM    2  O4  UNK     1      18.132   2.481  31.792  1.00  0.00    -0.284 OA
HETATM    3  C1  UNK     1      19.156   0.421  31.272  1.00  0.00     0.084 A 
HETATM    4  C2  UNK     1      19.557  -0.814  31.777  1.00  0.00     0.093 A 
HETATM    5  C3  UNK     1      18.742  -0.287  33.937  1.00  0.00     0.123 A 
HETATM    6  C4  UNK     1      18.501   1.380  32.177  1.00  0.00     0.223 A 
HETATM    7  C5  UNK     1      18.316   0.938  33.580  1.00  0.00     0.152 A 
HETATM    8  C6  UNK     1      19.375   0.740  29.930  1.00  0.00     0.085 A 
HETATM    9  C8  UNK     1      20.182  -1.739  30.939  1.00  0.00     0.038 A 
HETATM   10  C9  UNK     1      19.999  -0.187  29.095  1.00  0.00     0.038 A 
HETATM   11  C10 UNK     1      20.402  -1.425  29.598  1.00  0.00     0.006 A 
ENDROOT
BRANCH   5  12
HETATM   12  C7  UNK     1      18.604  -0.803  35.310  1.00  0.00     0.001 A 
HETATM   13  C11 UNK     1      17.649  -0.257  36.169  1.00  0.00     0.014 A 
HETATM   14  C13 UNK     1      17.517  -0.748  37.467  1.00  0.00     0.001 A 
HETATM   15  C15 UNK     1      18.339  -1.785  37.908  1.00  0.00     0.000 A 
HETATM   16  C14 UNK     1      19.293  -2.331  37.050  1.00  0.00     0.001 A 
HETATM   17  C12 UNK     1      19.425  -1.840  35.751  1.00  0.00     0.014 A 
ENDBRANCH   5  12
BRANCH   7  18
HETATM   18  O3  UNK     1      17.724   1.816  34.461  1.00  0.00    -0.355 OA
HETATM   19  H9  UNK     1      16.765   1.666  34.483  1.00  0.00     0.218 HD
ENDBRANCH   7  18
BRANCH   8  20
HETATM   20  O2  UNK     1      19.001   1.933  29.388  1.00  0.00    -0.355 OA
HETATM   21  C16 UNK     1      17.882   1.921  28.503  1.00  0.00     0.210 C 
ENDBRANCH   8  20
TORSDOF 3
ENDMDL
MODEL 7
REMARK VINA RESULT:      -7.6     23.522     26.201
REMARK  3 active torsions:
REMARK  status: ('A' for Active; 'I' for Inactive)
REMARK    1  A    between atoms: C6_10  and  O2_2 
REMARK    2  A    between atoms: C5_9  and  O3_3 
REMARK    3  A    between atoms: C3_7  and  C7_11 
ROOT
HETATM    1  O1  UNK     1      12.871   8.343   8.142  1.00  0.00    -0.306 OA
HETATM    2  O4  UNK     1      14.768   5.815  10.715  1.00  0.00    -0.284 OA
HETATM    3  C1  UNK     1      14.764   7.889   9.592  1.00  0.00     0.084 A 
HETATM    4  C2  UNK     1      14.067   8.706   8.705  1.00  0.00     0.093 A 
HETATM    5  C3  UNK     1      12.328   7.115   8.481  1.00  0.00     0.123 A 
HETATM    6  C4  UNK     1      14.199   6.578   9.946  1.00  0.00     0.223 A 
HETATM    7  C5  UNK     1      12.902   6.230   9.317  1.00  0.00     0.152 A 
HETATM    8  C6  UNK     1      15.981   8.312  10.134  1.00  0.00     0.085 A 
HETATM    9  C8  UNK     1      14.584   9.954   8.353  1.00  0.00     0.038 A 
HETATM   10  C9  UNK     1      16.495   9.560   9.781  1.00  0.00     0.038 A 
HETATM   11  C10 UNK     1      15.798  10.380   8.891  1.00  0.00     0.006 A 
ENDROOT
BRANCH   5  12
HETATM   12  C7  UNK     1      11.044   6.848   7.808  1.00  0.00     0.001 A 
HETATM   13  C11 UNK     1       9.842   7.057   8.486  1.00  0.00     0.014 A 
HETATM   14  C13 UNK     1       8.629   6.807   7.846  1.00  0.00     0.001 A 
HETATM   15  C15 UNK     1       8.616   6.348   6.529  1.00  0.00     0.000 A 
HETATM   16  C14 UNK     1       9.816   6.138   5.852  1.00  0.00     0.001 A 
HETATM   17  C12 UNK     1      11.030   6.389   6.491  1.00  0.00     0.014 A 
ENDBRANCH   5  12
BRANCH   7  18
HETATM   18  O3  UNK     1      12.350   5.002   9.608  1.00  0.00    -0.355 OA
HETATM   19  H9  UNK     1      12.011   4.999  10.518  1.00  0.00     0.218 HD
ENDBRANCH   7  18
BRANCH   8  20
HETATM   20  O2  UNK     1      16.701   7.552  11.006  1.00  0.00    -0.355 OA
HETATM   21  C16 UNK     1      17.975   7.089  10.562  1.00  0.00     0.210 C 
ENDBRANCH   8  20
TORSDOF 3
ENDMDL
MODEL 8
REMARK VINA RESULT:      -7.5      4.096      6.561
REMARK  3 active torsions:
REMARK  status: ('A' for Active; 'I' for Inactive)
REMARK    1  A    between atoms: C6_10  and  O2_2 
REMARK    2  A    between atoms: C5_9  and  O3_3 
REMARK    3  A    between atoms: C3_7  and  C7_11 
ROOT
HETATM    1  O1  UNK     1      18.965  -2.478  37.415  1.00  0.00    -0.306 OA
HETATM    2  O4  UNK     1      19.675  -1.226  33.602  1.00  0.00    -0.284 OA
HETATM    3  C1  UNK     1      18.808  -0.729  35.739  1.00  0.00     0.084 A 
HETATM    4  C2  UNK     1      18.592  -1.217  37.025  1.00  0.00     0.093 A 
HETATM    5  C3  UNK     1      19.594  -3.296  36.491  1.00  0.00     0.123 A 
HETATM    6  C4  UNK     1      19.464  -1.598  34.749  1.00  0.00     0.223 A 
HETATM    7  C5  UNK     1      19.853  -2.950  35.216  1.00  0.00     0.152 A 
HETATM    8  C6  UNK     1      18.406   0.565  35.398  1.00  0.00     0.085 A 
HETATM    9  C8  UNK     1      17.971  -0.413  37.982  1.00  0.00     0.038 A 
HETATM   10  C9  UNK     1      17.785   1.367  36.356  1.00  0.00     0.038 A 
HETATM   11  C10 UNK     1      17.568   0.879  37.646  1.00  0.00     0.006 A 
ENDROOT
BRANCH   5  12
HETATM   12  C7  UNK     1      19.940  -4.621  37.036  1.00  0.00     0.001 A 
HETATM   13  C11 UNK     1      21.139  -4.801  37.727  1.00  0.00     0.014 A 
HETATM   14  C13 UNK     1      21.464  -6.054  38.245  1.00  0.00     0.001 A 
HETATM   15  C15 UNK     1      20.590  -7.127  38.073  1.00  0.00     0.000 A 
HETATM   16  C14 UNK     1      19.392  -6.948  37.383  1.00  0.00     0.001 A 
HETATM   17  C12 UNK     1      19.067  -5.694  36.865  1.00  0.00     0.014 A 
ENDBRANCH   5  12
BRANCH   7  18
HETATM   18  O3  UNK     1      20.452  -3.800  34.313  1.00  0.00    -0.355 OA
HETATM   19  H9  UNK     1      21.135  -3.324  33.814  1.00  0.00     0.218 HD
ENDBRANCH   7  18
BRANCH   8  20
HETATM   20  O2  UNK     1      18.594   1.090  34.155  1.00  0.00    -0.355 OA
HETATM   21  C16 UNK     1      18.174   2.437  33.950  1.00  0.00     0.210 C 
ENDBRANCH   8  20
TORSDOF 3
ENDMDL
MODEL 9
REMARK VINA RESULT:      -7.5      2.121      6.167
REMARK  3 active torsions:
REMARK  status: ('A' for Active; 'I' for Inactive)
REMARK    1  A    between atoms: C6_10  and  O2_2 
REMARK    2  A    between atoms: C5_9  and  O3_3 
REMARK    3  A    between atoms: C3_7  and  C7_11 
ROOT
HETATM    1  O1  UNK     1      19.434  -1.399  33.744  1.00  0.00    -0.306 OA
HETATM    2  O4  UNK     1      17.205   1.717  35.133  1.00  0.00    -0.284 OA
HETATM    3  C1  UNK     1      18.285  -0.328  35.595  1.00  0.00     0.084 A 
HETATM    4  C2  UNK     1      19.045  -1.364  35.058  1.00  0.00     0.093 A 
HETATM    5  C3  UNK     1      19.063  -0.351  32.918  1.00  0.00     0.123 A 
HETATM    6  C4  UNK     1      17.877   0.782  34.719  1.00  0.00     0.223 A 
HETATM    7  C5  UNK     1      18.324   0.704  33.308  1.00  0.00     0.152 A 
HETATM    8  C6  UNK     1      17.917  -0.347  36.943  1.00  0.00     0.085 A 
HETATM    9  C8  UNK     1      19.443  -2.429  35.868  1.00  0.00     0.038 A 
HETATM   10  C9  UNK     1      18.317  -1.412  37.750  1.00  0.00     0.038 A 
HETATM   11  C10 UNK     1      19.079  -2.452  37.214  1.00  0.00     0.006 A 
ENDROOT
BRANCH   5  12
HETATM   12  C7  UNK     1      19.543  -0.511  31.534  1.00  0.00     0.001 A 
HETATM   13  C11 UNK     1      19.571   0.586  30.672  1.00  0.00     0.014 A 
HETATM   14  C13 UNK     1      20.029   0.434  29.364  1.00  0.00     0.001 A 
HETATM   15  C15 UNK     1      20.458  -0.816  28.916  1.00  0.00     0.000 A 
HETATM   16  C14 UNK     1      20.429  -1.912  29.776  1.00  0.00     0.001 A 
HETATM   17  C12 UNK     1      19.972  -1.760  31.085  1.00  0.00     0.014 A 
ENDBRANCH   5  12
BRANCH   7  18
HETATM   18  O3  UNK     1      17.945   1.715  32.452  1.00  0.00    -0.355 OA
HETATM   19  H9  UNK     1      16.980   1.820  32.471  1.00  0.00     0.218 HD
ENDBRANCH   7  18
BRANCH   8  20
HETATM   20  O2  UNK     1      17.176   0.642  37.516  1.00  0.00    -0.355 OA
HETATM   21  C16 UNK     1      17.766   1.344  38.608  1.00  0.00     0.210 C 
ENDBRANCH   8  20
TORSDOF 3
ENDMDL
MODEL 10
REMARK VINA RESULT:      -7.5      2.670      4.664
REMARK  3 active torsions:
REMARK  status: ('A' for Active; 'I' for Inactive)
REMARK    1  A    between atoms: C6_10  and  O2_2 
REMARK    2  A    between atoms: C5_9  and  O3_3 
REMARK    3  A    between atoms: C3_7  and  C7_11 
ROOT
HETATM    1  O1  UNK     1      19.222   2.150  30.348  1.00  0.00    -0.306 OA
HETATM    2  O4  UNK     1      18.609   0.015  33.764  1.00  0.00    -0.284 OA
HETATM    3  C1  UNK     1      19.340   0.029  31.521  1.00  0.00     0.084 A 
HETATM    4  C2  UNK     1      19.524   0.814  30.386  1.00  0.00     0.093 A 
HETATM    5  C3  UNK     1      18.723   2.747  31.493  1.00  0.00     0.123 A 
HETATM    6  C4  UNK     1      18.798   0.654  32.738  1.00  0.00     0.223 A 
HETATM    7  C5  UNK     1      18.490   2.102  32.651  1.00  0.00     0.152 A 
HETATM    8  C6  UNK     1      19.666  -1.330  31.501  1.00  0.00     0.085 A 
HETATM    9  C8  UNK     1      20.036   0.243  29.219  1.00  0.00     0.038 A 
HETATM   10  C9  UNK     1      20.178  -1.897  30.334  1.00  0.00     0.038 A 
HETATM   11  C10 UNK     1      20.363  -1.113  29.195  1.00  0.00     0.006 A 
ENDROOT
BRANCH   5  12
HETATM   12  C7  UNK     1      18.440   4.183  31.318  1.00  0.00     0.001 A 
HETATM   13  C11 UNK     1      17.592   4.842  32.209  1.00  0.00     0.014 A 
HETATM   14  C13 UNK     1      17.328   6.201  32.043  1.00  0.00     0.001 A 
HETATM   15  C15 UNK     1      17.911   6.902  30.987  1.00  0.00     0.000 A 
HETATM   16  C14 UNK     1      18.758   6.243  30.097  1.00  0.00     0.001 A 
HETATM   17  C12 UNK     1      19.023   4.884  30.262  1.00  0.00     0.014 A 
ENDBRANCH   5  12
BRANCH   7  18
HETATM   18  O3  UNK     1      17.962   2.719  33.764  1.00  0.00    -0.355 OA
HETATM   19  H9  UNK     1      17.007   2.549  33.815  1.00  0.00     0.218 HD
ENDBRANCH   7  18
BRANCH   8  20
HETATM   20  O2  UNK     1      19.505  -2.140  32.585  1.00  0.00    -0.355 OA
HETATM   21  C16 UNK     1      20.689  -2.661  33.185  1.00  0.00     0.210 C 
ENDBRANCH   8  20
TORSDOF 3
ENDMDL
