MODEL 1
REMARK VINA RESULT:      -8.2      0.000      0.000
REMARK  1 active torsions:
REMARK  status: ('A' for Active; 'I' for Inactive)
REMARK       I    between atoms: C7_11  and  N1_4 
REMARK    1  A    between atoms: C7_11  and  C8_12 
ROOT
HETATM    1  O2  UNK     1      10.628   5.514   9.315  1.00  0.00    -0.274 OA
HETATM    2  O3  UNK     1      12.118   5.062  10.989  1.00  0.00    -0.259 OA
HETATM    3  C8  UNK     1      13.029   5.731   8.907  1.00  0.00     0.108 A 
HETATM    4  C9  UNK     1      12.807   6.107   7.642  1.00  0.00     0.037 A 
HETATM    5  C10 UNK     1      11.918   5.407   9.829  1.00  0.00     0.304 A 
HETATM    6  C11 UNK     1      11.447   6.208   7.135  1.00  0.00    -0.001 A 
HETATM    7  C12 UNK     1      10.388   5.909   7.986  1.00  0.00     0.089 A 
HETATM    8  C13 UNK     1      11.169   6.597   5.822  1.00  0.00     0.014 A 
HETATM    9  C14 UNK     1       9.063   5.987   7.562  1.00  0.00     0.038 A 
HETATM   10  C15 UNK     1       9.844   6.680   5.384  1.00  0.00     0.001 A 
HETATM   11  C16 UNK     1       8.794   6.376   6.252  1.00  0.00     0.003 A 
ENDROOT
BRANCH   3  12
HETATM   12  C7  UNK     1      14.443   5.659   9.327  1.00  0.00     0.259 C 
HETATM   13  O1  UNK     1      15.054   4.615   9.090  1.00  0.00    -0.267 OA
HETATM   14  N1  UNK     1      14.989   6.770   9.966  1.00  0.00    -0.348 N 
HETATM   15  C4  UNK     1      16.388   6.726  10.400  1.00  0.00     0.126 C 
HETATM   16  C5  UNK     1      14.282   8.014  10.300  1.00  0.00     0.126 C 
HETATM   17  C2  UNK     1      17.175   7.916   9.862  1.00  0.00     0.024 C 
HETATM   18  C1  UNK     1      16.500   9.240  10.245  1.00  0.00    -0.015 C 
HETATM   19  C3  UNK     1      15.039   9.237   9.777  1.00  0.00     0.024 C 
HETATM   20  C6  UNK     1      17.257  10.428   9.655  1.00  0.00     0.010 C 
ENDBRANCH   3  12
TORSDOF 1
ENDMDL
MODEL 2
REMARK VINA RESULT:      -8.1      1.297      2.106
REMARK  1 active torsions:
REMARK  status: ('A' for Active; 'I' for Inactive)
REMARK       I    between atoms: C7_11  and  N1_4 
REMARK    1  A    between atoms: C7_11  and  C8_12 
ROOT
HETATM    1  O2  UNK     1      11.699   6.703   6.498  1.00  0.00    -0.274 OA
HETATM    2  O3  UNK     1      13.972   6.925   6.412  1.00  0.00    -0.259 OA
HETATM    3  C8  UNK     1      13.062   6.084   8.431  1.00  0.00     0.108 A 
HETATM    4  C9  UNK     1      11.972   5.731   9.122  1.00  0.00     0.037 A 
HETATM    5  C10 UNK     1      12.975   6.601   7.047  1.00  0.00     0.304 A 
HETATM    6  C11 UNK     1      10.653   5.849   8.519  1.00  0.00    -0.001 A 
HETATM    7  C12 UNK     1      10.548   6.333   7.219  1.00  0.00     0.089 A 
HETATM    8  C13 UNK     1       9.488   5.493   9.203  1.00  0.00     0.014 A 
HETATM    9  C14 UNK     1       9.315   6.470   6.585  1.00  0.00     0.038 A 
HETATM   10  C15 UNK     1       8.244   5.625   8.579  1.00  0.00     0.001 A 
HETATM   11  C16 UNK     1       8.158   6.112   7.273  1.00  0.00     0.003 A 
ENDROOT
BRANCH   3  12
HETATM   12  C7  UNK     1      14.355   5.926   9.128  1.00  0.00     0.259 C 
HETATM   13  O1  UNK     1      14.882   4.812   9.103  1.00  0.00    -0.267 OA
HETATM   14  N1  UNK     1      14.889   7.042   9.769  1.00  0.00    -0.348 N 
HETATM   15  C4  UNK     1      16.168   6.915  10.474  1.00  0.00     0.126 C 
HETATM   16  C5  UNK     1      14.273   8.374   9.852  1.00  0.00     0.126 C 
HETATM   17  C2  UNK     1      17.167   7.967  10.006  1.00  0.00     0.024 C 
HETATM   18  C1  UNK     1      16.581   9.380  10.137  1.00  0.00    -0.015 C 
HETATM   19  C3  UNK     1      15.243   9.462   9.391  1.00  0.00     0.024 C 
HETATM   20  C6  UNK     1      17.561  10.427   9.613  1.00  0.00     0.010 C 
ENDBRANCH   3  12
TORSDOF 1
ENDMDL
MODEL 3
REMARK VINA RESULT:      -7.9      1.753      2.166
REMARK  1 active torsions:
REMARK  status: ('A' for Active; 'I' for Inactive)
REMARK       I    between atoms: C7_11  and  N1_4 
REMARK    1  A    between atoms: C7_11  and  C8_12 
ROOT
HETATM    1  O2  UNK     1      11.264   7.442   9.638  1.00  0.00    -0.274 OA
HETATM    2  O3  UNK     1      12.744   8.118  11.243  1.00  0.00    -0.259 OA
HETATM    3  C8  UNK     1      13.654   7.535   9.134  1.00  0.00     0.108 A 
HETATM    4  C9  UNK     1      13.435   7.110   7.885  1.00  0.00     0.037 A 
HETATM    5  C10 UNK     1      12.547   7.728  10.097  1.00  0.00     0.304 A 
HETATM    6  C11 UNK     1      12.082   6.820   7.436  1.00  0.00    -0.001 A 
HETATM    7  C12 UNK     1      11.026   6.994   8.325  1.00  0.00     0.089 A 
HETATM    8  C13 UNK     1      11.807   6.374   6.140  1.00  0.00     0.014 A 
HETATM    9  C14 UNK     1       9.707   6.735   7.957  1.00  0.00     0.038 A 
HETATM   10  C15 UNK     1      10.489   6.110   5.758  1.00  0.00     0.001 A 
HETATM   11  C16 UNK     1       9.441   6.291   6.664  1.00  0.00     0.003 A 
ENDROOT
BRANCH   3  12
HETATM   12  C7  UNK     1      15.061   7.803   9.495  1.00  0.00     0.259 C 
HETATM   13  O1  UNK     1      15.761   6.838   9.809  1.00  0.00    -0.267 OA
HETATM   14  N1  UNK     1      15.501   9.124   9.461  1.00  0.00    -0.348 N 
HETATM   15  C4  UNK     1      16.891   9.422   9.819  1.00  0.00     0.126 C 
HETATM   16  C5  UNK     1      14.688  10.303   9.129  1.00  0.00     0.126 C 
HETATM   17  C2  UNK     1      17.586  10.227   8.727  1.00  0.00     0.024 C 
HETATM   18  C1  UNK     1      16.797  11.501   8.396  1.00  0.00    -0.015 C 
HETATM   19  C3  UNK     1      15.351  11.141   8.035  1.00  0.00     0.024 C 
HETATM   20  C6  UNK     1      17.464  12.276   7.261  1.00  0.00     0.010 C 
ENDBRANCH   3  12
TORSDOF 1
ENDMDL
MODEL 4
REMARK VINA RESULT:      -7.9     24.822     27.079
REMARK  1 active torsions:
REMARK  status: ('A' for Active; 'I' for Inactive)
REMARK       I    between atoms: C7_11  and  N1_4 
REMARK    1  A    between atoms: C7_11  and  C8_12 
ROOT
HETATM    1  O2  UNK     1      18.813   1.243  31.637  1.00  0.00    -0.274 OA
HETATM    2  O3  UNK     1      17.717   1.920  33.524  1.00  0.00    -0.259 OA
HETATM    3  C8  UNK     1      18.339  -0.364  33.417  1.00  0.00     0.108 A 
HETATM    4  C9  UNK     1      18.925  -1.347  32.724  1.00  0.00     0.037 A 
HETATM    5  C10 UNK     1      18.253   1.017  32.891  1.00  0.00     0.304 A 
HETATM    6  C11 UNK     1      19.500  -1.078  31.415  1.00  0.00    -0.001 A 
HETATM    7  C12 UNK     1      19.431   0.213  30.901  1.00  0.00     0.089 A 
HETATM    8  C13 UNK     1      20.121  -2.074  30.656  1.00  0.00     0.014 A 
HETATM    9  C14 UNK     1      19.963   0.536  29.655  1.00  0.00     0.038 A 
HETATM   10  C15 UNK     1      20.660  -1.764  29.404  1.00  0.00     0.001 A 
HETATM   11  C16 UNK     1      20.581  -0.462  28.905  1.00  0.00     0.003 A 
ENDROOT
BRANCH   3  12
HETATM   12  C7  UNK     1      17.785  -0.736  34.736  1.00  0.00     0.259 C 
HETATM   13  O1  UNK     1      16.567  -0.626  34.892  1.00  0.00    -0.267 OA
HETATM   14  N1  UNK     1      18.674  -1.179  35.712  1.00  0.00    -0.348 N 
HETATM   15  C4  UNK     1      18.155  -1.550  37.032  1.00  0.00     0.126 C 
HETATM   16  C5  UNK     1      20.133  -1.286  35.575  1.00  0.00     0.126 C 
HETATM   17  C2  UNK     1      18.601  -2.952  37.431  1.00  0.00     0.024 C 
HETATM   18  C1  UNK     1      20.128  -3.085  37.360  1.00  0.00    -0.015 C 
HETATM   19  C3  UNK     1      20.624  -2.681  35.966  1.00  0.00     0.024 C 
HETATM   20  C6  UNK     1      20.568  -4.507  37.703  1.00  0.00     0.010 C 
ENDBRANCH   3  12
TORSDOF 1
ENDMDL
MODEL 5
REMARK VINA RESULT:      -7.8      1.983      6.416
REMARK  1 active torsions:
REMARK  status: ('A' for Active; 'I' for Inactive)
REMARK       I    between atoms: C7_11  and  N1_4 
REMARK    1  A    between atoms: C7_11  and  C8_12 
ROOT
HETATM    1  O2  UNK     1      16.906   8.739   9.819  1.00  0.00    -0.274 OA
HETATM    2  O3  UNK     1      15.973   6.932  10.862  1.00  0.00    -0.259 OA
HETATM    3  C8  UNK     1      14.495   8.360   9.684  1.00  0.00     0.108 A 
HETATM    4  C9  UNK     1      14.336   9.457   8.935  1.00  0.00     0.037 A 
HETATM    5  C10 UNK     1      15.825   7.937  10.175  1.00  0.00     0.304 A 
HETATM    6  C11 UNK     1      15.486  10.274   8.580  1.00  0.00    -0.001 A 
HETATM    7  C12 UNK     1      16.747   9.895   9.032  1.00  0.00     0.089 A 
HETATM    8  C13 UNK     1      15.368  11.428   7.800  1.00  0.00     0.014 A 
HETATM    9  C14 UNK     1      17.888  10.633   8.727  1.00  0.00     0.038 A 
HETATM   10  C15 UNK     1      16.505  12.178   7.487  1.00  0.00     0.001 A 
HETATM   11  C16 UNK     1      17.762  11.782   7.948  1.00  0.00     0.003 A 
ENDROOT
BRANCH   3  12
HETATM   12  C7  UNK     1      13.267   7.596   9.990  1.00  0.00     0.259 C 
HETATM   13  O1  UNK     1      12.754   7.766  11.098  1.00  0.00    -0.267 OA
HETATM   14  N1  UNK     1      12.776   6.736   9.011  1.00  0.00    -0.348 N 
HETATM   15  C4  UNK     1      11.563   5.961   9.288  1.00  0.00     0.126 C 
HETATM   16  C5  UNK     1      13.380   6.480   7.696  1.00  0.00     0.126 C 
HETATM   17  C2  UNK     1      10.515   6.162   8.199  1.00  0.00     0.024 C 
HETATM   18  C1  UNK     1      11.092   5.843   6.814  1.00  0.00    -0.015 C 
HETATM   19  C3  UNK     1      12.361   6.671   6.573  1.00  0.00     0.024 C 
HETATM   20  C6  UNK     1      10.058   6.102   5.720  1.00  0.00     0.010 C 
ENDBRANCH   3  12
TORSDOF 1
ENDMDL
MODEL 6
REMARK VINA RESULT:      -7.7     21.950     23.780
REMARK  1 active torsions:
REMARK  status: ('A' for Active; 'I' for Inactive)
REMARK       I    between atoms: C7_11  and  N1_4 
REMARK    1  A    between atoms: C7_11  and  C8_12 
ROOT
HETATM    1  O2  UNK     1      18.650   0.550  32.145  1.00  0.00    -0.274 OA
HETATM    2  O3  UNK     1      17.655   2.593  32.380  1.00  0.00    -0.259 OA
HETATM    3  C8  UNK     1      18.824   2.206  30.356  1.00  0.00     0.108 A 
HETATM    4  C9  UNK     1      19.552   1.367  29.612  1.00  0.00     0.037 A 
HETATM    5  C10 UNK     1      18.323   1.826  31.696  1.00  0.00     0.304 A 
HETATM    6  C11 UNK     1      19.877   0.039  30.111  1.00  0.00    -0.001 A 
HETATM    7  C12 UNK     1      19.417  -0.339  31.368  1.00  0.00     0.089 A 
HETATM    8  C13 UNK     1      20.635  -0.870  29.368  1.00  0.00     0.014 A 
HETATM    9  C14 UNK     1      19.692  -1.596  31.903  1.00  0.00     0.038 A 
HETATM   10  C15 UNK     1      20.919  -2.135  29.892  1.00  0.00     0.001 A 
HETATM   11  C16 UNK     1      20.448  -2.497  31.156  1.00  0.00     0.003 A 
ENDROOT
BRANCH   3  12
HETATM   12  C7  UNK     1      18.547   3.531  29.763  1.00  0.00     0.259 C 
HETATM   13  O1  UNK     1      17.932   3.557  28.695  1.00  0.00    -0.267 OA
HETATM   14  N1  UNK     1      19.001   4.657  30.445  1.00  0.00    -0.348 N 
HETATM   15  C4  UNK     1      18.746   5.984  29.878  1.00  0.00     0.126 C 
HETATM   16  C5  UNK     1      19.768   4.663  31.698  1.00  0.00     0.126 C 
HETATM   17  C2  UNK     1      18.061   6.898  30.889  1.00  0.00     0.024 C 
HETATM   18  C1  UNK     1      18.868   6.980  32.192  1.00  0.00    -0.015 C 
HETATM   19  C3  UNK     1      19.115   5.569  32.743  1.00  0.00     0.024 C 
HETATM   20  C6  UNK     1      18.150   7.848  33.223  1.00  0.00     0.010 C 
ENDBRANCH   3  12
TORSDOF 1
ENDMDL
MODEL 7
REMARK VINA RESULT:      -7.7     23.487     25.624
REMARK  1 active torsions:
REMARK  status: ('A' for Active; 'I' for Inactive)
REMARK       I    between atoms: C7_11  and  N1_4 
REMARK    1  A    between atoms: C7_11  and  C8_12 
ROOT
HETATM    1  O2  UNK     1      14.184   9.437  34.831  1.00  0.00    -0.274 OA
HETATM    2  O3  UNK     1      14.009   7.544  33.562  1.00  0.00    -0.259 OA
HETATM    3  C8  UNK     1      15.861   8.954  33.118  1.00  0.00     0.108 A 
HETATM    4  C9  UNK     1      16.528  10.075  33.416  1.00  0.00     0.037 A 
HETATM    5  C10 UNK     1      14.623   8.571  33.833  1.00  0.00     0.304 A 
HETATM    6  C11 UNK     1      16.043  10.959  34.465  1.00  0.00    -0.001 A 
HETATM    7  C12 UNK     1      14.880  10.618  35.149  1.00  0.00     0.089 A 
HETATM    8  C13 UNK     1      16.708  12.140  34.809  1.00  0.00     0.014 A 
HETATM    9  C14 UNK     1      14.365  11.421  36.164  1.00  0.00     0.038 A 
HETATM   10  C15 UNK     1      16.201  12.955  35.826  1.00  0.00     0.001 A 
HETATM   11  C16 UNK     1      15.032  12.596  36.502  1.00  0.00     0.003 A 
ENDROOT
BRANCH   3  12
HETATM   12  C7  UNK     1      16.432   8.122  32.040  1.00  0.00     0.259 C 
HETATM   13  O1  UNK     1      16.001   8.297  30.898  1.00  0.00    -0.267 OA
HETATM   14  N1  UNK     1      17.413   7.195  32.384  1.00  0.00    -0.348 N 
HETATM   15  C4  UNK     1      17.995   6.352  31.336  1.00  0.00     0.126 C 
HETATM   16  C5  UNK     1      17.924   6.932  33.737  1.00  0.00     0.126 C 
HETATM   17  C2  UNK     1      19.518   6.442  31.331  1.00  0.00     0.024 C 
HETATM   18  C1  UNK     1      20.093   6.111  32.714  1.00  0.00    -0.015 C 
HETATM   19  C3  UNK     1      19.451   7.013  33.777  1.00  0.00     0.024 C 
HETATM   20  C6  UNK     1      21.613   6.260  32.722  1.00  0.00     0.010 C 
ENDBRANCH   3  12
TORSDOF 1
ENDMDL
MODEL 8
REMARK VINA RESULT:      -7.6      1.992      6.445
REMARK  1 active torsions:
REMARK  status: ('A' for Active; 'I' for Inactive)
REMARK       I    between atoms: C7_11  and  N1_4 
REMARK    1  A    between atoms: C7_11  and  C8_12 
ROOT
HETATM    1  O2  UNK     1      14.273  10.102  11.388  1.00  0.00    -0.274 OA
HETATM    2  O3  UNK     1      12.709   8.437  11.452  1.00  0.00    -0.259 OA
HETATM    3  C8  UNK     1      14.698   7.981  10.250  1.00  0.00     0.108 A 
HETATM    4  C9  UNK     1      15.895   8.411   9.835  1.00  0.00     0.037 A 
HETATM    5  C10 UNK     1      13.806   8.830  11.070  1.00  0.00     0.304 A 
HETATM    6  C11 UNK     1      16.354   9.747  10.184  1.00  0.00    -0.001 A 
HETATM    7  C12 UNK     1      15.531  10.562  10.954  1.00  0.00     0.089 A 
HETATM    8  C13 UNK     1      17.596  10.239   9.772  1.00  0.00     0.014 A 
HETATM    9  C14 UNK     1      15.912  11.850  11.323  1.00  0.00     0.038 A 
HETATM   10  C15 UNK     1      17.992  11.529  10.136  1.00  0.00     0.001 A 
HETATM   11  C16 UNK     1      17.152  12.333  10.910  1.00  0.00     0.003 A 
ENDROOT
BRANCH   3  12
HETATM   12  C7  UNK     1      14.322   6.611   9.844  1.00  0.00     0.259 C 
HETATM   13  O1  UNK     1      14.650   5.687  10.592  1.00  0.00    -0.267 OA
HETATM   14  N1  UNK     1      13.628   6.455   8.647  1.00  0.00    -0.348 N 
HETATM   15  C4  UNK     1      13.246   5.107   8.216  1.00  0.00     0.126 C 
HETATM   16  C5  UNK     1      13.254   7.526   7.713  1.00  0.00     0.126 C 
HETATM   17  C2  UNK     1      11.753   5.021   7.916  1.00  0.00     0.024 C 
HETATM   18  C1  UNK     1      11.335   6.087   6.894  1.00  0.00    -0.015 C 
HETATM   19  C3  UNK     1      11.761   7.477   7.384  1.00  0.00     0.024 C 
HETATM   20  C6  UNK     1       9.830   6.038   6.641  1.00  0.00     0.010 C 
ENDBRANCH   3  12
TORSDOF 1
ENDMDL
MODEL 9
REMARK VINA RESULT:      -7.6     21.950     24.435
REMARK  1 active torsions:
REMARK  status: ('A' for Active; 'I' for Inactive)
REMARK       I    between atoms: C7_11  and  N1_4 
REMARK    1  A    between atoms: C7_11  and  C8_12 
ROOT
HETATM    1  O2  UNK     1      20.253   6.668  32.626  1.00  0.00    -0.274 OA
HETATM    2  O3  UNK     1      21.208   5.626  30.830  1.00  0.00    -0.259 OA
HETATM    3  C8  UNK     1      18.884   5.286  31.144  1.00  0.00     0.108 A 
HETATM    4  C9  UNK     1      17.792   5.539  31.873  1.00  0.00     0.037 A 
HETATM    5  C10 UNK     1      20.204   5.856  31.496  1.00  0.00     0.304 A 
HETATM    6  C11 UNK     1      17.876   6.393  33.049  1.00  0.00    -0.001 A 
HETATM    7  C12 UNK     1      19.107   6.939  33.398  1.00  0.00     0.089 A 
HETATM    8  C13 UNK     1      16.760   6.684  33.839  1.00  0.00     0.014 A 
HETATM    9  C14 UNK     1      19.255   7.764  34.510  1.00  0.00     0.038 A 
HETATM   10  C15 UNK     1      16.894   7.511  34.958  1.00  0.00     0.001 A 
HETATM   11  C16 UNK     1      18.138   8.049  35.293  1.00  0.00     0.003 A 
ENDROOT
BRANCH   3  12
HETATM   12  C7  UNK     1      18.697   4.410  29.970  1.00  0.00     0.259 C 
HETATM   13  O1  UNK     1      18.722   4.938  28.857  1.00  0.00    -0.267 OA
HETATM   14  N1  UNK     1      18.500   3.050  30.199  1.00  0.00    -0.348 N 
HETATM   15  C4  UNK     1      18.306   2.156  29.054  1.00  0.00     0.126 C 
HETATM   16  C5  UNK     1      18.426   2.391  31.510  1.00  0.00     0.126 C 
HETATM   17  C2  UNK     1      19.282   0.986  29.090  1.00  0.00     0.024 C 
HETATM   18  C1  UNK     1      19.189   0.232  30.424  1.00  0.00    -0.015 C 
HETATM   19  C3  UNK     1      19.392   1.208  31.590  1.00  0.00     0.024 C 
HETATM   20  C6  UNK     1      20.210  -0.902  30.481  1.00  0.00     0.010 C 
ENDBRANCH   3  12
TORSDOF 1
ENDMDL
MODEL 10
REMARK VINA RESULT:      -7.4     23.421     25.587
REMARK  1 active torsions:
REMARK  status: ('A' for Active; 'I' for Inactive)
REMARK       I    between atoms: C7_11  and  N1_4 
REMARK    1  A    between atoms: C7_11  and  C8_12 
ROOT
HETATM    1  O2  UNK     1      18.714   7.100  34.145  1.00  0.00    -0.274 OA
HETATM    2  O3  UNK     1      17.299   7.983  35.708  1.00  0.00    -0.259 OA
HETATM    3  C8  UNK     1      16.486   7.862  33.486  1.00  0.00     0.108 A 
HETATM    4  C9  UNK     1      16.714   7.514  32.214  1.00  0.00     0.037 A 
HETATM    5  C10 UNK     1      17.505   7.665  34.541  1.00  0.00     0.304 A 
HETATM    6  C11 UNK     1      17.988   6.925  31.832  1.00  0.00    -0.001 A 
HETATM    7  C12 UNK     1      18.960   6.732  32.809  1.00  0.00     0.089 A 
HETATM    8  C13 UNK     1      18.269   6.547  30.516  1.00  0.00     0.014 A 
HETATM    9  C14 UNK     1      20.201   6.173  32.509  1.00  0.00     0.038 A 
HETATM   10  C15 UNK     1      19.510   5.984  30.202  1.00  0.00     0.001 A 
HETATM   11  C16 UNK     1      20.473   5.798  31.196  1.00  0.00     0.003 A 
ENDROOT
BRANCH   3  12
HETATM   12  C7  UNK     1      15.162   8.450  33.774  1.00  0.00     0.259 C 
HETATM   13  O1  UNK     1      14.207   7.678  33.871  1.00  0.00    -0.267 OA
HETATM   14  N1  UNK     1      15.082   9.834  33.911  1.00  0.00    -0.348 N 
HETATM   15  C4  UNK     1      13.780  10.448  34.191  1.00  0.00     0.126 C 
HETATM   16  C5  UNK     1      16.190  10.788  33.764  1.00  0.00     0.126 C 
HETATM   17  C2  UNK     1      13.843  11.347  35.421  1.00  0.00     0.024 C 
HETATM   18  C1  UNK     1      14.951  12.399  35.278  1.00  0.00    -0.015 C 
HETATM   19  C3  UNK     1      16.289  11.712  34.979  1.00  0.00     0.024 C 
HETATM   20  C6  UNK     1      15.051  13.260  36.535  1.00  0.00     0.010 C 
ENDBRANCH   3  12
TORSDOF 1
ENDMDL
