MODEL 1
REMARK VINA RESULT:      -7.6      0.000      0.000
REMARK  4 active torsions:
REMARK  status: ('A' for Active; 'I' for Inactive)
REMARK    1  A    between atoms: C14_17  and  O3_3 
REMARK    2  A    between atoms: C1_4  and  C2_5 
REMARK    3  A    between atoms: C1_4  and  C3_6 
REMARK    4  A    between atoms: C3_6  and  C6_9 
ROOT
HETATM    1  O1  UNK     1      18.926   0.577  32.685  1.00  0.00    -0.274 OA
HETATM    2  O2  UNK     1      18.046   2.234  33.962  1.00  0.00    -0.259 OA
HETATM    3  C2  UNK     1      18.276   2.703  31.638  1.00  0.00     0.024 A 
HETATM    4  C4  UNK     1      18.700   2.273  30.430  1.00  0.00    -0.037 A 
HETATM    5  C5  UNK     1      19.242   0.905  30.296  1.00  0.00     0.005 A 
HETATM    6  C7  UNK     1      19.337   0.104  31.430  1.00  0.00     0.092 A 
HETATM    7  C8  UNK     1      18.394   1.844  32.852  1.00  0.00     0.295 A 
HETATM    8  C9  UNK     1      18.669   3.121  29.182  1.00  0.00     0.050 C 
HETATM    9  C10 UNK     1      19.664   0.344  29.079  1.00  0.00     0.017 A 
HETATM   10  C12 UNK     1      19.838  -1.200  31.390  1.00  0.00     0.074 A 
HETATM   11  C13 UNK     1      20.168  -0.961  29.021  1.00  0.00     0.037 A 
HETATM   12  C14 UNK     1      20.256  -1.732  30.177  1.00  0.00     0.068 A 
ENDROOT
BRANCH   3  13
HETATM   13  C1  UNK     1      17.646   4.047  31.902  1.00  0.00     0.045 C 
BRANCH  13  14
HETATM   14  C3  UNK     1      18.683   5.065  32.356  1.00  0.00     0.004 C 
BRANCH  14  15
HETATM   15  C6  UNK     1      18.959   6.086  31.252  1.00  0.00    -0.004 C 
HETATM   16  C11 UNK     1      20.344   5.898  30.653  1.00  0.00     0.005 C 
ENDBRANCH  14  15
ENDBRANCH  13  14
ENDBRANCH   3  13
BRANCH  12  17
HETATM   17  O3  UNK     1      20.746  -2.999  30.117  1.00  0.00    -0.361 OA
HETATM   18  H16 UNK     1      21.208  -3.198  30.950  1.00  0.00     0.217 HD
ENDBRANCH  12  17
TORSDOF 4
ENDMDL
MODEL 2
REMARK VINA RESULT:      -7.0     22.135     24.018
REMARK  4 active torsions:
REMARK  status: ('A' for Active; 'I' for Inactive)
REMARK    1  A    between atoms: C14_17  and  O3_3 
REMARK    2  A    between atoms: C1_4  and  C2_5 
REMARK    3  A    between atoms: C1_4  and  C3_6 
REMARK    4  A    between atoms: C3_6  and  C6_9 
ROOT
HETATM    1  O1  UNK     1      14.148   5.005   8.968  1.00  0.00    -0.274 OA
HETATM    2  O2  UNK     1      12.278   3.955   8.226  1.00  0.00    -0.259 OA
HETATM    3  C2  UNK     1      12.106   6.308   8.553  1.00  0.00     0.024 A 
HETATM    4  C4  UNK     1      12.712   7.444   8.959  1.00  0.00    -0.037 A 
HETATM    5  C5  UNK     1      14.132   7.404   9.368  1.00  0.00     0.005 A 
HETATM    6  C7  UNK     1      14.800   6.184   9.358  1.00  0.00     0.092 A 
HETATM    7  C8  UNK     1      12.826   5.001   8.559  1.00  0.00     0.295 A 
HETATM    8  C9  UNK     1      12.016   8.780   9.041  1.00  0.00     0.050 C 
HETATM    9  C10 UNK     1      14.867   8.534   9.760  1.00  0.00     0.017 A 
HETATM   10  C12 UNK     1      16.142   6.059   9.730  1.00  0.00     0.074 A 
HETATM   11  C13 UNK     1      16.212   8.427  10.134  1.00  0.00     0.037 A 
HETATM   12  C14 UNK     1      16.848   7.189  10.120  1.00  0.00     0.068 A 
ENDROOT
BRANCH   3  13
HETATM   13  C1  UNK     1      10.687   6.220   8.053  1.00  0.00     0.045 C 
BRANCH  13  14
HETATM   14  C3  UNK     1      10.613   6.450   6.550  1.00  0.00     0.004 C 
BRANCH  14  15
HETATM   15  C6  UNK     1       9.166   6.381   6.062  1.00  0.00    -0.004 C 
HETATM   16  C11 UNK     1       8.185   6.689   7.182  1.00  0.00     0.005 C 
ENDBRANCH  14  15
ENDBRANCH  13  14
ENDBRANCH   3  13
BRANCH  12  17
HETATM   17  O3  UNK     1      18.155   7.088  10.484  1.00  0.00    -0.361 OA
HETATM   18  H16 UNK     1      18.644   6.629   9.780  1.00  0.00     0.217 HD
ENDBRANCH  12  17
TORSDOF 4
ENDMDL
MODEL 3
REMARK VINA RESULT:      -6.9      1.600      2.456
REMARK  4 active torsions:
REMARK  status: ('A' for Active; 'I' for Inactive)
REMARK    1  A    between atoms: C14_17  and  O3_3 
REMARK    2  A    between atoms: C1_4  and  C2_5 
REMARK    3  A    between atoms: C1_4  and  C3_6 
REMARK    4  A    between atoms: C3_6  and  C6_9 
ROOT
HETATM    1  O1  UNK     1      19.239   1.266  29.204  1.00  0.00    -0.274 OA
HETATM    2  O2  UNK     1      18.447   3.359  28.825  1.00  0.00    -0.259 OA
HETATM    3  C2  UNK     1      18.374   2.596  31.080  1.00  0.00     0.024 A 
HETATM    4  C4  UNK     1      18.602   1.582  31.943  1.00  0.00    -0.037 A 
HETATM    5  C5  UNK     1      19.219   0.333  31.450  1.00  0.00     0.005 A 
HETATM    6  C7  UNK     1      19.515   0.219  30.095  1.00  0.00     0.092 A 
HETATM    7  C8  UNK     1      18.682   2.460  29.627  1.00  0.00     0.295 A 
HETATM    8  C9  UNK     1      18.248   1.636  33.409  1.00  0.00     0.050 C 
HETATM    9  C10 UNK     1      19.541  -0.759  32.270  1.00  0.00     0.017 A 
HETATM   10  C12 UNK     1      20.097  -0.928  29.547  1.00  0.00     0.074 A 
HETATM   11  C13 UNK     1      20.126  -1.915  31.739  1.00  0.00     0.037 A 
HETATM   12  C14 UNK     1      20.403  -1.999  30.377  1.00  0.00     0.068 A 
ENDROOT
BRANCH   3  13
HETATM   13  C1  UNK     1      17.812   3.941  31.461  1.00  0.00     0.045 C 
BRANCH  13  14
HETATM   14  C3  UNK     1      18.904   4.880  31.953  1.00  0.00     0.004 C 
BRANCH  14  15
HETATM   15  C6  UNK     1      19.052   6.078  31.015  1.00  0.00    -0.004 C 
HETATM   16  C11 UNK     1      20.271   5.936  30.117  1.00  0.00     0.005 C 
ENDBRANCH  14  15
ENDBRANCH  13  14
ENDBRANCH   3  13
BRANCH  12  17
HETATM   17  O3  UNK     1      20.971  -3.123  29.863  1.00  0.00    -0.361 OA
HETATM   18  H16 UNK     1      21.790  -2.879  29.400  1.00  0.00     0.217 HD
ENDBRANCH  12  17
TORSDOF 4
ENDMDL
MODEL 4
REMARK VINA RESULT:      -6.8      2.368      6.536
REMARK  4 active torsions:
REMARK  status: ('A' for Active; 'I' for Inactive)
REMARK    1  A    between atoms: C14_17  and  O3_3 
REMARK    2  A    between atoms: C1_4  and  C2_5 
REMARK    3  A    between atoms: C1_4  and  C3_6 
REMARK    4  A    between atoms: C3_6  and  C6_9 
ROOT
HETATM    1  O1  UNK     1      17.641   4.172  33.446  1.00  0.00    -0.274 OA
HETATM    2  O2  UNK     1      18.013   2.093  32.615  1.00  0.00    -0.259 OA
HETATM    3  C2  UNK     1      18.606   3.915  31.200  1.00  0.00     0.024 A 
HETATM    4  C4  UNK     1      18.631   5.254  31.025  1.00  0.00    -0.037 A 
HETATM    5  C5  UNK     1      18.177   6.139  32.118  1.00  0.00     0.005 A 
HETATM    6  C7  UNK     1      17.696   5.565  33.292  1.00  0.00     0.092 A 
HETATM    7  C8  UNK     1      18.076   3.308  32.456  1.00  0.00     0.295 A 
HETATM    8  C9  UNK     1      19.091   5.923  29.753  1.00  0.00     0.050 C 
HETATM    9  C10 UNK     1      18.208   7.541  32.057  1.00  0.00     0.017 A 
HETATM   10  C12 UNK     1      17.246   6.329  34.372  1.00  0.00     0.074 A 
HETATM   11  C13 UNK     1      17.762   8.322  33.130  1.00  0.00     0.037 A 
HETATM   12  C14 UNK     1      17.280   7.715  34.287  1.00  0.00     0.068 A 
ENDROOT
BRANCH   3  13
HETATM   13  C1  UNK     1      19.097   2.905  30.195  1.00  0.00     0.045 C 
BRANCH  13  14
HETATM   14  C3  UNK     1      17.985   2.480  29.247  1.00  0.00     0.004 C 
BRANCH  14  15
HETATM   15  C6  UNK     1      18.308   1.130  28.606  1.00  0.00    -0.004 C 
HETATM   16  C11 UNK     1      19.571   0.521  29.194  1.00  0.00     0.005 C 
ENDBRANCH  14  15
ENDBRANCH  13  14
ENDBRANCH   3  13
BRANCH  12  17
HETATM   17  O3  UNK     1      16.848   8.475  35.329  1.00  0.00    -0.361 OA
HETATM   18  H16 UNK     1      16.169   7.981  35.819  1.00  0.00     0.217 HD
ENDBRANCH  12  17
TORSDOF 4
ENDMDL
MODEL 5
REMARK VINA RESULT:      -6.7      5.318      7.161
REMARK  4 active torsions:
REMARK  status: ('A' for Active; 'I' for Inactive)
REMARK    1  A    between atoms: C14_17  and  O3_3 
REMARK    2  A    between atoms: C1_4  and  C2_5 
REMARK    3  A    between atoms: C1_4  and  C3_6 
REMARK    4  A    between atoms: C3_6  and  C6_9 
ROOT
HETATM    1  O1  UNK     1      16.597   6.593  31.243  1.00  0.00    -0.274 OA
HETATM    2  O2  UNK     1      14.382   7.061  31.394  1.00  0.00    -0.259 OA
HETATM    3  C2  UNK     1      15.689   7.508  33.334  1.00  0.00     0.024 A 
HETATM    4  C4  UNK     1      16.903   7.451  33.922  1.00  0.00    -0.037 A 
HETATM    5  C5  UNK     1      18.066   6.976  33.143  1.00  0.00     0.005 A 
HETATM    6  C7  UNK     1      17.871   6.562  31.829  1.00  0.00     0.092 A 
HETATM    7  C8  UNK     1      15.486   7.049  31.930  1.00  0.00     0.295 A 
HETATM    8  C9  UNK     1      17.156   7.835  35.360  1.00  0.00     0.050 C 
HETATM    9  C10 UNK     1      19.377   6.924  33.644  1.00  0.00     0.017 A 
HETATM   10  C12 UNK     1      18.916   6.099  31.024  1.00  0.00     0.074 A 
HETATM   11  C13 UNK     1      20.435   6.463  32.851  1.00  0.00     0.037 A 
HETATM   12  C14 UNK     1      20.204   6.050  31.542  1.00  0.00     0.068 A 
ENDROOT
BRANCH   3  13
HETATM   13  C1  UNK     1      14.437   8.029  33.992  1.00  0.00     0.045 C 
BRANCH  13  14
HETATM   14  C3  UNK     1      14.270   9.524  33.760  1.00  0.00     0.004 C 
BRANCH  14  15
HETATM   15  C6  UNK     1      14.442  10.297  35.068  1.00  0.00    -0.004 C 
HETATM   16  C11 UNK     1      15.593  11.288  34.983  1.00  0.00     0.005 C 
ENDBRANCH  14  15
ENDBRANCH  13  14
ENDBRANCH   3  13
BRANCH  12  17
HETATM   17  O3  UNK     1      21.234   5.604  30.774  1.00  0.00    -0.361 OA
HETATM   18  H16 UNK     1      21.116   4.652  30.610  1.00  0.00     0.217 HD
ENDBRANCH  12  17
TORSDOF 4
ENDMDL
MODEL 6
REMARK VINA RESULT:      -6.5      2.325      4.095
REMARK  4 active torsions:
REMARK  status: ('A' for Active; 'I' for Inactive)
REMARK    1  A    between atoms: C14_17  and  O3_3 
REMARK    2  A    between atoms: C1_4  and  C2_5 
REMARK    3  A    between atoms: C1_4  and  C3_6 
REMARK    4  A    between atoms: C3_6  and  C6_9 
ROOT
HETATM    1  O1  UNK     1      18.793   2.049  31.392  1.00  0.00    -0.274 OA
HETATM    2  O2  UNK     1      17.781   3.460  32.854  1.00  0.00    -0.259 OA
HETATM    3  C2  UNK     1      18.148   1.234  33.619  1.00  0.00     0.024 A 
HETATM    4  C4  UNK     1      18.599  -0.005  33.329  1.00  0.00    -0.037 A 
HETATM    5  C5  UNK     1      19.224  -0.262  32.015  1.00  0.00     0.005 A 
HETATM    6  C7  UNK     1      19.299   0.776  31.091  1.00  0.00     0.092 A 
HETATM    7  C8  UNK     1      18.219   2.338  32.618  1.00  0.00     0.295 A 
HETATM    8  C9  UNK     1      18.492  -1.177  34.274  1.00  0.00     0.050 C 
HETATM    9  C10 UNK     1      19.768  -1.499  31.633  1.00  0.00     0.017 A 
HETATM   10  C12 UNK     1      19.873   0.618  29.827  1.00  0.00     0.074 A 
HETATM   11  C13 UNK     1      20.348  -1.675  30.371  1.00  0.00     0.037 A 
HETATM   12  C14 UNK     1      20.399  -0.617  29.468  1.00  0.00     0.068 A 
ENDROOT
BRANCH   3  13
HETATM   13  C1  UNK     1      17.549   1.646  34.939  1.00  0.00     0.045 C 
BRANCH  13  14
HETATM   14  C3  UNK     1      18.628   1.912  35.979  1.00  0.00     0.004 C 
BRANCH  14  15
HETATM   15  C6  UNK     1      18.121   1.578  37.383  1.00  0.00    -0.004 C 
HETATM   16  C11 UNK     1      16.939   0.623  37.335  1.00  0.00     0.005 C 
ENDBRANCH  14  15
ENDBRANCH  13  14
ENDBRANCH   3  13
BRANCH  12  17
HETATM   17  O3  UNK     1      20.963  -0.791  28.243  1.00  0.00    -0.361 OA
HETATM   18  H16 UNK     1      21.413  -1.652  28.222  1.00  0.00     0.217 HD
ENDBRANCH  12  17
TORSDOF 4
ENDMDL
MODEL 7
REMARK VINA RESULT:      -6.4     21.841     23.637
REMARK  4 active torsions:
REMARK  status: ('A' for Active; 'I' for Inactive)
REMARK    1  A    between atoms: C14_17  and  O3_3 
REMARK    2  A    between atoms: C1_4  and  C2_5 
REMARK    3  A    between atoms: C1_4  and  C3_6 
REMARK    4  A    between atoms: C3_6  and  C6_9 
ROOT
HETATM    1  O1  UNK     1      14.028   5.251   8.443  1.00  0.00    -0.274 OA
HETATM    2  O2  UNK     1      16.138   5.039   9.253  1.00  0.00    -0.259 OA
HETATM    3  C2  UNK     1      14.912   6.942   9.992  1.00  0.00     0.024 A 
HETATM    4  C4  UNK     1      13.768   7.655   9.914  1.00  0.00    -0.037 A 
HETATM    5  C5  UNK     1      12.651   7.149   9.089  1.00  0.00     0.005 A 
HETATM    6  C7  UNK     1      12.821   5.963   8.381  1.00  0.00     0.092 A 
HETATM    7  C8  UNK     1      15.091   5.679   9.219  1.00  0.00     0.295 A 
HETATM    8  C9  UNK     1      13.554   8.973  10.617  1.00  0.00     0.050 C 
HETATM    9  C10 UNK     1      11.405   7.787   8.978  1.00  0.00     0.017 A 
HETATM   10  C12 UNK     1      11.817   5.416   7.578  1.00  0.00     0.074 A 
HETATM   11  C13 UNK     1      10.387   7.252   8.179  1.00  0.00     0.037 A 
HETATM   12  C14 UNK     1      10.594   6.067   7.478  1.00  0.00     0.068 A 
ENDROOT
BRANCH   3  13
HETATM   13  C1  UNK     1      16.100   7.310  10.843  1.00  0.00     0.045 C 
BRANCH  13  14
HETATM   14  C3  UNK     1      17.161   8.037  10.028  1.00  0.00     0.004 C 
BRANCH  14  15
HETATM   15  C6  UNK     1      17.070   9.548  10.248  1.00  0.00    -0.004 C 
HETATM   16  C11 UNK     1      16.661  10.272   8.975  1.00  0.00     0.005 C 
ENDBRANCH  14  15
ENDBRANCH  13  14
ENDBRANCH   3  13
BRANCH  12  17
HETATM   17  O3  UNK     1       9.604   5.550   6.703  1.00  0.00    -0.361 OA
HETATM   18  H16 UNK     1       9.611   4.581   6.786  1.00  0.00     0.217 HD
ENDBRANCH  12  17
TORSDOF 4
ENDMDL
MODEL 8
REMARK VINA RESULT:      -6.4      4.884      8.654
REMARK  4 active torsions:
REMARK  status: ('A' for Active; 'I' for Inactive)
REMARK    1  A    between atoms: C14_17  and  O3_3 
REMARK    2  A    between atoms: C1_4  and  C2_5 
REMARK    3  A    between atoms: C1_4  and  C3_6 
REMARK    4  A    between atoms: C3_6  and  C6_9 
ROOT
HETATM    1  O1  UNK     1      15.909   6.838  32.773  1.00  0.00    -0.274 OA
HETATM    2  O2  UNK     1      17.181   4.999  32.385  1.00  0.00    -0.259 OA
HETATM    3  C2  UNK     1      18.295   6.864  33.361  1.00  0.00     0.024 A 
HETATM    4  C4  UNK     1      18.208   8.143  33.785  1.00  0.00    -0.037 A 
HETATM    5  C5  UNK     1      16.901   8.832  33.750  1.00  0.00     0.005 A 
HETATM    6  C7  UNK     1      15.796   8.154  33.244  1.00  0.00     0.092 A 
HETATM    7  C8  UNK     1      17.109   6.149  32.807  1.00  0.00     0.295 A 
HETATM    8  C9  UNK     1      19.386   8.939  34.290  1.00  0.00     0.050 C 
HETATM    9  C10 UNK     1      16.693  10.142  34.211  1.00  0.00     0.017 A 
HETATM   10  C12 UNK     1      14.526   8.733  33.175  1.00  0.00     0.074 A 
HETATM   11  C13 UNK     1      15.427  10.737  34.150  1.00  0.00     0.037 A 
HETATM   12  C14 UNK     1      14.344  10.033  33.631  1.00  0.00     0.068 A 
ENDROOT
BRANCH   3  13
HETATM   13  C1  UNK     1      19.547   6.026  33.401  1.00  0.00     0.045 C 
BRANCH  13  14
HETATM   14  C3  UNK     1      20.506   6.410  32.283  1.00  0.00     0.004 C 
BRANCH  14  15
HETATM   15  C6  UNK     1      20.383   5.439  31.107  1.00  0.00    -0.004 C 
HETATM   16  C11 UNK     1      19.555   6.034  29.979  1.00  0.00     0.005 C 
ENDBRANCH  14  15
ENDBRANCH  13  14
ENDBRANCH   3  13
BRANCH  12  17
HETATM   17  O3  UNK     1      13.116  10.613  33.573  1.00  0.00    -0.361 OA
HETATM   18  H16 UNK     1      13.104  11.255  32.843  1.00  0.00     0.217 HD
ENDBRANCH  12  17
TORSDOF 4
ENDMDL
MODEL 9
REMARK VINA RESULT:      -6.3     14.097     15.687
REMARK  4 active torsions:
REMARK  status: ('A' for Active; 'I' for Inactive)
REMARK    1  A    between atoms: C14_17  and  O3_3 
REMARK    2  A    between atoms: C1_4  and  C2_5 
REMARK    3  A    between atoms: C1_4  and  C3_6 
REMARK    4  A    between atoms: C3_6  and  C6_9 
ROOT
HETATM    1  O1  UNK     1      29.994  -3.923  37.854  1.00  0.00    -0.274 OA
HETATM    2  O2  UNK     1      28.094  -4.093  39.082  1.00  0.00    -0.259 OA
HETATM    3  C2  UNK     1      29.252  -6.127  38.646  1.00  0.00     0.024 A 
HETATM    4  C4  UNK     1      30.292  -6.731  38.032  1.00  0.00    -0.037 A 
HETATM    5  C5  UNK     1      31.285  -5.911  37.307  1.00  0.00     0.005 A 
HETATM    6  C7  UNK     1      31.100  -4.533  37.243  1.00  0.00     0.092 A 
HETATM    7  C8  UNK     1      29.053  -4.651  38.561  1.00  0.00     0.295 A 
HETATM    8  C9  UNK     1      30.507  -8.225  38.025  1.00  0.00     0.050 C 
HETATM    9  C10 UNK     1      32.426  -6.433  36.678  1.00  0.00     0.017 A 
HETATM   10  C12 UNK     1      31.989  -3.685  36.578  1.00  0.00     0.074 A 
HETATM   11  C13 UNK     1      33.328  -5.598  36.008  1.00  0.00     0.037 A 
HETATM   12  C14 UNK     1      33.109  -4.225  35.957  1.00  0.00     0.068 A 
ENDROOT
BRANCH   3  13
HETATM   13  C1  UNK     1      28.207  -6.836  39.468  1.00  0.00     0.045 C 
BRANCH  13  14
HETATM   14  C3  UNK     1      27.052  -7.319  38.602  1.00  0.00     0.004 C 
BRANCH  14  15
HETATM   15  C6  UNK     1      26.506  -8.650  39.121  1.00  0.00    -0.004 C 
HETATM   16  C11 UNK     1      27.560  -9.418  39.902  1.00  0.00     0.005 C 
ENDBRANCH  14  15
ENDBRANCH  13  14
ENDBRANCH   3  13
BRANCH  12  17
HETATM   17  O3  UNK     1      33.987  -3.416  35.305  1.00  0.00    -0.361 OA
HETATM   18  H16 UNK     1      34.403  -2.818  35.950  1.00  0.00     0.217 HD
ENDBRANCH  12  17
TORSDOF 4
ENDMDL
MODEL 10
REMARK VINA RESULT:      -6.3     14.846     15.530
REMARK  4 active torsions:
REMARK  status: ('A' for Active; 'I' for Inactive)
REMARK    1  A    between atoms: C14_17  and  O3_3 
REMARK    2  A    between atoms: C1_4  and  C2_5 
REMARK    3  A    between atoms: C1_4  and  C3_6 
REMARK    4  A    between atoms: C3_6  and  C6_9 
ROOT
HETATM    1  O1  UNK     1      28.569  -5.572  39.490  1.00  0.00    -0.274 OA
HETATM    2  O2  UNK     1      29.786  -3.656  39.492  1.00  0.00    -0.259 OA
HETATM    3  C2  UNK     1      30.783  -5.537  38.424  1.00  0.00     0.024 A 
HETATM    4  C4  UNK     1      30.685  -6.846  38.107  1.00  0.00    -0.037 A 
HETATM    5  C5  UNK     1      29.454  -7.587  38.454  1.00  0.00     0.005 A 
HETATM    6  C7  UNK     1      28.438  -6.923  39.135  1.00  0.00     0.092 A 
HETATM    7  C8  UNK     1      29.696  -4.836  39.166  1.00  0.00     0.295 A 
HETATM    8  C9  UNK     1      31.779  -7.625  37.419  1.00  0.00     0.050 C 
HETATM    9  C10 UNK     1      29.232  -8.935  38.127  1.00  0.00     0.017 A 
HETATM   10  C12 UNK     1      27.244  -7.550  39.501  1.00  0.00     0.074 A 
HETATM   11  C13 UNK     1      28.041  -9.578  38.486  1.00  0.00     0.037 A 
HETATM   12  C14 UNK     1      27.048  -8.885  39.173  1.00  0.00     0.068 A 
ENDROOT
BRANCH   3  13
HETATM   13  C1  UNK     1      31.951  -4.651  38.074  1.00  0.00     0.045 C 
BRANCH  13  14
HETATM   14  C3  UNK     1      31.715  -3.915  36.763  1.00  0.00     0.004 C 
BRANCH  14  15
HETATM   15  C6  UNK     1      32.713  -4.372  35.698  1.00  0.00    -0.004 C 
HETATM   16  C11 UNK     1      32.020  -5.125  34.572  1.00  0.00     0.005 C 
ENDBRANCH  14  15
ENDBRANCH  13  14
ENDBRANCH   3  13
BRANCH  12  17
HETATM   17  O3  UNK     1      25.892  -9.512  39.520  1.00  0.00    -0.361 OA
HETATM   18  H16 UNK     1      26.080 -10.452  39.686  1.00  0.00     0.217 HD
ENDBRANCH  12  17
TORSDOF 4
ENDMDL
