MODEL 1
REMARK VINA RESULT:      -9.2      0.000      0.000
REMARK  2 active torsions:
REMARK  status: ('A' for Active; 'I' for Inactive)
REMARK       I    between atoms: C6_11  and  N1_5 
REMARK    1  A    between atoms: C9_14  and  N1_5 
REMARK    2  A    between atoms: C2_7  and  C6_11 
ROOT
HETATM    1  O1  UNK     1      19.470  -1.340  34.762  1.00  0.00    -0.274 OA
HETATM    2  O3  UNK     1      20.655  -3.242  34.318  1.00  0.00    -0.259 OA
HETATM    3  C1  UNK     1      18.496  -1.019  36.966  1.00  0.00    -0.001 A 
HETATM    4  C2  UNK     1      19.753  -3.037  36.500  1.00  0.00     0.108 A 
HETATM    5  C3  UNK     1      18.721  -0.566  35.671  1.00  0.00     0.089 A 
HETATM    6  C4  UNK     1      19.044  -2.305  37.367  1.00  0.00     0.037 A 
HETATM    7  C5  UNK     1      17.750  -0.222  37.839  1.00  0.00     0.014 A 
HETATM    8  C7  UNK     1      20.006  -2.574  35.117  1.00  0.00     0.304 A 
HETATM    9  C8  UNK     1      18.224   0.657  35.224  1.00  0.00     0.038 A 
HETATM   10  C10 UNK     1      17.244   1.007  37.405  1.00  0.00     0.001 A 
HETATM   11  C11 UNK     1      17.481   1.445  36.100  1.00  0.00     0.003 A 
ENDROOT
BRANCH   4  12
HETATM   12  C6  UNK     1      20.264  -4.319  36.998  1.00  0.00     0.262 C 
HETATM   13  O2  UNK     1      21.478  -4.503  37.078  1.00  0.00    -0.267 OA
HETATM   14  N1  UNK     1      19.242  -5.198  37.328  1.00  0.00    -0.322 N 
HETATM   15  H4  UNK     1      18.280  -4.901  37.184  1.00  0.00     0.169 HD
BRANCH  14  16
HETATM   16  C9  UNK     1      19.364  -6.515  37.834  1.00  0.00     0.052 A 
HETATM   17  C12 UNK     1      18.841  -7.595  37.144  1.00  0.00     0.037 A 
HETATM   18 Br1  UNK     1      17.933  -7.403  35.488  1.00  0.00    -0.049 Br
HETATM   19  C14 UNK     1      18.981  -8.879  37.674  1.00  0.00     0.021 A 
HETATM   20  C16 UNK     1      19.642  -9.063  38.888  1.00  0.00     0.002 A 
HETATM   21  C15 UNK     1      20.163  -7.965  39.572  1.00  0.00     0.002 A 
HETATM   22  C13 UNK     1      20.024  -6.682  39.042  1.00  0.00     0.031 A 
ENDBRANCH  14  16
ENDBRANCH   4  12
TORSDOF 2
ENDMDL
MODEL 2
REMARK VINA RESULT:      -9.2      7.491     11.389
REMARK  2 active torsions:
REMARK  status: ('A' for Active; 'I' for Inactive)
REMARK       I    between atoms: C6_11  and  N1_5 
REMARK    1  A    between atoms: C9_14  and  N1_5 
REMARK    2  A    between atoms: C2_7  and  C6_11 
ROOT
HETATM    1  O1  UNK     1      18.710   0.590  32.596  1.00  0.00    -0.274 OA
HETATM    2  O3  UNK     1      17.872   2.503  33.522  1.00  0.00    -0.259 OA
HETATM    3  C1  UNK     1      19.575   0.634  30.325  1.00  0.00    -0.001 A 
HETATM    4  C2  UNK     1      18.689   2.666  31.304  1.00  0.00     0.108 A 
HETATM    5  C3  UNK     1      19.298  -0.063  31.495  1.00  0.00     0.089 A 
HETATM    6  C4  UNK     1      19.248   2.050  30.255  1.00  0.00     0.037 A 
HETATM    7  C5  UNK     1      20.160  -0.048  29.255  1.00  0.00     0.014 A 
HETATM    8  C7  UNK     1      18.385   1.943  32.560  1.00  0.00     0.304 A 
HETATM    9  C8  UNK     1      19.587  -1.420  31.627  1.00  0.00     0.038 A 
HETATM   10  C10 UNK     1      20.455  -1.410  29.372  1.00  0.00     0.001 A 
HETATM   11  C11 UNK     1      20.169  -2.094  30.555  1.00  0.00     0.003 A 
ENDROOT
BRANCH   4  12
HETATM   12  C6  UNK     1      18.395   4.094  31.137  1.00  0.00     0.262 C 
HETATM   13  O2  UNK     1      18.656   4.650  30.071  1.00  0.00    -0.267 OA
HETATM   14  N1  UNK     1      17.831   4.650  32.276  1.00  0.00    -0.322 N 
HETATM   15  H4  UNK     1      17.697   4.056  33.092  1.00  0.00     0.169 HD
BRANCH  14  16
HETATM   16  C9  UNK     1      17.424   5.992  32.473  1.00  0.00     0.052 A 
HETATM   17  C12 UNK     1      18.335   6.965  32.849  1.00  0.00     0.037 A 
HETATM   18 Br1  UNK     1      20.175   6.586  33.125  1.00  0.00    -0.049 Br
HETATM   19  C14 UNK     1      17.897   8.277  33.033  1.00  0.00     0.021 A 
HETATM   20  C16 UNK     1      16.554   8.597  32.840  1.00  0.00     0.002 A 
HETATM   21  C15 UNK     1      15.648   7.607  32.462  1.00  0.00     0.002 A 
HETATM   22  C13 UNK     1      16.086   6.295  32.278  1.00  0.00     0.031 A 
ENDBRANCH  14  16
ENDBRANCH   4  12
TORSDOF 2
ENDMDL
MODEL 3
REMARK VINA RESULT:      -9.0      8.051     11.349
REMARK  2 active torsions:
REMARK  status: ('A' for Active; 'I' for Inactive)
REMARK       I    between atoms: C6_11  and  N1_5 
REMARK    1  A    between atoms: C9_14  and  N1_5 
REMARK    2  A    between atoms: C2_7  and  C6_11 
ROOT
HETATM    1  O1  UNK     1      19.209   1.455  28.843  1.00  0.00    -0.274 OA
HETATM    2  O3  UNK     1      18.381   3.576  29.040  1.00  0.00    -0.259 OA
HETATM    3  C1  UNK     1      19.566   0.115  30.839  1.00  0.00    -0.001 A 
HETATM    4  C2  UNK     1      18.686   2.363  31.053  1.00  0.00     0.108 A 
HETATM    5  C3  UNK     1      19.621   0.257  29.457  1.00  0.00     0.089 A 
HETATM    6  C4  UNK     1      19.076   1.226  31.641  1.00  0.00     0.037 A 
HETATM    7  C5  UNK     1      19.982  -1.090  31.411  1.00  0.00     0.014 A 
HETATM    8  C7  UNK     1      18.736   2.535  29.583  1.00  0.00     0.304 A 
HETATM    9  C8  UNK     1      20.079  -0.769  28.632  1.00  0.00     0.038 A 
HETATM   10  C10 UNK     1      20.445  -2.128  30.597  1.00  0.00     0.001 A 
HETATM   11  C11 UNK     1      20.494  -1.967  29.210  1.00  0.00     0.003 A 
ENDROOT
BRANCH   4  12
HETATM   12  C6  UNK     1      18.209   3.425  31.945  1.00  0.00     0.262 C 
HETATM   13  O2  UNK     1      17.638   3.129  32.994  1.00  0.00    -0.267 OA
HETATM   14  N1  UNK     1      18.485   4.691  31.449  1.00  0.00    -0.322 N 
HETATM   15  H4  UNK     1      18.951   4.769  30.548  1.00  0.00     0.169 HD
BRANCH  14  16
HETATM   16  C9  UNK     1      18.171   5.939  32.040  1.00  0.00     0.052 A 
HETATM   17  C12 UNK     1      19.159   6.733  32.597  1.00  0.00     0.037 A 
HETATM   18 Br1  UNK     1      20.987   6.221  32.614  1.00  0.00    -0.049 Br
HETATM   19  C14 UNK     1      18.811   7.957  33.170  1.00  0.00     0.021 A 
HETATM   20  C16 UNK     1      17.480   8.369  33.179  1.00  0.00     0.002 A 
HETATM   21  C15 UNK     1      16.495   7.558  32.614  1.00  0.00     0.002 A 
HETATM   22  C13 UNK     1      16.843   6.335  32.041  1.00  0.00     0.031 A 
ENDBRANCH  14  16
ENDBRANCH   4  12
TORSDOF 2
ENDMDL
MODEL 4
REMARK VINA RESULT:      -8.8      7.544      9.279
REMARK  2 active torsions:
REMARK  status: ('A' for Active; 'I' for Inactive)
REMARK       I    between atoms: C6_11  and  N1_5 
REMARK    1  A    between atoms: C9_14  and  N1_5 
REMARK    2  A    between atoms: C2_7  and  C6_11 
ROOT
HETATM    1  O1  UNK     1      19.186   6.507  31.320  1.00  0.00    -0.274 OA
HETATM    2  O3  UNK     1      19.726   5.005  29.685  1.00  0.00    -0.259 OA
HETATM    3  C1  UNK     1      17.793   5.803  33.184  1.00  0.00    -0.001 A 
HETATM    4  C2  UNK     1      18.365   4.207  31.453  1.00  0.00     0.108 A 
HETATM    5  C3  UNK     1      18.520   6.790  32.528  1.00  0.00     0.089 A 
HETATM    6  C4  UNK     1      17.731   4.471  32.602  1.00  0.00     0.037 A 
HETATM    7  C5  UNK     1      17.147   6.122  34.381  1.00  0.00     0.014 A 
HETATM    8  C7  UNK     1      19.144   5.242  30.738  1.00  0.00     0.304 A 
HETATM    9  C8  UNK     1      18.619   8.086  33.034  1.00  0.00     0.038 A 
HETATM   10  C10 UNK     1      17.237   7.418  34.900  1.00  0.00     0.001 A 
HETATM   11  C11 UNK     1      17.971   8.397  34.227  1.00  0.00     0.003 A 
ENDROOT
BRANCH   4  12
HETATM   12  C6  UNK     1      18.243   2.836  30.945  1.00  0.00     0.262 C 
HETATM   13  O2  UNK     1      17.183   2.462  30.446  1.00  0.00    -0.267 OA
HETATM   14  N1  UNK     1      19.414   2.109  31.111  1.00  0.00    -0.322 N 
HETATM   15  H4  UNK     1      20.205   2.559  31.565  1.00  0.00     0.169 HD
BRANCH  14  16
HETATM   16  C9  UNK     1      19.656   0.763  30.741  1.00  0.00     0.052 A 
HETATM   17  C12 UNK     1      19.371  -0.277  31.610  1.00  0.00     0.037 A 
HETATM   18 Br1  UNK     1      18.644   0.011  33.339  1.00  0.00    -0.049 Br
HETATM   19  C14 UNK     1      19.623  -1.590  31.210  1.00  0.00     0.021 A 
HETATM   20  C16 UNK     1      20.157  -1.844  29.947  1.00  0.00     0.002 A 
HETATM   21  C15 UNK     1      20.439  -0.786  29.083  1.00  0.00     0.002 A 
HETATM   22  C13 UNK     1      20.187   0.526  29.482  1.00  0.00     0.031 A 
ENDBRANCH  14  16
ENDBRANCH   4  12
TORSDOF 2
ENDMDL
MODEL 5
REMARK VINA RESULT:      -8.8      1.973      7.111
REMARK  2 active torsions:
REMARK  status: ('A' for Active; 'I' for Inactive)
REMARK       I    between atoms: C6_11  and  N1_5 
REMARK    1  A    between atoms: C9_14  and  N1_5 
REMARK    2  A    between atoms: C2_7  and  C6_11 
ROOT
HETATM    1  O1  UNK     1      20.064  -7.762  35.752  1.00  0.00    -0.274 OA
HETATM    2  O3  UNK     1      20.230  -5.746  34.688  1.00  0.00    -0.259 OA
HETATM    3  C1  UNK     1      19.888  -7.830  38.175  1.00  0.00    -0.001 A 
HETATM    4  C2  UNK     1      20.061  -5.690  37.052  1.00  0.00     0.108 A 
HETATM    5  C3  UNK     1      19.948  -8.489  36.952  1.00  0.00     0.089 A 
HETATM    6  C4  UNK     1      19.949  -6.376  38.195  1.00  0.00     0.037 A 
HETATM    7  C5  UNK     1      19.770  -8.586  39.344  1.00  0.00     0.014 A 
HETATM    8  C7  UNK     1      20.126  -6.371  35.738  1.00  0.00     0.304 A 
HETATM    9  C8  UNK     1      19.893  -9.879  36.864  1.00  0.00     0.038 A 
HETATM   10  C10 UNK     1      19.715  -9.981  39.272  1.00  0.00     0.001 A 
HETATM   11  C11 UNK     1      19.777 -10.626  38.035  1.00  0.00     0.003 A 
ENDROOT
BRANCH   4  12
HETATM   12  C6  UNK     1      20.116  -4.229  37.174  1.00  0.00     0.262 C 
HETATM   13  O2  UNK     1      21.089  -3.697  37.706  1.00  0.00    -0.267 OA
HETATM   14  N1  UNK     1      18.991  -3.615  36.641  1.00  0.00    -0.322 N 
HETATM   15  H4  UNK     1      18.256  -4.201  36.251  1.00  0.00     0.169 HD
BRANCH  14  16
HETATM   16  C9  UNK     1      18.706  -2.229  36.587  1.00  0.00     0.052 A 
HETATM   17  C12 UNK     1      19.102  -1.462  35.504  1.00  0.00     0.037 A 
HETATM   18 Br1  UNK     1      20.043  -2.194  34.027  1.00  0.00    -0.049 Br
HETATM   19  C14 UNK     1      18.803  -0.099  35.486  1.00  0.00     0.021 A 
HETATM   20  C16 UNK     1      18.114   0.477  36.551  1.00  0.00     0.002 A 
HETATM   21  C15 UNK     1      17.722  -0.308  37.635  1.00  0.00     0.002 A 
HETATM   22  C13 UNK     1      18.020  -1.670  37.653  1.00  0.00     0.031 A 
ENDBRANCH  14  16
ENDBRANCH   4  12
TORSDOF 2
ENDMDL
MODEL 6
REMARK VINA RESULT:      -8.7     20.007     22.269
REMARK  2 active torsions:
REMARK  status: ('A' for Active; 'I' for Inactive)
REMARK       I    between atoms: C6_11  and  N1_5 
REMARK    1  A    between atoms: C9_14  and  N1_5 
REMARK    2  A    between atoms: C2_7  and  C6_11 
ROOT
HETATM    1  O1  UNK     1      18.654  -4.221  13.765  1.00  0.00    -0.274 OA
HETATM    2  O3  UNK     1      17.562  -4.330  15.769  1.00  0.00    -0.259 OA
HETATM    3  C1  UNK     1      19.736  -2.149  13.098  1.00  0.00    -0.001 A 
HETATM    4  C2  UNK     1      18.581  -2.261  15.225  1.00  0.00     0.108 A 
HETATM    5  C3  UNK     1      19.404  -3.474  12.836  1.00  0.00     0.089 A 
HETATM    6  C4  UNK     1      19.295  -1.547  14.346  1.00  0.00     0.037 A 
HETATM    7  C5  UNK     1      20.483  -1.441  12.153  1.00  0.00     0.014 A 
HETATM    8  C7  UNK     1      18.217  -3.672  14.967  1.00  0.00     0.304 A 
HETATM    9  C8  UNK     1      19.797  -4.110  11.660  1.00  0.00     0.038 A 
HETATM   10  C10 UNK     1      20.884  -2.066  10.968  1.00  0.00     0.001 A 
HETATM   11  C11 UNK     1      20.541  -3.397  10.722  1.00  0.00     0.003 A 
ENDROOT
BRANCH   4  12
HETATM   12  C6  UNK     1      18.181  -1.566  16.454  1.00  0.00     0.262 C 
HETATM   13  O2  UNK     1      17.089  -1.809  16.965  1.00  0.00    -0.267 OA
HETATM   14  N1  UNK     1      19.152  -0.677  16.893  1.00  0.00    -0.322 N 
HETATM   15  H4  UNK     1      20.001  -0.573  16.342  1.00  0.00     0.169 HD
BRANCH  14  16
HETATM   16  C9  UNK     1      19.106   0.159  18.035  1.00  0.00     0.052 A 
HETATM   17  C12 UNK     1      19.182   1.536  17.915  1.00  0.00     0.037 A 
HETATM   18 Br1  UNK     1      19.349   2.404  16.234  1.00  0.00    -0.049 Br
HETATM   19  C14 UNK     1      19.133   2.327  19.063  1.00  0.00     0.021 A 
HETATM   20  C16 UNK     1      19.011   1.729  20.317  1.00  0.00     0.002 A 
HETATM   21  C15 UNK     1      18.936   0.340  20.422  1.00  0.00     0.002 A 
HETATM   22  C13 UNK     1      18.985  -0.450  19.274  1.00  0.00     0.031 A 
ENDBRANCH  14  16
ENDBRANCH   4  12
TORSDOF 2
ENDMDL
MODEL 7
REMARK VINA RESULT:      -8.6     19.710     21.412
REMARK  2 active torsions:
REMARK  status: ('A' for Active; 'I' for Inactive)
REMARK       I    between atoms: C6_11  and  N1_5 
REMARK    1  A    between atoms: C9_14  and  N1_5 
REMARK    2  A    between atoms: C2_7  and  C6_11 
ROOT
HETATM    1  O1  UNK     1      19.341   1.177  15.600  1.00  0.00    -0.274 OA
HETATM    2  O3  UNK     1      19.432  -0.331  13.885  1.00  0.00    -0.259 OA
HETATM    3  C1  UNK     1      18.882   0.400  17.857  1.00  0.00    -0.001 A 
HETATM    4  C2  UNK     1      18.979  -1.201  16.042  1.00  0.00     0.108 A 
HETATM    5  C3  UNK     1      19.151   1.437  16.971  1.00  0.00     0.089 A 
HETATM    6  C4  UNK     1      18.798  -0.959  17.345  1.00  0.00     0.037 A 
HETATM    7  C5  UNK     1      18.701   0.699  19.211  1.00  0.00     0.014 A 
HETATM    8  C7  UNK     1      19.267  -0.113  15.081  1.00  0.00     0.304 A 
HETATM    9  C8  UNK     1      19.245   2.761  17.397  1.00  0.00     0.038 A 
HETATM   10  C10 UNK     1      18.791   2.022  19.653  1.00  0.00     0.001 A 
HETATM   11  C11 UNK     1      19.062   3.051  18.748  1.00  0.00     0.003 A 
ENDROOT
BRANCH   4  12
HETATM   12  C6  UNK     1      18.874  -2.603  15.622  1.00  0.00     0.262 C 
HETATM   13  O2  UNK     1      17.821  -3.215  15.793  1.00  0.00    -0.267 OA
HETATM   14  N1  UNK     1      20.053  -3.071  15.057  1.00  0.00    -0.322 N 
HETATM   15  H4  UNK     1      20.851  -2.441  15.006  1.00  0.00     0.169 HD
BRANCH  14  16
HETATM   16  C9  UNK     1      20.312  -4.366  14.546  1.00  0.00     0.052 A 
HETATM   17  C12 UNK     1      20.023  -4.683  13.229  1.00  0.00     0.037 A 
HETATM   18 Br1  UNK     1      19.269  -3.428  12.021  1.00  0.00    -0.049 Br
HETATM   19  C14 UNK     1      20.294  -5.970  12.761  1.00  0.00     0.021 A 
HETATM   20  C16 UNK     1      20.848  -6.920  13.617  1.00  0.00     0.002 A 
HETATM   21  C15 UNK     1      21.133  -6.586  14.940  1.00  0.00     0.002 A 
HETATM   22  C13 UNK     1      20.864  -5.300  15.408  1.00  0.00     0.031 A 
ENDBRANCH  14  16
ENDBRANCH   4  12
TORSDOF 2
ENDMDL
MODEL 8
REMARK VINA RESULT:      -8.6      1.545      1.799
REMARK  2 active torsions:
REMARK  status: ('A' for Active; 'I' for Inactive)
REMARK       I    between atoms: C6_11  and  N1_5 
REMARK    1  A    between atoms: C9_14  and  N1_5 
REMARK    2  A    between atoms: C2_7  and  C6_11 
ROOT
HETATM    1  O1  UNK     1      19.783  -1.164  34.847  1.00  0.00    -0.274 OA
HETATM    2  O3  UNK     1      20.764  -3.041  33.992  1.00  0.00    -0.259 OA
HETATM    3  C1  UNK     1      18.554  -1.299  36.940  1.00  0.00    -0.001 A 
HETATM    4  C2  UNK     1      19.595  -3.292  36.038  1.00  0.00     0.108 A 
HETATM    5  C3  UNK     1      19.018  -0.554  35.862  1.00  0.00     0.089 A 
HETATM    6  C4  UNK     1      18.869  -2.717  37.004  1.00  0.00     0.037 A 
HETATM    7  C5  UNK     1      17.800  -0.658  37.928  1.00  0.00     0.014 A 
HETATM    8  C7  UNK     1      20.100  -2.519  34.880  1.00  0.00     0.304 A 
HETATM    9  C8  UNK     1      18.752   0.808  35.741  1.00  0.00     0.038 A 
HETATM   10  C10 UNK     1      17.524   0.708  37.820  1.00  0.00     0.001 A 
HETATM   11  C11 UNK     1      17.999   1.440  36.729  1.00  0.00     0.003 A 
ENDROOT
BRANCH   4  12
HETATM   12  C6  UNK     1      19.859  -4.727  36.190  1.00  0.00     0.262 C 
HETATM   13  O2  UNK     1      20.154  -5.401  35.205  1.00  0.00    -0.267 OA
HETATM   14  N1  UNK     1      19.731  -5.146  37.507  1.00  0.00    -0.322 N 
HETATM   15  H4  UNK     1      19.458  -4.464  38.211  1.00  0.00     0.169 HD
BRANCH  14  16
HETATM   16  C9  UNK     1      19.911  -6.455  38.019  1.00  0.00     0.052 A 
HETATM   17  C12 UNK     1      21.114  -6.838  38.588  1.00  0.00     0.037 A 
HETATM   18 Br1  UNK     1      22.596  -5.659  38.729  1.00  0.00    -0.049 Br
HETATM   19  C14 UNK     1      21.254  -8.135  39.082  1.00  0.00     0.021 A 
HETATM   20  C16 UNK     1      20.190  -9.032  38.998  1.00  0.00     0.002 A 
HETATM   21  C15 UNK     1      18.984  -8.632  38.422  1.00  0.00     0.002 A 
HETATM   22  C13 UNK     1      18.844  -7.335  37.928  1.00  0.00     0.031 A 
ENDBRANCH  14  16
ENDBRANCH   4  12
TORSDOF 2
ENDMDL
MODEL 9
REMARK VINA RESULT:      -8.4      4.644      6.958
REMARK  2 active torsions:
REMARK  status: ('A' for Active; 'I' for Inactive)
REMARK       I    between atoms: C6_11  and  N1_5 
REMARK    1  A    between atoms: C9_14  and  N1_5 
REMARK    2  A    between atoms: C2_7  and  C6_11 
ROOT
HETATM    1  O1  UNK     1      19.020   2.599  30.700  1.00  0.00    -0.274 OA
HETATM    2  O3  UNK     1      18.838   0.397  31.282  1.00  0.00    -0.259 OA
HETATM    3  C1  UNK     1      18.331   4.317  32.275  1.00  0.00    -0.001 A 
HETATM    4  C2  UNK     1      18.138   1.984  32.896  1.00  0.00     0.108 A 
HETATM    5  C3  UNK     1      18.847   3.956  31.036  1.00  0.00     0.089 A 
HETATM    6  C4  UNK     1      17.972   3.271  33.220  1.00  0.00     0.037 A 
HETATM    7  C5  UNK     1      18.175   5.674  32.572  1.00  0.00     0.014 A 
HETATM    8  C7  UNK     1      18.686   1.576  31.583  1.00  0.00     0.304 A 
HETATM    9  C8  UNK     1      19.211   4.909  30.086  1.00  0.00     0.038 A 
HETATM   10  C10 UNK     1      18.535   6.642  31.629  1.00  0.00     0.001 A 
HETATM   11  C11 UNK     1      19.051   6.260  30.389  1.00  0.00     0.003 A 
ENDROOT
BRANCH   4  12
HETATM   12  C6  UNK     1      17.746   1.002  33.915  1.00  0.00     0.262 C 
HETATM   13  O2  UNK     1      16.560   0.709  34.055  1.00  0.00    -0.267 OA
HETATM   14  N1  UNK     1      18.838   0.515  34.620  1.00  0.00    -0.322 N 
HETATM   15  H4  UNK     1      19.762   0.877  34.397  1.00  0.00     0.169 HD
BRANCH  14  16
HETATM   16  C9  UNK     1      18.834  -0.437  35.669  1.00  0.00     0.052 A 
HETATM   17  C12 UNK     1      18.262  -0.144  36.895  1.00  0.00     0.037 A 
HETATM   18 Br1  UNK     1      17.447   1.530  37.265  1.00  0.00    -0.049 Br
HETATM   19  C14 UNK     1      18.277  -1.108  37.905  1.00  0.00     0.021 A 
HETATM   20  C16 UNK     1      18.866  -2.350  37.673  1.00  0.00     0.002 A 
HETATM   21  C15 UNK     1      19.438  -2.630  36.433  1.00  0.00     0.002 A 
HETATM   22  C13 UNK     1      19.423  -1.668  35.424  1.00  0.00     0.031 A 
ENDBRANCH  14  16
ENDBRANCH   4  12
TORSDOF 2
ENDMDL
MODEL 10
REMARK VINA RESULT:      -8.1      6.087      8.149
REMARK  2 active torsions:
REMARK  status: ('A' for Active; 'I' for Inactive)
REMARK       I    between atoms: C6_11  and  N1_5 
REMARK    1  A    between atoms: C9_14  and  N1_5 
REMARK    2  A    between atoms: C2_7  and  C6_11 
ROOT
HETATM    1  O1  UNK     1      25.782  -5.340  38.702  1.00  0.00    -0.274 OA
HETATM    2  O3  UNK     1      23.507  -5.288  38.907  1.00  0.00    -0.259 OA
HETATM    3  C1  UNK     1      26.947  -7.472  38.782  1.00  0.00    -0.001 A 
HETATM    4  C2  UNK     1      24.534  -7.422  38.998  1.00  0.00     0.108 A 
HETATM    5  C3  UNK     1      26.975  -6.087  38.659  1.00  0.00     0.089 A 
HETATM    6  C4  UNK     1      25.664  -8.137  38.957  1.00  0.00     0.037 A 
HETATM    7  C5  UNK     1      28.151  -8.179  38.734  1.00  0.00     0.014 A 
HETATM    8  C7  UNK     1      24.540  -5.947  38.869  1.00  0.00     0.304 A 
HETATM    9  C8  UNK     1      28.170  -5.390  38.489  1.00  0.00     0.038 A 
HETATM   10  C10 UNK     1      29.358  -7.493  38.564  1.00  0.00     0.001 A 
HETATM   11  C11 UNK     1      29.367  -6.102  38.443  1.00  0.00     0.003 A 
ENDROOT
BRANCH   4  12
HETATM   12  C6  UNK     1      23.292  -8.182  39.178  1.00  0.00     0.262 C 
HETATM   13  O2  UNK     1      23.005  -8.628  40.288  1.00  0.00    -0.267 OA
HETATM   14  N1  UNK     1      22.572  -8.298  37.997  1.00  0.00    -0.322 N 
HETATM   15  H4  UNK     1      22.958  -7.887  37.150  1.00  0.00     0.169 HD
BRANCH  14  16
HETATM   16  C9  UNK     1      21.336  -8.960  37.799  1.00  0.00     0.052 A 
HETATM   17  C12 UNK     1      20.147  -8.393  38.227  1.00  0.00     0.037 A 
HETATM   18 Br1  UNK     1      20.078  -6.708  39.098  1.00  0.00    -0.049 Br
HETATM   19  C14 UNK     1      18.948  -9.075  38.014  1.00  0.00     0.021 A 
HETATM   20  C16 UNK     1      18.956 -10.316  37.378  1.00  0.00     0.002 A 
HETATM   21  C15 UNK     1      20.161 -10.875  36.953  1.00  0.00     0.002 A 
HETATM   22  C13 UNK     1      21.359 -10.193  37.165  1.00  0.00     0.031 A 
ENDBRANCH  14  16
ENDBRANCH   4  12
TORSDOF 2
ENDMDL
