MODEL 1
REMARK VINA RESULT:     -10.3      0.000      0.000
REMARK  4 active torsions:
REMARK  status: ('A' for Active; 'I' for Inactive)
REMARK    1  A    between atoms: N1_7  and  N3_9 
REMARK    2  A    between atoms: C7_16  and  N2_8 
REMARK       I    between atoms: C13_22  and  N3_9 
REMARK    3  A    between atoms: C3_12  and  C8_17 
REMARK    4  A    between atoms: C12_21  and  C13_22 
ROOT
HETATM    1  O1  UNK     1      19.002   0.613  28.653  1.00  0.00    -0.274 OA
HETATM    2  O2  UNK     1      18.095   2.656  28.181  1.00  0.00    -0.259 OA
HETATM    3  C1  UNK     1      19.720   0.113  30.922  1.00  0.00     0.001 A 
HETATM    4  C2  UNK     1      19.564  -0.273  29.595  1.00  0.00     0.089 A 
HETATM    5  C3  UNK     1      18.760   2.281  30.424  1.00  0.00     0.066 A 
HETATM    6  C4  UNK     1      19.293   1.445  31.323  1.00  0.00     0.034 A 
HETATM    7  C5  UNK     1      20.281  -0.792  31.826  1.00  0.00     0.050 A 
HETATM    8  C6  UNK     1      19.952  -1.533  29.146  1.00  0.00     0.041 A 
HETATM    9  C7  UNK     1      20.674  -2.062  31.391  1.00  0.00     0.103 A 
HETATM   10  C9  UNK     1      18.585   1.892  29.007  1.00  0.00     0.300 A 
HETATM   11  C10 UNK     1      20.510  -2.431  30.054  1.00  0.00     0.039 A 
ENDROOT
BRANCH   5  12
HETATM   12  C8  UNK     1      18.360   3.602  30.925  1.00  0.00     0.067 C 
HETATM   13  C11 UNK     1      19.044   4.799  30.283  1.00  0.00     0.073 C 
HETATM   14  N1  UNK     1      17.496   3.904  31.856  1.00  0.00    -0.176 NA
BRANCH  14  15
HETATM   15  N3  UNK     1      17.299   5.211  32.141  1.00  0.00    -0.243 N 
HETATM   16  C13 UNK     1      17.786   5.700  33.339  1.00  0.00     0.271 C 
HETATM   17  O5  UNK     1      18.391   5.033  34.175  1.00  0.00    -0.266 OA
HETATM   18  H8  UNK     1      16.744   5.789  31.529  1.00  0.00     0.192 HD
BRANCH  16  19
HETATM   19  C12 UNK     1      17.522   7.138  33.606  1.00  0.00     0.033 A 
HETATM   20  C14 UNK     1      18.568   8.033  33.523  1.00  0.00     0.019 A 
HETATM   21  C16 UNK     1      18.320   9.382  33.773  1.00  0.00     0.025 A 
HETATM   22  C18 UNK     1      17.032   9.806  34.100  1.00  0.00     0.034 A 
HETATM   23  C17 UNK     1      15.991   8.880  34.176  1.00  0.00     0.025 A 
HETATM   24 Cl1  UNK     1      16.726  11.471  34.410  1.00  0.00    -0.084 Cl
HETATM   25  C15 UNK     1      16.238   7.531  33.927  1.00  0.00     0.019 A 
ENDBRANCH  16  19
ENDBRANCH  14  15
ENDBRANCH   5  12
BRANCH   9  26
HETATM   26  N2  UNK     1      21.244  -2.980  32.312  1.00  0.00    -0.116 N 
HETATM   27  O3  UNK     1      21.386  -4.178  31.968  1.00  0.00    -0.532 OA
HETATM   28  O4  UNK     1      21.590  -2.568  33.446  1.00  0.00    -0.532 OA
ENDBRANCH   9  26
TORSDOF 4
ENDMDL
MODEL 2
REMARK VINA RESULT:      -9.4      6.265     10.514
REMARK  4 active torsions:
REMARK  status: ('A' for Active; 'I' for Inactive)
REMARK    1  A    between atoms: N1_7  and  N3_9 
REMARK    2  A    between atoms: C7_16  and  N2_8 
REMARK       I    between atoms: C13_22  and  N3_9 
REMARK    3  A    between atoms: C3_12  and  C8_17 
REMARK    4  A    between atoms: C12_21  and  C13_22 
ROOT
HETATM    1  O1  UNK     1      18.318   2.814  35.414  1.00  0.00    -0.274 OA
HETATM    2  O2  UNK     1      18.497   1.687  37.393  1.00  0.00    -0.259 OA
HETATM    3  C1  UNK     1      18.408   1.584  33.319  1.00  0.00     0.001 A 
HETATM    4  C2  UNK     1      18.285   2.788  34.006  1.00  0.00     0.089 A 
HETATM    5  C3  UNK     1      18.600   0.386  35.416  1.00  0.00     0.066 A 
HETATM    6  C4  UNK     1      18.569   0.354  34.079  1.00  0.00     0.034 A 
HETATM    7  C5  UNK     1      18.371   1.598  31.923  1.00  0.00     0.050 A 
HETATM    8  C6  UNK     1      18.128   4.001  33.339  1.00  0.00     0.041 A 
HETATM    9  C7  UNK     1      18.212   2.808  31.239  1.00  0.00     0.103 A 
HETATM   10  C9  UNK     1      18.471   1.654  36.167  1.00  0.00     0.300 A 
HETATM   11  C10 UNK     1      18.091   4.006  31.946  1.00  0.00     0.039 A 
ENDROOT
BRANCH   5  12
HETATM   12  C8  UNK     1      18.765  -0.907  36.092  1.00  0.00     0.067 C 
HETATM   13  C11 UNK     1      17.523  -1.480  36.757  1.00  0.00     0.073 C 
HETATM   14  N1  UNK     1      19.836  -1.644  36.213  1.00  0.00    -0.176 NA
BRANCH  14  15
HETATM   15  N3  UNK     1      19.733  -2.809  36.890  1.00  0.00    -0.243 N 
HETATM   16  C13 UNK     1      20.022  -3.983  36.219  1.00  0.00     0.271 C 
HETATM   17  O5  UNK     1      20.370  -4.052  35.043  1.00  0.00    -0.266 OA
HETATM   18  H8  UNK     1      19.379  -2.822  37.834  1.00  0.00     0.192 HD
BRANCH  16  19
HETATM   19  C12 UNK     1      19.871  -5.233  37.009  1.00  0.00     0.033 A 
HETATM   20  C14 UNK     1      20.714  -5.450  38.079  1.00  0.00     0.019 A 
HETATM   21  C16 UNK     1      20.572  -6.623  38.820  1.00  0.00     0.025 A 
HETATM   22  C18 UNK     1      19.590  -7.551  38.475  1.00  0.00     0.034 A 
HETATM   23  C17 UNK     1      18.750  -7.308  37.389  1.00  0.00     0.025 A 
HETATM   24 Cl1  UNK     1      19.416  -8.999  39.388  1.00  0.00    -0.084 Cl
HETATM   25  C15 UNK     1      18.891  -6.135  36.647  1.00  0.00     0.019 A 
ENDBRANCH  16  19
ENDBRANCH  14  15
ENDBRANCH   5  12
BRANCH   9  26
HETATM   26  N2  UNK     1      18.175   2.819  29.820  1.00  0.00    -0.116 N 
HETATM   27  O3  UNK     1      18.748   3.749  29.204  1.00  0.00    -0.532 OA
HETATM   28  O4  UNK     1      17.570   1.897  29.220  1.00  0.00    -0.532 OA
ENDBRANCH   9  26
TORSDOF 4
ENDMDL
MODEL 3
REMARK VINA RESULT:      -9.0      5.968      9.385
REMARK  4 active torsions:
REMARK  status: ('A' for Active; 'I' for Inactive)
REMARK    1  A    between atoms: N1_7  and  N3_9 
REMARK    2  A    between atoms: C7_16  and  N2_8 
REMARK       I    between atoms: C13_22  and  N3_9 
REMARK    3  A    between atoms: C3_12  and  C8_17 
REMARK    4  A    between atoms: C12_21  and  C13_22 
ROOT
HETATM    1  O1  UNK     1      20.736  -5.143  38.423  1.00  0.00    -0.274 OA
HETATM    2  O2  UNK     1      20.630  -2.900  38.005  1.00  0.00    -0.259 OA
HETATM    3  C1  UNK     1      20.289  -6.722  36.628  1.00  0.00     0.001 A 
HETATM    4  C2  UNK     1      20.621  -6.467  37.956  1.00  0.00     0.089 A 
HETATM    5  C3  UNK     1      20.174  -4.343  36.182  1.00  0.00     0.066 A 
HETATM    6  C4  UNK     1      20.063  -5.598  35.732  1.00  0.00     0.034 A 
HETATM    7  C5  UNK     1      20.185  -8.048  36.202  1.00  0.00     0.050 A 
HETATM    8  C6  UNK     1      20.851  -7.497  38.865  1.00  0.00     0.041 A 
HETATM    9  C7  UNK     1      20.413  -9.092  37.104  1.00  0.00     0.103 A 
HETATM   10  C9  UNK     1      20.526  -4.049  37.589  1.00  0.00     0.300 A 
HETATM   11  C10 UNK     1      20.745  -8.817  38.432  1.00  0.00     0.039 A 
ENDROOT
BRANCH   5  12
HETATM   12  C8  UNK     1      19.928  -3.279  35.202  1.00  0.00     0.067 C 
HETATM   13  C11 UNK     1      18.852  -2.267  35.565  1.00  0.00     0.073 C 
HETATM   14  N1  UNK     1      20.500  -3.073  34.045  1.00  0.00    -0.176 NA
BRANCH  14  15
HETATM   15  N3  UNK     1      20.095  -2.010  33.316  1.00  0.00    -0.243 N 
HETATM   16  C13 UNK     1      20.339  -2.019  31.955  1.00  0.00     0.271 C 
HETATM   17  O5  UNK     1      20.902  -2.928  31.349  1.00  0.00    -0.266 OA
HETATM   18  H8  UNK     1      19.696  -1.202  33.768  1.00  0.00     0.192 HD
BRANCH  16  19
HETATM   19  C12 UNK     1      19.890  -0.815  31.209  1.00  0.00     0.033 A 
HETATM   20  C14 UNK     1      19.203   0.170  31.888  1.00  0.00     0.019 A 
HETATM   21  C16 UNK     1      18.782   1.300  31.188  1.00  0.00     0.025 A 
HETATM   22  C18 UNK     1      19.057   1.420  29.826  1.00  0.00     0.034 A 
HETATM   23  C17 UNK     1      19.754   0.410  29.163  1.00  0.00     0.025 A 
HETATM   24 Cl1  UNK     1      18.536   2.814  28.962  1.00  0.00    -0.084 Cl
HETATM   25  C15 UNK     1      20.176  -0.721  29.863  1.00  0.00     0.019 A 
ENDBRANCH  16  19
ENDBRANCH  14  15
ENDBRANCH   5  12
BRANCH   9  26
HETATM   26  N2  UNK     1      20.305 -10.439  36.667  1.00  0.00    -0.116 N 
HETATM   27  O3  UNK     1      21.142 -10.879  35.842  1.00  0.00    -0.532 OA
HETATM   28  O4  UNK     1      19.376 -11.153  37.118  1.00  0.00    -0.532 OA
ENDBRANCH   9  26
TORSDOF 4
ENDMDL
MODEL 4
REMARK VINA RESULT:      -9.0      4.420     10.613
REMARK  4 active torsions:
REMARK  status: ('A' for Active; 'I' for Inactive)
REMARK    1  A    between atoms: N1_7  and  N3_9 
REMARK    2  A    between atoms: C7_16  and  N2_8 
REMARK       I    between atoms: C13_22  and  N3_9 
REMARK    3  A    between atoms: C3_12  and  C8_17 
REMARK    4  A    between atoms: C12_21  and  C13_22 
ROOT
HETATM    1  O1  UNK     1      17.753   9.655  34.243  1.00  0.00    -0.274 OA
HETATM    2  O2  UNK     1      19.380   8.117  33.788  1.00  0.00    -0.259 OA
HETATM    3  C1  UNK     1      15.532   9.369  33.296  1.00  0.00     0.001 A 
HETATM    4  C2  UNK     1      16.425  10.094  34.080  1.00  0.00     0.089 A 
HETATM    5  C3  UNK     1      17.256   7.737  32.810  1.00  0.00     0.066 A 
HETATM    6  C4  UNK     1      15.993   8.149  32.651  1.00  0.00     0.034 A 
HETATM    7  C5  UNK     1      14.223   9.836  33.158  1.00  0.00     0.050 A 
HETATM    8  C6  UNK     1      16.047  11.269  34.725  1.00  0.00     0.041 A 
HETATM    9  C7  UNK     1      13.829  11.015  33.801  1.00  0.00     0.103 A 
HETATM   10  C9  UNK     1      18.222   8.493  33.638  1.00  0.00     0.300 A 
HETATM   11  C10 UNK     1      14.740  11.729  34.582  1.00  0.00     0.039 A 
ENDROOT
BRANCH   5  12
HETATM   12  C8  UNK     1      17.625   6.496  32.120  1.00  0.00     0.067 C 
HETATM   13  C11 UNK     1      18.426   6.653  30.836  1.00  0.00     0.073 C 
HETATM   14  N1  UNK     1      17.358   5.259  32.445  1.00  0.00    -0.176 NA
BRANCH  14  15
HETATM   15  N3  UNK     1      17.814   4.276  31.637  1.00  0.00    -0.243 N 
HETATM   16  C13 UNK     1      18.078   3.040  32.196  1.00  0.00     0.271 C 
HETATM   17  O5  UNK     1      17.929   2.760  33.384  1.00  0.00    -0.266 OA
HETATM   18  H8  UNK     1      18.028   4.467  30.670  1.00  0.00     0.192 HD
BRANCH  16  19
HETATM   19  C12 UNK     1      18.596   2.006  31.264  1.00  0.00     0.033 A 
HETATM   20  C14 UNK     1      19.110   0.837  31.786  1.00  0.00     0.019 A 
HETATM   21  C16 UNK     1      19.596  -0.134  30.911  1.00  0.00     0.025 A 
HETATM   22  C18 UNK     1      19.557   0.085  29.534  1.00  0.00     0.034 A 
HETATM   23  C17 UNK     1      19.032   1.276  29.032  1.00  0.00     0.025 A 
HETATM   24 Cl1  UNK     1      20.159  -1.112  28.454  1.00  0.00    -0.084 Cl
HETATM   25  C15 UNK     1      18.546   2.247  29.906  1.00  0.00     0.019 A 
ENDBRANCH  16  19
ENDBRANCH  14  15
ENDBRANCH   5  12
BRANCH   9  26
HETATM   26  N2  UNK     1      12.498  11.487  33.657  1.00  0.00    -0.116 N 
HETATM   27  O3  UNK     1      11.891  11.276  32.580  1.00  0.00    -0.532 OA
HETATM   28  O4  UNK     1      11.965  12.104  34.612  1.00  0.00    -0.532 OA
ENDBRANCH   9  26
TORSDOF 4
ENDMDL
MODEL 5
REMARK VINA RESULT:      -8.9      5.834     10.323
REMARK  4 active torsions:
REMARK  status: ('A' for Active; 'I' for Inactive)
REMARK    1  A    between atoms: N1_7  and  N3_9 
REMARK    2  A    between atoms: C7_16  and  N2_8 
REMARK       I    between atoms: C13_22  and  N3_9 
REMARK    3  A    between atoms: C3_12  and  C8_17 
REMARK    4  A    between atoms: C12_21  and  C13_22 
ROOT
HETATM    1  O1  UNK     1      18.363   1.403  31.835  1.00  0.00    -0.274 OA
HETATM    2  O2  UNK     1      18.674  -0.850  32.046  1.00  0.00    -0.259 OA
HETATM    3  C1  UNK     1      18.289   2.797  33.826  1.00  0.00     0.001 A 
HETATM    4  C2  UNK     1      18.230   2.668  32.442  1.00  0.00     0.089 A 
HETATM    5  C3  UNK     1      18.617   0.407  34.053  1.00  0.00     0.066 A 
HETATM    6  C4  UNK     1      18.492   1.606  34.636  1.00  0.00     0.034 A 
HETATM    7  C5  UNK     1      18.153   4.067  34.391  1.00  0.00     0.050 A 
HETATM    8  C6  UNK     1      18.039   3.769  31.610  1.00  0.00     0.041 A 
HETATM    9  C7  UNK     1      17.962   5.182  33.568  1.00  0.00     0.103 A 
HETATM   10  C9  UNK     1      18.557   0.247  32.583  1.00  0.00     0.300 A 
HETATM   11  C10 UNK     1      17.905   5.033  32.181  1.00  0.00     0.039 A 
ENDROOT
BRANCH   5  12
HETATM   12  C8  UNK     1      18.819  -0.734  34.954  1.00  0.00     0.067 C 
HETATM   13  C11 UNK     1      17.599  -1.194  35.738  1.00  0.00     0.073 C 
HETATM   14  N1  UNK     1      19.906  -1.417  35.191  1.00  0.00    -0.176 NA
BRANCH  14  15
HETATM   15  N3  UNK     1      19.837  -2.437  36.075  1.00  0.00    -0.243 N 
HETATM   16  C13 UNK     1      20.098  -3.716  35.619  1.00  0.00     0.271 C 
HETATM   17  O5  UNK     1      20.393  -4.002  34.461  1.00  0.00    -0.266 OA
HETATM   18  H8  UNK     1      19.526  -2.274  37.020  1.00  0.00     0.192 HD
BRANCH  16  19
HETATM   19  C12 UNK     1      19.986  -4.799  36.631  1.00  0.00     0.033 A 
HETATM   20  C14 UNK     1      20.954  -4.897  37.609  1.00  0.00     0.019 A 
HETATM   21  C16 UNK     1      20.849  -5.913  38.559  1.00  0.00     0.025 A 
HETATM   22  C18 UNK     1      19.779  -6.806  38.510  1.00  0.00     0.034 A 
HETATM   23  C17 UNK     1      18.814  -6.684  37.511  1.00  0.00     0.025 A 
HETATM   24 Cl1  UNK     1      19.650  -8.060  39.681  1.00  0.00    -0.084 Cl
HETATM   25  C15 UNK     1      18.918  -5.669  36.560  1.00  0.00     0.019 A 
ENDBRANCH  16  19
ENDBRANCH  14  15
ENDBRANCH   5  12
BRANCH   9  26
HETATM   26  N2  UNK     1      17.823   6.472  34.145  1.00  0.00    -0.116 N 
HETATM   27  O3  UNK     1      18.851   7.167  34.334  1.00  0.00    -0.532 OA
HETATM   28  O4  UNK     1      16.677   6.881  34.453  1.00  0.00    -0.532 OA
ENDBRANCH   9  26
TORSDOF 4
ENDMDL
MODEL 6
REMARK VINA RESULT:      -8.8      3.204      3.974
REMARK  4 active torsions:
REMARK  status: ('A' for Active; 'I' for Inactive)
REMARK    1  A    between atoms: N1_7  and  N3_9 
REMARK    2  A    between atoms: C7_16  and  N2_8 
REMARK       I    between atoms: C13_22  and  N3_9 
REMARK    3  A    between atoms: C3_12  and  C8_17 
REMARK    4  A    between atoms: C12_21  and  C13_22 
ROOT
HETATM    1  O1  UNK     1      18.300   1.660  32.235  1.00  0.00    -0.274 OA
HETATM    2  O2  UNK     1      18.284   3.577  30.993  1.00  0.00    -0.259 OA
HETATM    3  C1  UNK     1      18.334   1.802  34.662  1.00  0.00     0.001 A 
HETATM    4  C2  UNK     1      18.316   1.038  33.499  1.00  0.00     0.089 A 
HETATM    5  C3  UNK     1      18.320   3.837  33.347  1.00  0.00     0.066 A 
HETATM    6  C4  UNK     1      18.335   3.252  34.551  1.00  0.00     0.034 A 
HETATM    7  C5  UNK     1      18.350   1.149  35.897  1.00  0.00     0.050 A 
HETATM    8  C6  UNK     1      18.314  -0.355  33.536  1.00  0.00     0.041 A 
HETATM    9  C7  UNK     1      18.347  -0.249  35.949  1.00  0.00     0.103 A 
HETATM   10  C9  UNK     1      18.301   3.044  32.097  1.00  0.00     0.300 A 
HETATM   11  C10 UNK     1      18.329  -0.999  34.771  1.00  0.00     0.039 A 
ENDROOT
BRANCH   5  12
HETATM   12  C8  UNK     1      18.321   5.305  33.339  1.00  0.00     0.067 C 
HETATM   13  C11 UNK     1      19.646   5.977  33.666  1.00  0.00     0.073 C 
HETATM   14  N1  UNK     1      17.338   6.130  33.096  1.00  0.00    -0.176 NA
BRANCH  14  15
HETATM   15  N3  UNK     1      17.594   7.456  33.150  1.00  0.00    -0.243 N 
HETATM   16  C13 UNK     1      16.881   8.222  34.054  1.00  0.00     0.271 C 
HETATM   17  O5  UNK     1      16.025   7.788  34.821  1.00  0.00    -0.266 OA
HETATM   18  H8  UNK     1      18.230   7.882  32.494  1.00  0.00     0.192 HD
BRANCH  16  19
HETATM   19  C12 UNK     1      17.190   9.676  34.054  1.00  0.00     0.033 A 
HETATM   20  C14 UNK     1      18.505  10.076  33.937  1.00  0.00     0.019 A 
HETATM   21  C16 UNK     1      18.795  11.441  33.937  1.00  0.00     0.025 A 
HETATM   22  C18 UNK     1      17.764  12.373  34.053  1.00  0.00     0.034 A 
HETATM   23  C17 UNK     1      16.443  11.941  34.169  1.00  0.00     0.025 A 
HETATM   24 Cl1  UNK     1      18.122  14.056  34.054  1.00  0.00    -0.084 Cl
HETATM   25  C15 UNK     1      16.152  10.577  34.170  1.00  0.00     0.019 A 
ENDBRANCH  16  19
ENDBRANCH  14  15
ENDBRANCH   5  12
BRANCH   9  26
HETATM   26  N2  UNK     1      18.363  -0.909  37.206  1.00  0.00    -0.116 N 
HETATM   27  O3  UNK     1      18.773  -2.093  37.266  1.00  0.00    -0.532 OA
HETATM   28  O4  UNK     1      17.966  -0.290  38.223  1.00  0.00    -0.532 OA
ENDBRANCH   9  26
TORSDOF 4
ENDMDL
MODEL 7
REMARK VINA RESULT:      -8.8      5.544     10.076
REMARK  4 active torsions:
REMARK  status: ('A' for Active; 'I' for Inactive)
REMARK    1  A    between atoms: N1_7  and  N3_9 
REMARK    2  A    between atoms: C7_16  and  N2_8 
REMARK       I    between atoms: C13_22  and  N3_9 
REMARK    3  A    between atoms: C3_12  and  C8_17 
REMARK    4  A    between atoms: C12_21  and  C13_22 
ROOT
HETATM    1  O1  UNK     1      18.556   2.097  31.356  1.00  0.00    -0.274 OA
HETATM    2  O2  UNK     1      18.820  -0.171  31.264  1.00  0.00    -0.259 OA
HETATM    3  C1  UNK     1      18.215   3.179  33.506  1.00  0.00     0.001 A 
HETATM    4  C2  UNK     1      18.348   3.260  32.124  1.00  0.00     0.089 A 
HETATM    5  C3  UNK     1      18.492   0.774  33.412  1.00  0.00     0.066 A 
HETATM    6  C4  UNK     1      18.295   1.875  34.146  1.00  0.00     0.034 A 
HETATM    7  C5  UNK     1      18.009   4.355  34.233  1.00  0.00     0.050 A 
HETATM    8  C6  UNK     1      18.281   4.477  31.450  1.00  0.00     0.041 A 
HETATM    9  C7  UNK     1      17.941   5.584  33.570  1.00  0.00     0.103 A 
HETATM   10  C9  UNK     1      18.636   0.836  31.940  1.00  0.00     0.300 A 
HETATM   11  C10 UNK     1      18.077   5.645  32.181  1.00  0.00     0.039 A 
ENDROOT
BRANCH   5  12
HETATM   12  C8  UNK     1      18.559  -0.493  34.149  1.00  0.00     0.067 C 
HETATM   13  C11 UNK     1      17.256  -0.983  34.762  1.00  0.00     0.073 C 
HETATM   14  N1  UNK     1      19.587  -1.270  34.364  1.00  0.00    -0.176 NA
BRANCH  14  15
HETATM   15  N3  UNK     1      19.392  -2.398  35.081  1.00  0.00    -0.243 N 
HETATM   16  C13 UNK     1      20.444  -2.884  35.836  1.00  0.00     0.271 C 
HETATM   17  O5  UNK     1      21.555  -2.364  35.908  1.00  0.00    -0.266 OA
HETATM   18  H8  UNK     1      18.527  -2.911  35.003  1.00  0.00     0.192 HD
BRANCH  16  19
HETATM   19  C12 UNK     1      20.177  -4.138  36.587  1.00  0.00     0.033 A 
HETATM   20  C14 UNK     1      19.123  -4.937  36.193  1.00  0.00     0.019 A 
HETATM   21  C16 UNK     1      18.873  -6.114  36.897  1.00  0.00     0.025 A 
HETATM   22  C18 UNK     1      19.681  -6.467  37.977  1.00  0.00     0.034 A 
HETATM   23  C17 UNK     1      20.741  -5.642  38.354  1.00  0.00     0.025 A 
HETATM   24 Cl1  UNK     1      19.371  -7.919  38.847  1.00  0.00    -0.084 Cl
HETATM   25  C15 UNK     1      20.992  -4.464  37.651  1.00  0.00     0.019 A 
ENDBRANCH  16  19
ENDBRANCH  14  15
ENDBRANCH   5  12
BRANCH   9  26
HETATM   26  N2  UNK     1      17.732   6.777  34.312  1.00  0.00    -0.116 N 
HETATM   27  O3  UNK     1      16.620   6.963  34.863  1.00  0.00    -0.532 OA
HETATM   28  O4  UNK     1      18.664   7.612  34.396  1.00  0.00    -0.532 OA
ENDBRANCH   9  26
TORSDOF 4
ENDMDL
MODEL 8
REMARK VINA RESULT:      -8.7     16.544     19.119
REMARK  4 active torsions:
REMARK  status: ('A' for Active; 'I' for Inactive)
REMARK    1  A    between atoms: N1_7  and  N3_9 
REMARK    2  A    between atoms: C7_16  and  N2_8 
REMARK       I    between atoms: C13_22  and  N3_9 
REMARK    3  A    between atoms: C3_12  and  C8_17 
REMARK    4  A    between atoms: C12_21  and  C13_22 
ROOT
HETATM    1  O1  UNK     1      18.794  -4.698  11.732  1.00  0.00    -0.274 OA
HETATM    2  O2  UNK     1      17.996  -4.637  13.871  1.00  0.00    -0.259 OA
HETATM    3  C1  UNK     1      20.346  -2.984  10.980  1.00  0.00     0.001 A 
HETATM    4  C2  UNK     1      19.604  -4.134  10.727  1.00  0.00     0.089 A 
HETATM    5  C3  UNK     1      19.500  -2.916  13.249  1.00  0.00     0.066 A 
HETATM    6  C4  UNK     1      20.271  -2.375  12.299  1.00  0.00     0.034 A 
HETATM    7  C5  UNK     1      21.138  -2.454   9.958  1.00  0.00     0.050 A 
HETATM    8  C6  UNK     1      19.631  -4.766   9.486  1.00  0.00     0.041 A 
HETATM    9  C7  UNK     1      21.175  -3.079   8.707  1.00  0.00     0.103 A 
HETATM   10  C9  UNK     1      18.702  -4.138  13.002  1.00  0.00     0.300 A 
HETATM   11  C10 UNK     1      20.424  -4.232   8.472  1.00  0.00     0.039 A 
ENDROOT
BRANCH   5  12
HETATM   12  C8  UNK     1      19.492  -2.229  14.546  1.00  0.00     0.067 C 
HETATM   13  C11 UNK     1      20.048  -3.015  15.725  1.00  0.00     0.073 C 
HETATM   14  N1  UNK     1      19.067  -1.031  14.844  1.00  0.00    -0.176 NA
BRANCH  14  15
HETATM   15  N3  UNK     1      19.169  -0.621  16.128  1.00  0.00    -0.243 N 
HETATM   16  C13 UNK     1      19.147   0.738  16.384  1.00  0.00     0.271 C 
HETATM   17  O5  UNK     1      19.040   1.612  15.527  1.00  0.00    -0.266 OA
HETATM   18  H8  UNK     1      19.335  -1.287  16.866  1.00  0.00     0.192 HD
BRANCH  16  19
HETATM   19  C12 UNK     1      19.283   1.129  17.811  1.00  0.00     0.033 A 
HETATM   20  C14 UNK     1      19.329   0.139  18.770  1.00  0.00     0.019 A 
HETATM   21  C16 UNK     1      19.457   0.507  20.110  1.00  0.00     0.025 A 
HETATM   22  C18 UNK     1      19.538   1.854  20.459  1.00  0.00     0.034 A 
HETATM   23  C17 UNK     1      19.490   2.836  19.469  1.00  0.00     0.025 A 
HETATM   24 Cl1  UNK     1      19.695   2.308  22.112  1.00  0.00    -0.084 Cl
HETATM   25  C15 UNK     1      19.361   2.470  18.130  1.00  0.00     0.019 A 
ENDBRANCH  16  19
ENDBRANCH  14  15
ENDBRANCH   5  12
BRANCH   9  26
HETATM   26  N2  UNK     1      21.981  -2.537   7.671  1.00  0.00    -0.116 N 
HETATM   27  O3  UNK     1      23.225  -2.690   7.726  1.00  0.00    -0.532 OA
HETATM   28  O4  UNK     1      21.427  -1.919   6.729  1.00  0.00    -0.532 OA
ENDBRANCH   9  26
TORSDOF 4
ENDMDL
MODEL 9
REMARK VINA RESULT:      -8.7     14.583     16.612
REMARK  4 active torsions:
REMARK  status: ('A' for Active; 'I' for Inactive)
REMARK    1  A    between atoms: N1_7  and  N3_9 
REMARK    2  A    between atoms: C7_16  and  N2_8 
REMARK       I    between atoms: C13_22  and  N3_9 
REMARK    3  A    between atoms: C3_12  and  C8_17 
REMARK    4  A    between atoms: C12_21  and  C13_22 
ROOT
HETATM    1  O1  UNK     1      31.353  -8.845  38.340  1.00  0.00    -0.274 OA
HETATM    2  O2  UNK     1      29.713 -10.309  38.960  1.00  0.00    -0.259 OA
HETATM    3  C1  UNK     1      30.746  -6.718  37.331  1.00  0.00     0.001 A 
HETATM    4  C2  UNK     1      31.719  -7.605  37.779  1.00  0.00     0.089 A 
HETATM    5  C3  UNK     1      29.004  -8.269  37.985  1.00  0.00     0.066 A 
HETATM    6  C4  UNK     1      29.345  -7.090  37.452  1.00  0.00     0.034 A 
HETATM    7  C5  UNK     1      31.148  -5.498  36.780  1.00  0.00     0.050 A 
HETATM    8  C6  UNK     1      33.078  -7.309  37.692  1.00  0.00     0.041 A 
HETATM    9  C7  UNK     1      32.508  -5.187  36.687  1.00  0.00     0.103 A 
HETATM   10  C9  UNK     1      30.022  -9.228  38.468  1.00  0.00     0.300 A 
HETATM   11  C10 UNK     1      33.471  -6.091  37.142  1.00  0.00     0.039 A 
ENDROOT
BRANCH   5  12
HETATM   12  C8  UNK     1      27.566  -8.553  38.065  1.00  0.00     0.067 C 
HETATM   13  C11 UNK     1      26.958  -9.282  36.876  1.00  0.00     0.073 C 
HETATM   14  N1  UNK     1      26.718  -8.263  39.015  1.00  0.00    -0.176 NA
BRANCH  14  15
HETATM   15  N3  UNK     1      25.429  -8.636  38.853  1.00  0.00    -0.243 N 
HETATM   16  C13 UNK     1      24.468  -7.646  38.772  1.00  0.00     0.271 C 
HETATM   17  O5  UNK     1      24.695  -6.440  38.835  1.00  0.00    -0.266 OA
HETATM   18  H8  UNK     1      25.173  -9.611  38.870  1.00  0.00     0.192 HD
BRANCH  16  19
HETATM   19  C12 UNK     1      23.067  -8.116  38.615  1.00  0.00     0.033 A 
HETATM   20  C14 UNK     1      22.670  -8.627  37.397  1.00  0.00     0.019 A 
HETATM   21  C16 UNK     1      21.355  -9.069  37.249  1.00  0.00     0.025 A 
HETATM   22  C18 UNK     1      20.468  -8.991  38.323  1.00  0.00     0.034 A 
HETATM   23  C17 UNK     1      20.895  -8.470  39.544  1.00  0.00     0.025 A 
HETATM   24 Cl1  UNK     1      18.846  -9.534  38.141  1.00  0.00    -0.084 Cl
HETATM   25  C15 UNK     1      22.210  -8.028  39.692  1.00  0.00     0.019 A 
ENDBRANCH  16  19
ENDBRANCH  14  15
ENDBRANCH   5  12
BRANCH   9  26
HETATM   26  N2  UNK     1      32.913  -3.947  36.127  1.00  0.00    -0.116 N 
HETATM   27  O3  UNK     1      32.267  -2.910  36.414  1.00  0.00    -0.532 OA
HETATM   28  O4  UNK     1      33.906  -3.921  35.359  1.00  0.00    -0.532 OA
ENDBRANCH   9  26
TORSDOF 4
ENDMDL
MODEL 10
REMARK VINA RESULT:      -8.6     16.101     18.616
REMARK  4 active torsions:
REMARK  status: ('A' for Active; 'I' for Inactive)
REMARK    1  A    between atoms: N1_7  and  N3_9 
REMARK    2  A    between atoms: C7_16  and  N2_8 
REMARK       I    between atoms: C13_22  and  N3_9 
REMARK    3  A    between atoms: C3_12  and  C8_17 
REMARK    4  A    between atoms: C12_21  and  C13_22 
ROOT
HETATM    1  O1  UNK     1      20.430  -3.378  11.089  1.00  0.00    -0.274 OA
HETATM    2  O2  UNK     1      21.055  -1.547  12.303  1.00  0.00    -0.259 OA
HETATM    3  C1  UNK     1      18.996  -5.059  12.104  1.00  0.00     0.001 A 
HETATM    4  C2  UNK     1      19.720  -4.592  11.011  1.00  0.00     0.089 A 
HETATM    5  C3  UNK     1      19.659  -3.119  13.395  1.00  0.00     0.066 A 
HETATM    6  C4  UNK     1      18.983  -4.272  13.327  1.00  0.00     0.034 A 
HETATM    7  C5  UNK     1      18.305  -6.268  11.988  1.00  0.00     0.050 A 
HETATM    8  C6  UNK     1      19.774  -5.298   9.811  1.00  0.00     0.041 A 
HETATM    9  C7  UNK     1      18.349  -6.986  10.789  1.00  0.00     0.103 A 
HETATM   10  C9  UNK     1      20.436  -2.604  12.245  1.00  0.00     0.300 A 
HETATM   11  C10 UNK     1      19.082  -6.502   9.703  1.00  0.00     0.039 A 
ENDROOT
BRANCH   5  12
HETATM   12  C8  UNK     1      19.584  -2.397  14.670  1.00  0.00     0.067 C 
HETATM   13  C11 UNK     1      20.203  -3.093  15.873  1.00  0.00     0.073 C 
HETATM   14  N1  UNK     1      19.051  -1.233  14.930  1.00  0.00    -0.176 NA
BRANCH  14  15
HETATM   15  N3  UNK     1      19.110  -0.777  16.201  1.00  0.00    -0.243 N 
HETATM   16  C13 UNK     1      19.168   0.590  16.403  1.00  0.00     0.271 C 
HETATM   17  O5  UNK     1      19.171   1.432  15.508  1.00  0.00    -0.266 OA
HETATM   18  H8  UNK     1      19.187  -1.421  16.973  1.00  0.00     0.192 HD
BRANCH  16  19
HETATM   19  C12 UNK     1      19.252   1.032  17.819  1.00  0.00     0.033 A 
HETATM   20  C14 UNK     1      19.142   0.087  18.818  1.00  0.00     0.019 A 
HETATM   21  C16 UNK     1      19.221   0.501  20.147  1.00  0.00     0.025 A 
HETATM   22  C18 UNK     1      19.409   1.849  20.448  1.00  0.00     0.034 A 
HETATM   23  C17 UNK     1      19.518   2.785  19.419  1.00  0.00     0.025 A 
HETATM   24 Cl1  UNK     1      19.505   2.361  22.088  1.00  0.00    -0.084 Cl
HETATM   25  C15 UNK     1      19.439   2.372  18.089  1.00  0.00     0.019 A 
ENDBRANCH  16  19
ENDBRANCH  14  15
ENDBRANCH   5  12
BRANCH   9  26
HETATM   26  N2  UNK     1      17.646  -8.215  10.675  1.00  0.00    -0.116 N 
HETATM   27  O3  UNK     1      17.340  -8.637   9.534  1.00  0.00    -0.532 OA
HETATM   28  O4  UNK     1      17.348  -8.844  11.720  1.00  0.00    -0.532 OA
ENDBRANCH   9  26
TORSDOF 4
ENDMDL
