MODEL 1
REMARK VINA RESULT:      -6.9      0.000      0.000
REMARK  2 active torsions:
REMARK  status: ('A' for Active; 'I' for Inactive)
REMARK    1  A    between atoms: C7_12  and  O2_4 
REMARK    2  A    between atoms: C10_15  and  C5_10 
ROOT
HETATM    1  O1  UNK     1      18.561   0.930  31.224  1.00  0.00    -0.308 OA
HETATM    2  O3  UNK     1      21.142  -1.667  29.434  1.00  0.00    -0.287 OA
HETATM    3  C1  UNK     1      19.956  -1.054  31.384  1.00  0.00     0.051 A 
HETATM    4  C2  UNK     1      19.069  -0.129  31.934  1.00  0.00     0.090 A 
HETATM    5  C3  UNK     1      20.441  -2.113  32.155  1.00  0.00     0.055 A 
HETATM    6  C4  UNK     1      20.368  -0.894  29.981  1.00  0.00     0.187 A 
HETATM    7  C5  UNK     1      18.948   1.082  29.901  1.00  0.00     0.121 A 
HETATM    8  C6  UNK     1      18.662  -0.259  33.262  1.00  0.00     0.041 A 
HETATM    9  C7  UNK     1      20.031  -2.239  33.483  1.00  0.00     0.069 A 
HETATM   10  C8  UNK     1      19.793   0.260  29.262  1.00  0.00     0.094 A 
HETATM   11  C9  UNK     1      19.145  -1.315  34.036  1.00  0.00     0.039 A 
ENDROOT
BRANCH   7  12
HETATM   12  C10 UNK     1      18.330   2.268  29.231  1.00  0.00     0.410 C 
HETATM   13  F1  UNK     1      17.517   1.872  28.225  1.00  0.00    -0.207 F 
HETATM   14  F2  UNK     1      17.567   2.960  30.109  1.00  0.00    -0.207 F 
ENDBRANCH   7  12
BRANCH   9  15
HETATM   15  O2  UNK     1      20.499  -3.268  34.242  1.00  0.00    -0.356 OA
HETATM   16  C11 UNK     1      20.151  -3.264  35.626  1.00  0.00     0.210 C 
ENDBRANCH   9  15
TORSDOF 2
ENDMDL
MODEL 2
REMARK VINA RESULT:      -6.7      4.635      6.666
REMARK  2 active torsions:
REMARK  status: ('A' for Active; 'I' for Inactive)
REMARK    1  A    between atoms: C7_12  and  O2_4 
REMARK    2  A    between atoms: C10_15  and  C5_10 
ROOT
HETATM    1  O1  UNK     1      18.020   3.282  31.444  1.00  0.00    -0.308 OA
HETATM    2  O3  UNK     1      20.040   6.256  29.524  1.00  0.00    -0.287 OA
HETATM    3  C1  UNK     1      19.058   5.478  31.529  1.00  0.00     0.051 A 
HETATM    4  C2  UNK     1      18.368   4.423  32.123  1.00  0.00     0.090 A 
HETATM    5  C3  UNK     1      19.386   6.615  32.270  1.00  0.00     0.055 A 
HETATM    6  C4  UNK     1      19.434   5.369  30.111  1.00  0.00     0.187 A 
HETATM    7  C5  UNK     1      18.374   3.178  30.108  1.00  0.00     0.121 A 
HETATM    8  C6  UNK     1      18.000   4.500  33.467  1.00  0.00     0.041 A 
HETATM    9  C7  UNK     1      19.016   6.689  33.613  1.00  0.00     0.069 A 
HETATM   10  C8  UNK     1      19.038   4.123  29.426  1.00  0.00     0.094 A 
HETATM   11  C9  UNK     1      18.325   5.635  34.211  1.00  0.00     0.039 A 
ENDROOT
BRANCH   7  12
HETATM   12  C10 UNK     1      17.943   1.893  29.475  1.00  0.00     0.410 C 
HETATM   13  F1  UNK     1      17.541   2.106  28.200  1.00  0.00    -0.207 F 
HETATM   14  F2  UNK     1      18.978   1.023  29.424  1.00  0.00    -0.207 F 
ENDBRANCH   7  12
BRANCH   9  15
HETATM   15  O2  UNK     1      19.331   7.794  34.344  1.00  0.00    -0.356 OA
HETATM   16  C11 UNK     1      18.659   9.007  34.009  1.00  0.00     0.210 C 
ENDBRANCH   9  15
TORSDOF 2
ENDMDL
MODEL 3
REMARK VINA RESULT:      -6.7      4.311      6.438
REMARK  2 active torsions:
REMARK  status: ('A' for Active; 'I' for Inactive)
REMARK    1  A    between atoms: C7_12  and  O2_4 
REMARK    2  A    between atoms: C10_15  and  C5_10 
ROOT
HETATM    1  O1  UNK     1      18.735   4.025  30.157  1.00  0.00    -0.308 OA
HETATM    2  O3  UNK     1      17.862   2.276  33.733  1.00  0.00    -0.287 OA
HETATM    3  C1  UNK     1      18.350   4.260  32.544  1.00  0.00     0.051 A 
HETATM    4  C2  UNK     1      18.645   4.793  31.290  1.00  0.00     0.090 A 
HETATM    5  C3  UNK     1      18.272   5.091  33.665  1.00  0.00     0.055 A 
HETATM    6  C4  UNK     1      18.125   2.812  32.664  1.00  0.00     0.187 A 
HETATM    7  C5  UNK     1      18.521   2.659  30.268  1.00  0.00     0.121 A 
HETATM    8  C6  UNK     1      18.863   6.164  31.149  1.00  0.00     0.041 A 
HETATM    9  C7  UNK     1      18.491   6.461  33.519  1.00  0.00     0.069 A 
HETATM   10  C8  UNK     1      18.232   2.031  31.417  1.00  0.00     0.094 A 
HETATM   11  C9  UNK     1      18.786   6.997  32.265  1.00  0.00     0.039 A 
ENDROOT
BRANCH   7  12
HETATM   12  C10 UNK     1      18.645   1.928  28.968  1.00  0.00     0.410 C 
HETATM   13  F1  UNK     1      19.567   0.943  29.067  1.00  0.00    -0.207 F 
HETATM   14  F2  UNK     1      17.469   1.341  28.645  1.00  0.00    -0.207 F 
ENDBRANCH   7  12
BRANCH   9  15
HETATM   15  O2  UNK     1      18.416   7.280  34.606  1.00  0.00    -0.356 OA
HETATM   16  C11 UNK     1      17.116   7.713  35.003  1.00  0.00     0.210 C 
ENDBRANCH   9  15
TORSDOF 2
ENDMDL
MODEL 4
REMARK VINA RESULT:      -6.7     12.907     15.307
REMARK  2 active torsions:
REMARK  status: ('A' for Active; 'I' for Inactive)
REMARK    1  A    between atoms: C7_12  and  O2_4 
REMARK    2  A    between atoms: C10_15  and  C5_10 
ROOT
HETATM    1  O1  UNK     1      19.285   0.752  14.976  1.00  0.00    -0.308 OA
HETATM    2  O3  UNK     1      18.660  -1.800  18.090  1.00  0.00    -0.287 OA
HETATM    3  C1  UNK     1      19.048   0.417  17.371  1.00  0.00     0.051 A 
HETATM    4  C2  UNK     1      19.257   1.234  16.260  1.00  0.00     0.090 A 
HETATM    5  C3  UNK     1      19.029   0.963  18.656  1.00  0.00     0.055 A 
HETATM    6  C4  UNK     1      18.848  -1.025  17.162  1.00  0.00     0.187 A 
HETATM    7  C5  UNK     1      19.096  -0.607  14.777  1.00  0.00     0.121 A 
HETATM    8  C6  UNK     1      19.448   2.605  16.430  1.00  0.00     0.041 A 
HETATM    9  C7  UNK     1      19.222   2.335  18.822  1.00  0.00     0.069 A 
HETATM   10  C8  UNK     1      18.887  -1.491  15.763  1.00  0.00     0.094 A 
HETATM   11  C9  UNK     1      19.431   3.155  17.713  1.00  0.00     0.039 A 
ENDROOT
BRANCH   7  12
HETATM   12  C10 UNK     1      19.147  -1.013  13.339  1.00  0.00     0.410 C 
HETATM   13  F1  UNK     1      20.430  -1.145  12.931  1.00  0.00    -0.207 F 
HETATM   14  F2  UNK     1      18.551  -2.215  13.167  1.00  0.00    -0.207 F 
ENDBRANCH   7  12
BRANCH   9  15
HETATM   15  O2  UNK     1      19.205   2.877  20.072  1.00  0.00    -0.356 OA
HETATM   16  C11 UNK     1      19.729   2.079  21.132  1.00  0.00     0.210 C 
ENDBRANCH   9  15
TORSDOF 2
ENDMDL
MODEL 5
REMARK VINA RESULT:      -6.6      7.102      9.354
REMARK  2 active torsions:
REMARK  status: ('A' for Active; 'I' for Inactive)
REMARK    1  A    between atoms: C7_12  and  O2_4 
REMARK    2  A    between atoms: C10_15  and  C5_10 
ROOT
HETATM    1  O1  UNK     1      18.039   6.591  31.379  1.00  0.00    -0.308 OA
HETATM    2  O3  UNK     1      19.282   7.856  35.048  1.00  0.00    -0.287 OA
HETATM    3  C1  UNK     1      17.520   7.695  33.480  1.00  0.00     0.051 A 
HETATM    4  C2  UNK     1      17.162   7.237  32.214  1.00  0.00     0.090 A 
HETATM    5  C3  UNK     1      16.585   8.347  34.287  1.00  0.00     0.055 A 
HETATM    6  C4  UNK     1      18.898   7.480  33.949  1.00  0.00     0.187 A 
HETATM    7  C5  UNK     1      19.338   6.386  31.819  1.00  0.00     0.121 A 
HETATM    8  C6  UNK     1      15.862   7.427  31.746  1.00  0.00     0.041 A 
HETATM    9  C7  UNK     1      15.286   8.536  33.816  1.00  0.00     0.069 A 
HETATM   10  C8  UNK     1      19.801   6.781  33.014  1.00  0.00     0.094 A 
HETATM   11  C9  UNK     1      14.924   8.078  32.548  1.00  0.00     0.039 A 
ENDROOT
BRANCH   7  12
HETATM   12  C10 UNK     1      20.199   5.673  30.826  1.00  0.00     0.410 C 
HETATM   13  F1  UNK     1      20.050   6.217  29.595  1.00  0.00    -0.207 F 
HETATM   14  F2  UNK     1      21.505   5.797  31.159  1.00  0.00    -0.207 F 
ENDBRANCH   7  12
BRANCH   9  15
HETATM   15  O2  UNK     1      14.366   9.170  34.595  1.00  0.00    -0.356 OA
HETATM   16  C11 UNK     1      14.801  10.336  35.293  1.00  0.00     0.210 C 
ENDBRANCH   9  15
TORSDOF 2
ENDMDL
MODEL 6
REMARK VINA RESULT:      -6.6      4.876      6.775
REMARK  2 active torsions:
REMARK  status: ('A' for Active; 'I' for Inactive)
REMARK    1  A    between atoms: C7_12  and  O2_4 
REMARK    2  A    between atoms: C10_15  and  C5_10 
ROOT
HETATM    1  O1  UNK     1      18.226   5.494  34.001  1.00  0.00    -0.308 OA
HETATM    2  O3  UNK     1      18.772   6.504  30.091  1.00  0.00    -0.287 OA
HETATM    3  C1  UNK     1      18.484   4.788  31.690  1.00  0.00     0.051 A 
HETATM    4  C2  UNK     1      18.298   4.513  33.044  1.00  0.00     0.090 A 
HETATM    5  C3  UNK     1      18.551   3.748  30.760  1.00  0.00     0.055 A 
HETATM    6  C4  UNK     1      18.608   6.190  31.262  1.00  0.00     0.187 A 
HETATM    7  C5  UNK     1      18.341   6.815  33.599  1.00  0.00     0.121 A 
HETATM    8  C6  UNK     1      18.178   3.192  33.476  1.00  0.00     0.041 A 
HETATM    9  C7  UNK     1      18.430   2.428  31.196  1.00  0.00     0.069 A 
HETATM   10  C8  UNK     1      18.522   7.205  32.329  1.00  0.00     0.094 A 
HETATM   11  C9  UNK     1      18.244   2.150  32.550  1.00  0.00     0.039 A 
ENDROOT
BRANCH   7  12
HETATM   12  C10 UNK     1      18.246   7.793  34.727  1.00  0.00     0.410 C 
HETATM   13  F1  UNK     1      17.161   7.526  35.492  1.00  0.00    -0.207 F 
HETATM   14  F2  UNK     1      19.331   7.693  35.530  1.00  0.00    -0.207 F 
ENDBRANCH   7  12
BRANCH   9  15
HETATM   15  O2  UNK     1      18.493   1.407  30.297  1.00  0.00    -0.356 OA
HETATM   16  C11 UNK     1      18.101   1.699  28.956  1.00  0.00     0.210 C 
ENDBRANCH   9  15
TORSDOF 2
ENDMDL
MODEL 7
REMARK VINA RESULT:      -6.5      7.800      9.844
REMARK  2 active torsions:
REMARK  status: ('A' for Active; 'I' for Inactive)
REMARK    1  A    between atoms: C7_12  and  O2_4 
REMARK    2  A    between atoms: C10_15  and  C5_10 
ROOT
HETATM    1  O1  UNK     1      16.622   8.865  34.803  1.00  0.00    -0.308 OA
HETATM    2  O3  UNK     1      15.963   8.330  30.817  1.00  0.00    -0.287 OA
HETATM    3  C1  UNK     1      17.361   7.937  32.682  1.00  0.00     0.051 A 
HETATM    4  C2  UNK     1      17.525   8.157  34.048  1.00  0.00     0.090 A 
HETATM    5  C3  UNK     1      18.314   7.209  31.964  1.00  0.00     0.055 A 
HETATM    6  C4  UNK     1      16.171   8.484  32.013  1.00  0.00     0.187 A 
HETATM    7  C5  UNK     1      15.499   9.380  34.174  1.00  0.00     0.121 A 
HETATM    8  C6  UNK     1      18.645   7.649  34.707  1.00  0.00     0.041 A 
HETATM    9  C7  UNK     1      19.432   6.702  32.627  1.00  0.00     0.069 A 
HETATM   10  C8  UNK     1      15.232   9.236  32.868  1.00  0.00     0.094 A 
HETATM   11  C9  UNK     1      19.598   6.922  33.994  1.00  0.00     0.039 A 
ENDROOT
BRANCH   7  12
HETATM   12  C10 UNK     1      14.590  10.130  35.096  1.00  0.00     0.410 C 
HETATM   13  F1  UNK     1      15.227  11.205  35.615  1.00  0.00    -0.207 F 
HETATM   14  F2  UNK     1      13.514  10.594  34.421  1.00  0.00    -0.207 F 
ENDBRANCH   7  12
BRANCH   9  15
HETATM   15  O2  UNK     1      20.366   5.991  31.936  1.00  0.00    -0.356 OA
HETATM   16  C11 UNK     1      20.127   5.788  30.544  1.00  0.00     0.210 C 
ENDBRANCH   9  15
TORSDOF 2
ENDMDL
MODEL 8
REMARK VINA RESULT:      -6.5      6.349      8.375
REMARK  2 active torsions:
REMARK  status: ('A' for Active; 'I' for Inactive)
REMARK    1  A    between atoms: C7_12  and  O2_4 
REMARK    2  A    between atoms: C10_15  and  C5_10 
ROOT
HETATM    1  O1  UNK     1      19.971   7.700  33.153  1.00  0.00    -0.308 OA
HETATM    2  O3  UNK     1      16.440   6.485  34.784  1.00  0.00    -0.287 OA
HETATM    3  C1  UNK     1      18.143   6.100  33.190  1.00  0.00     0.051 A 
HETATM    4  C2  UNK     1      19.350   6.572  32.679  1.00  0.00     0.090 A 
HETATM    5  C3  UNK     1      17.556   4.945  32.668  1.00  0.00     0.055 A 
HETATM    6  C4  UNK     1      17.500   6.840  34.287  1.00  0.00     0.187 A 
HETATM    7  C5  UNK     1      19.368   8.398  34.188  1.00  0.00     0.121 A 
HETATM    8  C6  UNK     1      19.981   5.888  31.639  1.00  0.00     0.041 A 
HETATM    9  C7  UNK     1      18.190   4.265  31.628  1.00  0.00     0.069 A 
HETATM   10  C8  UNK     1      18.208   8.045  34.761  1.00  0.00     0.094 A 
HETATM   11  C9  UNK     1      19.399   4.734  31.114  1.00  0.00     0.039 A 
ENDROOT
BRANCH   7  12
HETATM   12  C10 UNK     1      20.136   9.607  34.620  1.00  0.00     0.410 C 
HETATM   13  F1  UNK     1      21.408   9.545  34.164  1.00  0.00    -0.207 F 
HETATM   14  F2  UNK     1      19.582  10.727  34.100  1.00  0.00    -0.207 F 
ENDBRANCH   7  12
BRANCH   9  15
HETATM   15  O2  UNK     1      17.626   3.137  31.112  1.00  0.00    -0.356 OA
HETATM   16  C11 UNK     1      18.292   2.525  30.009  1.00  0.00     0.210 C 
ENDBRANCH   9  15
TORSDOF 2
ENDMDL
MODEL 9
REMARK VINA RESULT:      -6.5      2.459      3.595
REMARK  2 active torsions:
REMARK  status: ('A' for Active; 'I' for Inactive)
REMARK    1  A    between atoms: C7_12  and  O2_4 
REMARK    2  A    between atoms: C10_15  and  C5_10 
ROOT
HETATM    1  O1  UNK     1      19.026   0.051  31.344  1.00  0.00    -0.308 OA
HETATM    2  O3  UNK     1      17.932   3.764  32.618  1.00  0.00    -0.287 OA
HETATM    3  C1  UNK     1      18.302   1.493  33.160  1.00  0.00     0.051 A 
HETATM    4  C2  UNK     1      18.685   0.251  32.658  1.00  0.00     0.090 A 
HETATM    5  C3  UNK     1      17.965   1.637  34.508  1.00  0.00     0.055 A 
HETATM    6  C4  UNK     1      18.259   2.645  32.246  1.00  0.00     0.187 A 
HETATM    7  C5  UNK     1      18.988   1.135  30.481  1.00  0.00     0.121 A 
HETATM    8  C6  UNK     1      18.735  -0.858  33.504  1.00  0.00     0.041 A 
HETATM    9  C7  UNK     1      18.015   0.527  35.351  1.00  0.00     0.069 A 
HETATM   10  C8  UNK     1      18.635   2.377  30.845  1.00  0.00     0.094 A 
HETATM   11  C9  UNK     1      18.399  -0.718  34.851  1.00  0.00     0.039 A 
ENDROOT
BRANCH   7  12
HETATM   12  C10 UNK     1      19.380   0.796  29.078  1.00  0.00     0.410 C 
HETATM   13  F1  UNK     1      19.804  -0.487  29.003  1.00  0.00    -0.207 F 
HETATM   14  F2  UNK     1      18.315   0.911  28.250  1.00  0.00    -0.207 F 
ENDBRANCH   7  12
BRANCH   9  15
HETATM   15  O2  UNK     1      17.689   0.657  36.666  1.00  0.00    -0.356 OA
HETATM   16  C11 UNK     1      17.686  -0.531  37.456  1.00  0.00     0.210 C 
ENDBRANCH   9  15
TORSDOF 2
ENDMDL
MODEL 10
REMARK VINA RESULT:      -6.5      3.051      4.412
REMARK  2 active torsions:
REMARK  status: ('A' for Active; 'I' for Inactive)
REMARK    1  A    between atoms: C7_12  and  O2_4 
REMARK    2  A    between atoms: C10_15  and  C5_10 
ROOT
HETATM    1  O1  UNK     1      18.886  -0.747  32.389  1.00  0.00    -0.308 OA
HETATM    2  O3  UNK     1      20.698  -3.075  35.201  1.00  0.00    -0.287 OA
HETATM    3  C1  UNK     1      19.116  -1.385  34.722  1.00  0.00     0.051 A 
HETATM    4  C2  UNK     1      18.537  -0.622  33.710  1.00  0.00     0.090 A 
HETATM    5  C3  UNK     1      18.721  -1.214  36.051  1.00  0.00     0.055 A 
HETATM    6  C4  UNK     1      20.148  -2.371  34.365  1.00  0.00     0.187 A 
HETATM    7  C5  UNK     1      19.857  -1.677  32.050  1.00  0.00     0.121 A 
HETATM    8  C6  UNK     1      17.556   0.320  34.023  1.00  0.00     0.041 A 
HETATM    9  C7  UNK     1      17.740  -0.271  36.360  1.00  0.00     0.069 A 
HETATM   10  C8  UNK     1      20.486  -2.468  32.932  1.00  0.00     0.094 A 
HETATM   11  C9  UNK     1      17.159   0.495  35.348  1.00  0.00     0.039 A 
ENDROOT
BRANCH   7  12
HETATM   12  C10 UNK     1      20.153  -1.724  30.584  1.00  0.00     0.410 C 
HETATM   13  F1  UNK     1      20.946  -0.687  30.229  1.00  0.00    -0.207 F 
HETATM   14  F2  UNK     1      20.821  -2.859  30.275  1.00  0.00    -0.207 F 
ENDBRANCH   7  12
BRANCH   9  15
HETATM   15  O2  UNK     1      17.348  -0.097  37.652  1.00  0.00    -0.356 OA
HETATM   16  C11 UNK     1      17.568   1.189  38.230  1.00  0.00     0.210 C 
ENDBRANCH   9  15
TORSDOF 2
ENDMDL
