MODEL 1
REMARK VINA RESULT:      -9.7      0.000      0.000
REMARK  5 active torsions:
REMARK  status: ('A' for Active; 'I' for Inactive)
REMARK    1  A    between atoms: C14_22  and  O3_3 
REMARK    2  A    between atoms: C22_30  and  O3_3 
REMARK    3  A    between atoms: C4_12  and  N2_7 
REMARK    4  A    between atoms: C2_10  and  N3_8 
REMARK       I    between atoms: C7_15  and  N3_8 
REMARK    5  A    between atoms: C7_15  and  C8_16 
ROOT
HETATM    1  O4  UNK     1      21.763  -4.036  37.201  1.00  0.00    -0.267 OA
HETATM    2  N3  UNK     1      19.934  -5.342  36.564  1.00  0.00    -0.316 N 
HETATM    3  C7  UNK     1      20.644  -4.161  36.705  1.00  0.00     0.262 C 
HETATM    4  H7  UNK     1      19.101  -5.353  35.982  1.00  0.00     0.169 HD
ENDROOT
BRANCH   2   5
HETATM    5  C2  UNK     1      20.394  -6.547  36.965  1.00  0.00     0.130 A 
HETATM    6  C1  UNK     1      20.405  -7.108  38.180  1.00  0.00     0.057 A 
HETATM    7  N1  UNK     1      20.953  -8.391  38.144  1.00  0.00    -0.289 N 
HETATM    8  C6  UNK     1      19.872  -6.531  39.448  1.00  0.00     0.072 C 
HETATM    9  C5  UNK     1      20.327  -9.493  38.868  1.00  0.00     0.178 C 
HETATM   10  N2  UNK     1      21.398  -8.621  36.828  1.00  0.00    -0.217 N 
HETATM   11  C3  UNK     1      21.015  -7.530  36.038  1.00  0.00     0.295 A 
HETATM   12  O1  UNK     1      21.193  -7.309  34.852  1.00  0.00    -0.264 OA
BRANCH  10  13
HETATM   13  C4  UNK     1      22.345  -9.619  36.488  1.00  0.00     0.060 A 
HETATM   14  C10 UNK     1      23.696  -9.441  36.799  1.00  0.00     0.031 A 
HETATM   15  C17 UNK     1      24.629 -10.423  36.463  1.00  0.00     0.002 A 
HETATM   16  C19 UNK     1      24.215 -11.587  35.815  1.00  0.00     0.000 A 
HETATM   17  C16 UNK     1      22.868 -11.769  35.502  1.00  0.00     0.002 A 
HETATM   18  C9  UNK     1      21.936 -10.787  35.837  1.00  0.00     0.031 A 
ENDBRANCH  10  13
ENDBRANCH   2   5
BRANCH   3  19
HETATM   19  C8  UNK     1      19.917  -2.996  36.189  1.00  0.00     0.108 A 
HETATM   20  C13 UNK     1      19.071  -2.401  37.039  1.00  0.00     0.037 A 
HETATM   21  C11 UNK     1      18.306  -1.238  36.619  1.00  0.00     0.002 A 
HETATM   22  C12 UNK     1      18.469  -0.757  35.324  1.00  0.00     0.123 A 
HETATM   23  C18 UNK     1      17.414  -0.585  37.473  1.00  0.00     0.014 A 
HETATM   24  O2  UNK     1      19.360  -1.387  34.432  1.00  0.00    -0.271 OA
HETATM   25  C14 UNK     1      17.766   0.352  34.859  1.00  0.00     0.103 A 
HETATM   26  C15 UNK     1      20.106  -2.501  34.806  1.00  0.00     0.304 A 
HETATM   27  O5  UNK     1      20.880  -3.043  34.024  1.00  0.00    -0.259 OA
HETATM   28  C20 UNK     1      16.877   0.996  35.717  1.00  0.00     0.040 A 
HETATM   29  C21 UNK     1      16.701   0.530  37.021  1.00  0.00     0.004 A 
BRANCH  25  30
HETATM   30  O3  UNK     1      17.933   0.811  33.589  1.00  0.00    -0.349 OA
BRANCH  30  31
HETATM   31  C22 UNK     1      18.183   2.207  33.430  1.00  0.00     0.171 C 
HETATM   32  C23 UNK     1      18.251   2.529  31.952  1.00  0.00     0.034 C 
ENDBRANCH  30  31
ENDBRANCH  25  30
ENDBRANCH   3  19
TORSDOF 5
ENDMDL
MODEL 2
REMARK VINA RESULT:      -9.4      7.417     14.374
REMARK  5 active torsions:
REMARK  status: ('A' for Active; 'I' for Inactive)
REMARK    1  A    between atoms: C14_22  and  O3_3 
REMARK    2  A    between atoms: C22_30  and  O3_3 
REMARK    3  A    between atoms: C4_12  and  N2_7 
REMARK    4  A    between atoms: C2_10  and  N3_8 
REMARK       I    between atoms: C7_15  and  N3_8 
REMARK    5  A    between atoms: C7_15  and  C8_16 
ROOT
HETATM    1  O4  UNK     1      18.898   5.861  32.280  1.00  0.00    -0.267 OA
HETATM    2  N3  UNK     1      17.347   5.845  34.027  1.00  0.00    -0.316 N 
HETATM    3  C7  UNK     1      18.217   5.269  33.116  1.00  0.00     0.262 C 
HETATM    4  H7  UNK     1      16.974   5.279  34.783  1.00  0.00     0.169 HD
ENDROOT
BRANCH   2   5
HETATM    5  C2  UNK     1      17.129   7.176  34.118  1.00  0.00     0.130 A 
HETATM    6  C1  UNK     1      17.932   8.157  34.548  1.00  0.00     0.057 A 
HETATM    7  N1  UNK     1      17.314   9.403  34.447  1.00  0.00    -0.289 N 
HETATM    8  C6  UNK     1      19.336   8.028  35.034  1.00  0.00     0.072 C 
HETATM    9  C5  UNK     1      18.039  10.558  33.925  1.00  0.00     0.178 C 
HETATM   10  N2  UNK     1      15.996   9.184  34.002  1.00  0.00    -0.217 N 
HETATM   11  C3  UNK     1      15.849   7.819  33.721  1.00  0.00     0.295 A 
HETATM   12  O1  UNK     1      14.883   7.193  33.317  1.00  0.00    -0.264 OA
BRANCH  10  13
HETATM   13  C4  UNK     1      14.953  10.132  34.153  1.00  0.00     0.060 A 
HETATM   14  C10 UNK     1      14.601  10.593  35.425  1.00  0.00     0.031 A 
HETATM   15  C17 UNK     1      13.573  11.525  35.574  1.00  0.00     0.002 A 
HETATM   16  C19 UNK     1      12.894  12.000  34.452  1.00  0.00     0.000 A 
HETATM   17  C16 UNK     1      13.242  11.543  33.181  1.00  0.00     0.002 A 
HETATM   18  C9  UNK     1      14.268  10.611  33.032  1.00  0.00     0.031 A 
ENDBRANCH  10  13
ENDBRANCH   2   5
BRANCH   3  19
HETATM   19  C8  UNK     1      18.267   3.807  33.226  1.00  0.00     0.108 A 
HETATM   20  C13 UNK     1      18.369   3.309  34.465  1.00  0.00     0.037 A 
HETATM   21  C11 UNK     1      18.425   1.871  34.675  1.00  0.00     0.002 A 
HETATM   22  C12 UNK     1      18.373   1.027  33.571  1.00  0.00     0.123 A 
HETATM   23  C18 UNK     1      18.529   1.308  35.949  1.00  0.00     0.014 A 
HETATM   24  O2  UNK     1      18.267   1.556  32.269  1.00  0.00    -0.271 OA
HETATM   25  C14 UNK     1      18.422  -0.359  33.703  1.00  0.00     0.103 A 
HETATM   26  C15 UNK     1      18.210   2.927  32.037  1.00  0.00     0.304 A 
HETATM   27  O5  UNK     1      18.117   3.379  30.900  1.00  0.00    -0.259 OA
HETATM   28  C20 UNK     1      18.527  -0.912  34.978  1.00  0.00     0.040 A 
HETATM   29  C21 UNK     1      18.580  -0.081  36.099  1.00  0.00     0.004 A 
BRANCH  25  30
HETATM   30  O3  UNK     1      18.372  -1.173  32.615  1.00  0.00    -0.349 OA
BRANCH  30  31
HETATM   31  C22 UNK     1      19.589  -1.806  32.219  1.00  0.00     0.171 C 
HETATM   32  C23 UNK     1      20.087  -1.159  30.944  1.00  0.00     0.034 C 
ENDBRANCH  30  31
ENDBRANCH  25  30
ENDBRANCH   3  19
TORSDOF 5
ENDMDL
MODEL 3
REMARK VINA RESULT:      -9.4      2.287      3.819
REMARK  5 active torsions:
REMARK  status: ('A' for Active; 'I' for Inactive)
REMARK    1  A    between atoms: C14_22  and  O3_3 
REMARK    2  A    between atoms: C22_30  and  O3_3 
REMARK    3  A    between atoms: C4_12  and  N2_7 
REMARK    4  A    between atoms: C2_10  and  N3_8 
REMARK       I    between atoms: C7_15  and  N3_8 
REMARK    5  A    between atoms: C7_15  and  C8_16 
ROOT
HETATM    1  O4  UNK     1      21.456  -2.507  35.408  1.00  0.00    -0.267 OA
HETATM    2  N3  UNK     1      19.813  -3.995  34.669  1.00  0.00    -0.316 N 
HETATM    3  C7  UNK     1      20.545  -2.819  34.641  1.00  0.00     0.262 C 
HETATM    4  H7  UNK     1      19.209  -4.221  33.884  1.00  0.00     0.169 HD
ENDROOT
BRANCH   2   5
HETATM    5  C2  UNK     1      20.012  -4.983  35.569  1.00  0.00     0.130 A 
HETATM    6  C1  UNK     1      20.236  -4.920  36.887  1.00  0.00     0.057 A 
HETATM    7  N1  UNK     1      20.359  -6.194  37.444  1.00  0.00    -0.289 N 
HETATM    8  C6  UNK     1      20.302  -3.696  37.736  1.00  0.00     0.072 C 
HETATM    9  C5  UNK     1      19.699  -6.527  38.703  1.00  0.00     0.178 C 
HETATM   10  N2  UNK     1      20.295  -7.122  36.388  1.00  0.00    -0.217 N 
HETATM   11  C3  UNK     1      20.015  -6.425  35.206  1.00  0.00     0.295 A 
HETATM   12  O1  UNK     1      19.876  -6.826  34.062  1.00  0.00    -0.264 OA
BRANCH  10  13
HETATM   13  C4  UNK     1      20.769  -8.454  36.490  1.00  0.00     0.060 A 
HETATM   14  C10 UNK     1      22.114  -8.743  36.238  1.00  0.00     0.031 A 
HETATM   15  C17 UNK     1      22.581 -10.055  36.337  1.00  0.00     0.002 A 
HETATM   16  C19 UNK     1      21.705 -11.082  36.689  1.00  0.00     0.000 A 
HETATM   17  C16 UNK     1      20.363 -10.799  36.942  1.00  0.00     0.002 A 
HETATM   18  C9  UNK     1      19.897  -9.488  36.842  1.00  0.00     0.031 A 
ENDBRANCH  10  13
ENDBRANCH   2   5
BRANCH   3  19
HETATM   19  C8  UNK     1      20.126  -1.914  33.565  1.00  0.00     0.108 A 
HETATM   20  C13 UNK     1      20.656  -2.145  32.358  1.00  0.00     0.037 A 
HETATM   21  C11 UNK     1      20.301  -1.301  31.227  1.00  0.00     0.002 A 
HETATM   22  C12 UNK     1      19.406  -0.255  31.424  1.00  0.00     0.123 A 
HETATM   23  C18 UNK     1      20.828  -1.507  29.950  1.00  0.00     0.014 A 
HETATM   24  O2  UNK     1      18.853  -0.015  32.698  1.00  0.00    -0.271 OA
HETATM   25  C14 UNK     1      19.025   0.591  30.384  1.00  0.00     0.103 A 
HETATM   26  C15 UNK     1      19.172  -0.807  33.797  1.00  0.00     0.304 A 
HETATM   27  O5  UNK     1      18.685  -0.591  34.902  1.00  0.00    -0.259 OA
HETATM   28  C20 UNK     1      19.556   0.379  29.114  1.00  0.00     0.040 A 
HETATM   29  C21 UNK     1      20.455  -0.667  28.896  1.00  0.00     0.004 A 
BRANCH  25  30
HETATM   30  O3  UNK     1      18.151   1.611  30.591  1.00  0.00    -0.349 OA
BRANCH  30  31
HETATM   31  C22 UNK     1      18.344   2.799  29.822  1.00  0.00     0.171 C 
HETATM   32  C23 UNK     1      18.806   3.910  30.740  1.00  0.00     0.034 C 
ENDBRANCH  30  31
ENDBRANCH  25  30
ENDBRANCH   3  19
TORSDOF 5
ENDMDL
MODEL 4
REMARK VINA RESULT:      -8.9     18.773     22.128
REMARK  5 active torsions:
REMARK  status: ('A' for Active; 'I' for Inactive)
REMARK    1  A    between atoms: C14_22  and  O3_3 
REMARK    2  A    between atoms: C22_30  and  O3_3 
REMARK    3  A    between atoms: C4_12  and  N2_7 
REMARK    4  A    between atoms: C2_10  and  N3_8 
REMARK       I    between atoms: C7_15  and  N3_8 
REMARK    5  A    between atoms: C7_15  and  C8_16 
ROOT
HETATM    1  O4  UNK     1      17.768  -2.376  15.856  1.00  0.00    -0.267 OA
HETATM    2  N3  UNK     1      19.777  -1.755  14.837  1.00  0.00    -0.316 N 
HETATM    3  C7  UNK     1      18.761  -1.655  15.774  1.00  0.00     0.262 C 
HETATM    4  H7  UNK     1      20.630  -1.221  14.972  1.00  0.00     0.169 HD
ENDROOT
BRANCH   2   5
HETATM    5  C2  UNK     1      19.809  -2.690  13.862  1.00  0.00     0.130 A 
HETATM    6  C1  UNK     1      20.323  -3.926  13.866  1.00  0.00     0.057 A 
HETATM    7  N1  UNK     1      20.111  -4.569  12.645  1.00  0.00    -0.289 N 
HETATM    8  C6  UNK     1      20.999  -4.621  14.998  1.00  0.00     0.072 C 
HETATM    9  C5  UNK     1      19.669  -5.960  12.599  1.00  0.00     0.178 C 
HETATM   10  N2  UNK     1      19.495  -3.642  11.783  1.00  0.00    -0.217 N 
HETATM   11  C3  UNK     1      19.226  -2.476  12.511  1.00  0.00     0.295 A 
HETATM   12  O1  UNK     1      18.708  -1.427  12.165  1.00  0.00    -0.264 OA
BRANCH  10  13
HETATM   13  C4  UNK     1      19.482  -3.778  10.372  1.00  0.00     0.060 A 
HETATM   14  C10 UNK     1      20.545  -3.286   9.608  1.00  0.00     0.031 A 
HETATM   15  C17 UNK     1      20.531  -3.418   8.219  1.00  0.00     0.002 A 
HETATM   16  C19 UNK     1      19.456  -4.045   7.588  1.00  0.00     0.000 A 
HETATM   17  C16 UNK     1      18.394  -4.538   8.346  1.00  0.00     0.002 A 
HETATM   18  C9  UNK     1      18.407  -4.404   9.734  1.00  0.00     0.031 A 
ENDBRANCH  10  13
ENDBRANCH   2   5
BRANCH   3  19
HETATM   19  C8  UNK     1      18.968  -0.552  16.720  1.00  0.00     0.108 A 
HETATM   20  C13 UNK     1      18.964  -0.878  18.018  1.00  0.00     0.037 A 
HETATM   21  C11 UNK     1      19.162   0.147  19.032  1.00  0.00     0.002 A 
HETATM   22  C12 UNK     1      19.354   1.464  18.629  1.00  0.00     0.123 A 
HETATM   23  C18 UNK     1      19.166  -0.148  20.398  1.00  0.00     0.014 A 
HETATM   24  O2  UNK     1      19.356   1.801  17.261  1.00  0.00    -0.271 OA
HETATM   25  C14 UNK     1      19.548   2.493  19.548  1.00  0.00     0.103 A 
HETATM   26  C15 UNK     1      19.171   0.843  16.268  1.00  0.00     0.304 A 
HETATM   27  O5  UNK     1      19.176   1.146  15.080  1.00  0.00    -0.259 OA
HETATM   28  C20 UNK     1      19.551   2.190  20.908  1.00  0.00     0.040 A 
HETATM   29  C21 UNK     1      19.361   0.873  21.333  1.00  0.00     0.004 A 
BRANCH  25  30
HETATM   30  O3  UNK     1      19.733   3.776  19.141  1.00  0.00    -0.349 OA
BRANCH  30  31
HETATM   31  C22 UNK     1      21.033   4.126  18.663  1.00  0.00     0.171 C 
HETATM   32  C23 UNK     1      21.010   5.562  18.184  1.00  0.00     0.034 C 
ENDBRANCH  30  31
ENDBRANCH  25  30
ENDBRANCH   3  19
TORSDOF 5
ENDMDL
MODEL 5
REMARK VINA RESULT:      -8.8      2.878      9.190
REMARK  5 active torsions:
REMARK  status: ('A' for Active; 'I' for Inactive)
REMARK    1  A    between atoms: C14_22  and  O3_3 
REMARK    2  A    between atoms: C22_30  and  O3_3 
REMARK    3  A    between atoms: C4_12  and  N2_7 
REMARK    4  A    between atoms: C2_10  and  N3_8 
REMARK       I    between atoms: C7_15  and  N3_8 
REMARK    5  A    between atoms: C7_15  and  C8_16 
ROOT
HETATM    1  O4  UNK     1      20.532  -2.464  37.254  1.00  0.00    -0.267 OA
HETATM    2  N3  UNK     1      19.523  -3.527  35.435  1.00  0.00    -0.316 N 
HETATM    3  C7  UNK     1      20.119  -3.473  36.684  1.00  0.00     0.262 C 
HETATM    4  H7  UNK     1      19.063  -4.384  35.142  1.00  0.00     0.169 HD
ENDROOT
BRANCH   2   5
HETATM    5  C2  UNK     1      19.310  -2.443  34.657  1.00  0.00     0.130 A 
HETATM    6  C1  UNK     1      18.436  -1.438  34.794  1.00  0.00     0.057 A 
HETATM    7  N1  UNK     1      18.573  -0.501  33.769  1.00  0.00    -0.289 N 
HETATM    8  C6  UNK     1      17.451  -1.240  35.896  1.00  0.00     0.072 C 
HETATM    9  C5  UNK     1      18.558   0.930  34.057  1.00  0.00     0.178 C 
HETATM   10  N2  UNK     1      19.543  -0.994  32.876  1.00  0.00    -0.217 N 
HETATM   11  C3  UNK     1      20.080  -2.169  33.415  1.00  0.00     0.295 A 
HETATM   12  O1  UNK     1      20.938  -2.921  32.981  1.00  0.00    -0.264 OA
BRANCH  10  13
HETATM   13  C4  UNK     1      19.674  -0.542  31.538  1.00  0.00     0.060 A 
HETATM   14  C10 UNK     1      20.364  -1.314  30.599  1.00  0.00     0.031 A 
HETATM   15  C17 UNK     1      20.494  -0.869  29.283  1.00  0.00     0.002 A 
HETATM   16  C19 UNK     1      19.933   0.350  28.901  1.00  0.00     0.000 A 
HETATM   17  C16 UNK     1      19.244   1.125  29.834  1.00  0.00     0.002 A 
HETATM   18  C9  UNK     1      19.115   0.680  31.149  1.00  0.00     0.031 A 
ENDBRANCH  10  13
ENDBRANCH   2   5
BRANCH   3  19
HETATM   19  C8  UNK     1      20.232  -4.792  37.317  1.00  0.00     0.108 A 
HETATM   20  C13 UNK     1      21.392  -5.057  37.930  1.00  0.00     0.037 A 
HETATM   21  C11 UNK     1      21.598  -6.338  38.588  1.00  0.00     0.002 A 
HETATM   22  C12 UNK     1      20.573  -7.278  38.566  1.00  0.00     0.123 A 
HETATM   23  C18 UNK     1      22.791  -6.656  39.241  1.00  0.00     0.014 A 
HETATM   24  O2  UNK     1      19.355  -6.994  37.918  1.00  0.00    -0.271 OA
HETATM   25  C14 UNK     1      20.706  -8.524  39.176  1.00  0.00     0.103 A 
HETATM   26  C15 UNK     1      19.128  -5.777  37.282  1.00  0.00     0.304 A 
HETATM   27  O5  UNK     1      18.064  -5.539  36.721  1.00  0.00    -0.259 OA
HETATM   28  C20 UNK     1      21.900  -8.833  39.825  1.00  0.00     0.040 A 
HETATM   29  C21 UNK     1      22.940  -7.902  39.858  1.00  0.00     0.004 A 
BRANCH  25  30
HETATM   30  O3  UNK     1      19.697  -9.434  39.146  1.00  0.00    -0.349 OA
BRANCH  30  31
HETATM   31  C22 UNK     1      19.963 -10.679  38.501  1.00  0.00     0.171 C 
HETATM   32  C23 UNK     1      20.088 -10.444  37.010  1.00  0.00     0.034 C 
ENDBRANCH  30  31
ENDBRANCH  25  30
ENDBRANCH   3  19
TORSDOF 5
ENDMDL
MODEL 6
REMARK VINA RESULT:      -8.8      7.440     10.642
REMARK  5 active torsions:
REMARK  status: ('A' for Active; 'I' for Inactive)
REMARK    1  A    between atoms: C14_22  and  O3_3 
REMARK    2  A    between atoms: C22_30  and  O3_3 
REMARK    3  A    between atoms: C4_12  and  N2_7 
REMARK    4  A    between atoms: C2_10  and  N3_8 
REMARK       I    between atoms: C7_15  and  N3_8 
REMARK    5  A    between atoms: C7_15  and  C8_16 
ROOT
HETATM    1  O4  UNK     1      19.850   4.990  34.259  1.00  0.00    -0.267 OA
HETATM    2  N3  UNK     1      17.868   4.286  33.243  1.00  0.00    -0.316 N 
HETATM    3  C7  UNK     1      18.730   5.214  33.803  1.00  0.00     0.262 C 
HETATM    4  H7  UNK     1      17.047   4.611  32.741  1.00  0.00     0.169 HD
ENDROOT
BRANCH   2   5
HETATM    5  C2  UNK     1      18.157   2.971  33.122  1.00  0.00     0.130 A 
HETATM    6  C1  UNK     1      18.282   2.023  34.058  1.00  0.00     0.057 A 
HETATM    7  N1  UNK     1      18.562   0.780  33.490  1.00  0.00    -0.289 N 
HETATM    8  C6  UNK     1      18.106   2.177  35.531  1.00  0.00     0.072 C 
HETATM    9  C5  UNK     1      17.880  -0.425  33.953  1.00  0.00     0.178 C 
HETATM   10  N2  UNK     1      18.708   0.975  32.103  1.00  0.00    -0.217 N 
HETATM   11  C3  UNK     1      18.402   2.310  31.813  1.00  0.00     0.295 A 
HETATM   12  O1  UNK     1      18.400   2.910  30.751  1.00  0.00    -0.264 OA
BRANCH  10  13
HETATM   13  C4  UNK     1      19.372   0.056  31.251  1.00  0.00     0.060 A 
HETATM   14  C10 UNK     1      19.718   0.429  29.949  1.00  0.00     0.031 A 
HETATM   15  C17 UNK     1      20.370  -0.476  29.110  1.00  0.00     0.002 A 
HETATM   16  C19 UNK     1      20.680  -1.756  29.570  1.00  0.00     0.000 A 
HETATM   17  C16 UNK     1      20.337  -2.132  30.869  1.00  0.00     0.002 A 
HETATM   18  C9  UNK     1      19.684  -1.228  31.707  1.00  0.00     0.031 A 
ENDBRANCH  10  13
ENDBRANCH   2   5
BRANCH   3  19
HETATM   19  C8  UNK     1      18.173   6.572  33.815  1.00  0.00     0.108 A 
HETATM   20  C13 UNK     1      16.845   6.666  33.958  1.00  0.00     0.037 A 
HETATM   21  C11 UNK     1      16.201   7.969  33.982  1.00  0.00     0.002 A 
HETATM   22  C12 UNK     1      16.986   9.111  33.853  1.00  0.00     0.123 A 
HETATM   23  C18 UNK     1      14.819   8.115  34.131  1.00  0.00     0.014 A 
HETATM   24  O2  UNK     1      18.382   9.006  33.702  1.00  0.00    -0.271 OA
HETATM   25  C14 UNK     1      16.431  10.389  33.868  1.00  0.00     0.103 A 
HETATM   26  C15 UNK     1      19.028   7.773  33.676  1.00  0.00     0.304 A 
HETATM   27  O5  UNK     1      20.244   7.691  33.545  1.00  0.00    -0.259 OA
HETATM   28  C20 UNK     1      15.052  10.524  34.017  1.00  0.00     0.040 A 
HETATM   29  C21 UNK     1      14.247   9.391  34.148  1.00  0.00     0.004 A 
BRANCH  25  30
HETATM   30  O3  UNK     1      17.210  11.496  33.740  1.00  0.00    -0.349 OA
BRANCH  30  31
HETATM   31  C22 UNK     1      17.009  12.546  34.687  1.00  0.00     0.171 C 
HETATM   32  C23 UNK     1      18.355  12.997  35.213  1.00  0.00     0.034 C 
ENDBRANCH  30  31
ENDBRANCH  25  30
ENDBRANCH   3  19
TORSDOF 5
ENDMDL
MODEL 7
REMARK VINA RESULT:      -8.7      6.860     14.122
REMARK  5 active torsions:
REMARK  status: ('A' for Active; 'I' for Inactive)
REMARK    1  A    between atoms: C14_22  and  O3_3 
REMARK    2  A    between atoms: C22_30  and  O3_3 
REMARK    3  A    between atoms: C4_12  and  N2_7 
REMARK    4  A    between atoms: C2_10  and  N3_8 
REMARK       I    between atoms: C7_15  and  N3_8 
REMARK    5  A    between atoms: C7_15  and  C8_16 
ROOT
HETATM    1  O4  UNK     1      18.375   5.345  30.798  1.00  0.00    -0.267 OA
HETATM    2  N3  UNK     1      17.998   5.121  33.093  1.00  0.00    -0.316 N 
HETATM    3  C7  UNK     1      18.302   4.665  31.821  1.00  0.00     0.262 C 
HETATM    4  H7  UNK     1      18.140   4.505  33.888  1.00  0.00     0.169 HD
ENDROOT
BRANCH   2   5
HETATM    5  C2  UNK     1      17.737   6.415  33.384  1.00  0.00     0.130 A 
HETATM    6  C1  UNK     1      18.483   7.326  34.020  1.00  0.00     0.057 A 
HETATM    7  N1  UNK     1      17.836   8.561  34.080  1.00  0.00    -0.289 N 
HETATM    8  C6  UNK     1      19.857   7.146  34.570  1.00  0.00     0.072 C 
HETATM    9  C5  UNK     1      18.558   9.799  33.802  1.00  0.00     0.178 C 
HETATM   10  N2  UNK     1      16.555   8.393  33.519  1.00  0.00    -0.217 N 
HETATM   11  C3  UNK     1      16.466   7.091  33.012  1.00  0.00     0.295 A 
HETATM   12  O1  UNK     1      15.546   6.520  32.449  1.00  0.00    -0.264 OA
BRANCH  10  13
HETATM   13  C4  UNK     1      15.478   9.284  33.753  1.00  0.00     0.060 A 
HETATM   14  C10 UNK     1      14.725   9.773  32.681  1.00  0.00     0.031 A 
HETATM   15  C17 UNK     1      13.665  10.651  32.910  1.00  0.00     0.002 A 
HETATM   16  C19 UNK     1      13.353  11.043  34.212  1.00  0.00     0.000 A 
HETATM   17  C16 UNK     1      14.101  10.559  35.285  1.00  0.00     0.002 A 
HETATM   18  C9  UNK     1      15.161   9.681  35.055  1.00  0.00     0.031 A 
ENDBRANCH  10  13
ENDBRANCH   2   5
BRANCH   3  19
HETATM   19  C8  UNK     1      18.542   3.218  31.779  1.00  0.00     0.108 A 
HETATM   20  C13 UNK     1      18.996   2.726  30.620  1.00  0.00     0.037 A 
HETATM   21  C11 UNK     1      19.264   1.304  30.481  1.00  0.00     0.002 A 
HETATM   22  C12 UNK     1      19.042   0.468  31.570  1.00  0.00     0.123 A 
HETATM   23  C18 UNK     1      19.740   0.748  29.291  1.00  0.00     0.014 A 
HETATM   24  O2  UNK     1      18.563   0.990  32.788  1.00  0.00    -0.271 OA
HETATM   25  C14 UNK     1      19.279  -0.904  31.504  1.00  0.00     0.103 A 
HETATM   26  C15 UNK     1      18.299   2.347  32.951  1.00  0.00     0.304 A 
HETATM   27  O5  UNK     1      17.883   2.793  34.015  1.00  0.00    -0.259 OA
HETATM   28  C20 UNK     1      19.752  -1.450  30.312  1.00  0.00     0.040 A 
HETATM   29  C21 UNK     1      19.983  -0.627  29.208  1.00  0.00     0.004 A 
BRANCH  25  30
HETATM   30  O3  UNK     1      19.055  -1.710  32.575  1.00  0.00    -0.349 OA
BRANCH  30  31
HETATM   31  C22 UNK     1      20.201  -2.183  33.283  1.00  0.00     0.171 C 
HETATM   32  C23 UNK     1      19.920  -2.123  34.770  1.00  0.00     0.034 C 
ENDBRANCH  30  31
ENDBRANCH  25  30
ENDBRANCH   3  19
TORSDOF 5
ENDMDL
MODEL 8
REMARK VINA RESULT:      -8.7      7.589     10.926
REMARK  5 active torsions:
REMARK  status: ('A' for Active; 'I' for Inactive)
REMARK    1  A    between atoms: C14_22  and  O3_3 
REMARK    2  A    between atoms: C22_30  and  O3_3 
REMARK    3  A    between atoms: C4_12  and  N2_7 
REMARK    4  A    between atoms: C2_10  and  N3_8 
REMARK       I    between atoms: C7_15  and  N3_8 
REMARK    5  A    between atoms: C7_15  and  C8_16 
ROOT
HETATM    1  O4  UNK     1      19.724   5.308  32.154  1.00  0.00    -0.267 OA
HETATM    2  N3  UNK     1      17.831   4.377  33.158  1.00  0.00    -0.316 N 
HETATM    3  C7  UNK     1      18.634   5.415  32.715  1.00  0.00     0.262 C 
HETATM    4  H7  UNK     1      16.877   4.575  33.445  1.00  0.00     0.169 HD
ENDROOT
BRANCH   2   5
HETATM    5  C2  UNK     1      18.152   3.070  33.026  1.00  0.00     0.130 A 
HETATM    6  C1  UNK     1      18.387   2.139  33.958  1.00  0.00     0.057 A 
HETATM    7  N1  UNK     1      18.658   0.898  33.381  1.00  0.00    -0.289 N 
HETATM    8  C6  UNK     1      18.330   2.307  35.439  1.00  0.00     0.072 C 
HETATM    9  C5  UNK     1      18.058  -0.322  33.912  1.00  0.00     0.178 C 
HETATM   10  N2  UNK     1      18.681   1.080  31.985  1.00  0.00    -0.217 N 
HETATM   11  C3  UNK     1      18.308   2.401  31.708  1.00  0.00     0.295 A 
HETATM   12  O1  UNK     1      18.197   2.987  30.644  1.00  0.00    -0.264 OA
BRANCH  10  13
HETATM   13  C4  UNK     1      19.301   0.172  31.090  1.00  0.00     0.060 A 
HETATM   14  C10 UNK     1      19.511   0.533  29.755  1.00  0.00     0.031 A 
HETATM   15  C17 UNK     1      20.119  -0.361  28.873  1.00  0.00     0.002 A 
HETATM   16  C19 UNK     1      20.522  -1.619  29.323  1.00  0.00     0.000 A 
HETATM   17  C16 UNK     1      20.315  -1.984  30.653  1.00  0.00     0.002 A 
HETATM   18  C9  UNK     1      19.706  -1.090  31.534  1.00  0.00     0.031 A 
ENDBRANCH  10  13
ENDBRANCH   2   5
BRANCH   3  19
HETATM   19  C8  UNK     1      18.054   6.736  32.983  1.00  0.00     0.108 A 
HETATM   20  C13 UNK     1      18.902   7.680  33.407  1.00  0.00     0.037 A 
HETATM   21  C11 UNK     1      18.421   9.021  33.698  1.00  0.00     0.002 A 
HETATM   22  C12 UNK     1      17.069   9.302  33.528  1.00  0.00     0.123 A 
HETATM   23  C18 UNK     1      19.271  10.038  34.141  1.00  0.00     0.014 A 
HETATM   24  O2  UNK     1      16.180   8.304  33.083  1.00  0.00    -0.271 OA
HETATM   25  C14 UNK     1      16.544  10.566  33.790  1.00  0.00     0.103 A 
HETATM   26  C15 UNK     1      16.612   7.012  32.795  1.00  0.00     0.304 A 
HETATM   27  O5  UNK     1      15.831   6.150  32.407  1.00  0.00    -0.259 OA
HETATM   28  C20 UNK     1      17.399  11.574  34.232  1.00  0.00     0.040 A 
HETATM   29  C21 UNK     1      18.759  11.312  34.407  1.00  0.00     0.004 A 
BRANCH  25  30
HETATM   30  O3  UNK     1      15.220  10.827  33.622  1.00  0.00    -0.349 OA
BRANCH  30  31
HETATM   31  C22 UNK     1      14.591  11.653  34.601  1.00  0.00     0.171 C 
HETATM   32  C23 UNK     1      14.208  10.800  35.792  1.00  0.00     0.034 C 
ENDBRANCH  30  31
ENDBRANCH  25  30
ENDBRANCH   3  19
TORSDOF 5
ENDMDL
MODEL 9
REMARK VINA RESULT:      -8.6      2.164      9.543
REMARK  5 active torsions:
REMARK  status: ('A' for Active; 'I' for Inactive)
REMARK    1  A    between atoms: C14_22  and  O3_3 
REMARK    2  A    between atoms: C22_30  and  O3_3 
REMARK    3  A    between atoms: C4_12  and  N2_7 
REMARK    4  A    between atoms: C2_10  and  N3_8 
REMARK       I    between atoms: C7_15  and  N3_8 
REMARK    5  A    between atoms: C7_15  and  C8_16 
ROOT
HETATM    1  O4  UNK     1      20.871  -2.769  37.302  1.00  0.00    -0.267 OA
HETATM    2  N3  UNK     1      19.069  -3.058  35.844  1.00  0.00    -0.316 N 
HETATM    3  C7  UNK     1      20.072  -3.484  36.699  1.00  0.00     0.262 C 
HETATM    4  H7  UNK     1      18.359  -3.720  35.544  1.00  0.00     0.169 HD
ENDROOT
BRANCH   2   5
HETATM    5  C2  UNK     1      18.830  -1.760  35.554  1.00  0.00     0.130 A 
HETATM    6  C1  UNK     1      18.206  -0.815  36.268  1.00  0.00     0.057 A 
HETATM    7  N1  UNK     1      18.207   0.410  35.600  1.00  0.00    -0.289 N 
HETATM    8  C6  UNK     1      17.611  -0.953  37.628  1.00  0.00     0.072 C 
HETATM    9  C5  UNK     1      18.508   1.650  36.311  1.00  0.00     0.178 C 
HETATM   10  N2  UNK     1      18.797   0.202  34.339  1.00  0.00    -0.217 N 
HETATM   11  C3  UNK     1      19.261  -1.118  34.285  1.00  0.00     0.295 A 
HETATM   12  O1  UNK     1      19.830  -1.723  33.390  1.00  0.00    -0.264 OA
BRANCH  10  13
HETATM   13  C4  UNK     1      18.626   1.083  33.241  1.00  0.00     0.060 A 
HETATM   14  C10 UNK     1      18.970   0.672  31.950  1.00  0.00     0.031 A 
HETATM   15  C17 UNK     1      18.802   1.539  30.870  1.00  0.00     0.002 A 
HETATM   16  C19 UNK     1      18.289   2.820  31.076  1.00  0.00     0.000 A 
HETATM   17  C16 UNK     1      17.944   3.234  32.362  1.00  0.00     0.002 A 
HETATM   18  C9  UNK     1      18.113   2.368  33.442  1.00  0.00     0.031 A 
ENDBRANCH  10  13
ENDBRANCH   2   5
BRANCH   3  19
HETATM   19  C8  UNK     1      20.116  -4.944  36.840  1.00  0.00     0.108 A 
HETATM   20  C13 UNK     1      20.050  -5.420  38.089  1.00  0.00     0.037 A 
HETATM   21  C11 UNK     1      20.085  -6.854  38.330  1.00  0.00     0.002 A 
HETATM   22  C12 UNK     1      20.191  -7.717  37.244  1.00  0.00     0.123 A 
HETATM   23  C18 UNK     1      20.017  -7.395  39.617  1.00  0.00     0.014 A 
HETATM   24  O2  UNK     1      20.262  -7.210  35.931  1.00  0.00    -0.271 OA
HETATM   25  C14 UNK     1      20.231  -9.100  37.406  1.00  0.00     0.103 A 
HETATM   26  C15 UNK     1      20.228  -5.843  35.669  1.00  0.00     0.304 A 
HETATM   27  O5  UNK     1      20.289  -5.411  34.524  1.00  0.00    -0.259 OA
HETATM   28  C20 UNK     1      20.163  -9.631  38.693  1.00  0.00     0.040 A 
HETATM   29  C21 UNK     1      20.056  -8.782  39.796  1.00  0.00     0.004 A 
BRANCH  25  30
HETATM   30  O3  UNK     1      20.335  -9.932  36.335  1.00  0.00    -0.349 OA
BRANCH  30  31
HETATM   31  C22 UNK     1      21.316 -10.966  36.409  1.00  0.00     0.171 C 
HETATM   32  C23 UNK     1      22.344 -10.748  35.319  1.00  0.00     0.034 C 
ENDBRANCH  30  31
ENDBRANCH  25  30
ENDBRANCH   3  19
TORSDOF 5
ENDMDL
MODEL 10
REMARK VINA RESULT:      -8.6      7.064     14.578
REMARK  5 active torsions:
REMARK  status: ('A' for Active; 'I' for Inactive)
REMARK    1  A    between atoms: C14_22  and  O3_3 
REMARK    2  A    between atoms: C22_30  and  O3_3 
REMARK    3  A    between atoms: C4_12  and  N2_7 
REMARK    4  A    between atoms: C2_10  and  N3_8 
REMARK       I    between atoms: C7_15  and  N3_8 
REMARK    5  A    between atoms: C7_15  and  C8_16 
ROOT
HETATM    1  O4  UNK     1      18.501   6.163  31.077  1.00  0.00    -0.267 OA
HETATM    2  N3  UNK     1      17.010   5.656  32.803  1.00  0.00    -0.316 N 
HETATM    3  C7  UNK     1      17.958   5.362  31.837  1.00  0.00     0.262 C 
HETATM    4  H7  UNK     1      16.764   4.948  33.488  1.00  0.00     0.169 HD
ENDROOT
BRANCH   2   5
HETATM    5  C2  UNK     1      16.544   6.903  33.043  1.00  0.00     0.130 A 
HETATM    6  C1  UNK     1      15.432   7.508  32.610  1.00  0.00     0.057 A 
HETATM    7  N1  UNK     1      15.322   8.800  33.126  1.00  0.00    -0.289 N 
HETATM    8  C6  UNK     1      14.370   6.932  31.737  1.00  0.00     0.072 C 
HETATM    9  C5  UNK     1      14.049   9.293  33.644  1.00  0.00     0.178 C 
HETATM   10  N2  UNK     1      16.491   9.057  33.868  1.00  0.00    -0.217 N 
HETATM   11  C3  UNK     1      17.257   7.885  33.901  1.00  0.00     0.295 A 
HETATM   12  O1  UNK     1      18.335   7.657  34.424  1.00  0.00    -0.264 OA
BRANCH  10  13
HETATM   13  C4  UNK     1      16.930  10.362  34.205  1.00  0.00     0.060 A 
HETATM   14  C10 UNK     1      16.081  11.233  34.896  1.00  0.00     0.031 A 
HETATM   15  C17 UNK     1      16.513  12.518  35.227  1.00  0.00     0.002 A 
HETATM   16  C19 UNK     1      17.794  12.938  34.870  1.00  0.00     0.000 A 
HETATM   17  C16 UNK     1      18.645  12.073  34.181  1.00  0.00     0.002 A 
HETATM   18  C9  UNK     1      18.213  10.789  33.849  1.00  0.00     0.031 A 
ENDBRANCH  10  13
ENDBRANCH   2   5
BRANCH   3  19
HETATM   19  C8  UNK     1      18.288   3.933  31.782  1.00  0.00     0.108 A 
HETATM   20  C13 UNK     1      18.588   3.442  30.573  1.00  0.00     0.037 A 
HETATM   21  C11 UNK     1      18.929   2.036  30.418  1.00  0.00     0.002 A 
HETATM   22  C12 UNK     1      18.936   1.217  31.542  1.00  0.00     0.123 A 
HETATM   23  C18 UNK     1      19.250   1.481  29.177  1.00  0.00     0.014 A 
HETATM   24  O2  UNK     1      18.618   1.740  32.811  1.00  0.00    -0.271 OA
HETATM   25  C14 UNK     1      19.253  -0.138  31.462  1.00  0.00     0.103 A 
HETATM   26  C15 UNK     1      18.290   3.080  32.992  1.00  0.00     0.304 A 
HETATM   27  O5  UNK     1      18.015   3.527  34.100  1.00  0.00    -0.259 OA
HETATM   28  C20 UNK     1      19.572  -0.683  30.220  1.00  0.00     0.040 A 
HETATM   29  C21 UNK     1      19.571   0.123  29.080  1.00  0.00     0.004 A 
BRANCH  25  30
HETATM   30  O3  UNK     1      19.255  -0.927  32.568  1.00  0.00    -0.349 OA
BRANCH  30  31
HETATM   31  C22 UNK     1      20.117  -2.066  32.554  1.00  0.00     0.171 C 
HETATM   32  C23 UNK     1      20.342  -2.530  33.977  1.00  0.00     0.034 C 
ENDBRANCH  30  31
ENDBRANCH  25  30
ENDBRANCH   3  19
TORSDOF 5
ENDMDL
