MODEL 1
REMARK VINA RESULT:      -7.2      0.000      0.000
REMARK  5 active torsions:
REMARK  status: ('A' for Active; 'I' for Inactive)
REMARK    1  A    between atoms: C12_19  and  O3_4 
REMARK    2  A    between atoms: C20_27  and  O3_4 
REMARK    3  A    between atoms: C7_14  and  N1_7 
REMARK    4  A    between atoms: C1_8  and  C5_12 
REMARK    5  A    between atoms: C12_19  and  C3_10 
ROOT
HETATM    1  O1  UNK     1      33.747  -6.192  36.739  1.00  0.00    -0.292 OA
HETATM    2  O2  UNK     1      33.094  -6.946  32.674  1.00  0.00    -0.274 OA
HETATM    3  O4  UNK     1      30.936  -6.241  32.887  1.00  0.00    -0.259 OA
HETATM    4  C1  UNK     1      31.096  -5.762  35.721  1.00  0.00     0.104 C 
HETATM    5  C2  UNK     1      32.254  -6.243  34.866  1.00  0.00     0.066 A 
HETATM    6  C3  UNK     1      31.562  -5.314  37.097  1.00  0.00     0.081 C 
HETATM    7  C4  UNK     1      33.468  -6.435  35.405  1.00  0.00     0.104 A 
HETATM    8  C6  UNK     1      34.581  -6.928  34.599  1.00  0.00     0.033 A 
HETATM    9  C7  UNK     1      32.814  -5.541  37.549  1.00  0.00     0.155 C 
HETATM   10  C8  UNK     1      32.020  -6.465  33.415  1.00  0.00     0.298 A 
HETATM   11  C9  UNK     1      34.359  -7.176  33.248  1.00  0.00     0.092 A 
HETATM   12  C13 UNK     1      35.862  -7.169  35.113  1.00  0.00     0.017 A 
HETATM   13  C14 UNK     1      35.364  -7.651  32.405  1.00  0.00     0.038 A 
HETATM   14  C17 UNK     1      36.881  -7.645  34.280  1.00  0.00     0.001 A 
HETATM   15  C19 UNK     1      36.632  -7.886  32.929  1.00  0.00     0.003 A 
ENDROOT
BRANCH   4  16
HETATM   16  C5  UNK     1      30.059  -6.838  35.851  1.00  0.00    -0.044 A 
HETATM   17  C10 UNK     1      28.748  -6.582  35.463  1.00  0.00     0.009 A 
HETATM   18  C15 UNK     1      27.785  -7.584  35.585  1.00  0.00     0.019 A 
HETATM   19  C18 UNK     1      28.138  -8.833  36.093  1.00  0.00     0.011 A 
HETATM   20 Br1  UNK     1      26.833 -10.190  36.259  1.00  0.00    -0.051 Br
HETATM   21  C16 UNK     1      29.455  -9.082  36.480  1.00  0.00     0.019 A 
HETATM   22  C11 UNK     1      30.418  -8.081  36.358  1.00  0.00     0.009 A 
ENDBRANCH   4  16
BRANCH   6  23
HETATM   23  C12 UNK     1      30.579  -4.583  37.915  1.00  0.00     0.294 C 
HETATM   24  O5  UNK     1      30.259  -3.429  37.701  1.00  0.00    -0.259 OA
BRANCH  23  25
HETATM   25  O3  UNK     1      30.138  -5.412  38.891  1.00  0.00    -0.318 OA
BRANCH  25  26
HETATM   26  C20 UNK     1      28.715  -5.469  39.038  1.00  0.00     0.174 C 
HETATM   27  C21 UNK     1      28.306  -6.900  39.316  1.00  0.00     0.034 C 
ENDBRANCH  25  26
ENDBRANCH  23  25
ENDBRANCH   6  23
BRANCH   9  28
HETATM   28  N1  UNK     1      33.312  -5.190  38.771  1.00  0.00    -0.379 N 
HETATM   29  H8  UNK     1      32.707  -4.795  39.479  1.00  0.00     0.158 HD
HETATM   30  H9  UNK     1      34.295  -5.334  38.960  1.00  0.00     0.158 HD
ENDBRANCH   9  28
TORSDOF 5
ENDMDL
MODEL 2
REMARK VINA RESULT:      -7.2      3.196      5.379
REMARK  5 active torsions:
REMARK  status: ('A' for Active; 'I' for Inactive)
REMARK    1  A    between atoms: C12_19  and  O3_4 
REMARK    2  A    between atoms: C20_27  and  O3_4 
REMARK    3  A    between atoms: C7_14  and  N1_7 
REMARK    4  A    between atoms: C1_8  and  C5_12 
REMARK    5  A    between atoms: C12_19  and  C3_10 
ROOT
HETATM    1  O1  UNK     1      31.998  -8.620  32.865  1.00  0.00    -0.292 OA
HETATM    2  O2  UNK     1      29.324  -5.798  31.316  1.00  0.00    -0.274 OA
HETATM    3  O4  UNK     1      30.380  -4.150  32.486  1.00  0.00    -0.259 OA
HETATM    4  C1  UNK     1      32.256  -5.910  33.780  1.00  0.00     0.104 C 
HETATM    5  C2  UNK     1      31.210  -6.359  32.776  1.00  0.00     0.066 A 
HETATM    6  C3  UNK     1      33.280  -7.000  34.049  1.00  0.00     0.081 C 
HETATM    7  C4  UNK     1      31.135  -7.645  32.397  1.00  0.00     0.104 A 
HETATM    8  C6  UNK     1      30.113  -8.095  31.455  1.00  0.00     0.033 A 
HETATM    9  C7  UNK     1      33.123  -8.267  33.613  1.00  0.00     0.155 C 
HETATM   10  C8  UNK     1      30.294  -5.339  32.200  1.00  0.00     0.298 A 
HETATM   11  C9  UNK     1      29.227  -7.152  30.942  1.00  0.00     0.092 A 
HETATM   12  C13 UNK     1      29.973  -9.426  31.042  1.00  0.00     0.017 A 
HETATM   13  C14 UNK     1      28.219  -7.494  30.042  1.00  0.00     0.038 A 
HETATM   14  C17 UNK     1      28.966  -9.785  30.139  1.00  0.00     0.001 A 
HETATM   15  C19 UNK     1      28.091  -8.821  29.640  1.00  0.00     0.003 A 
ENDROOT
BRANCH   4  16
HETATM   16  C5  UNK     1      31.601  -5.485  35.062  1.00  0.00    -0.044 A 
HETATM   17  C10 UNK     1      30.569  -6.250  35.594  1.00  0.00     0.009 A 
HETATM   18  C15 UNK     1      29.961  -5.854  36.786  1.00  0.00     0.019 A 
HETATM   19  C18 UNK     1      30.389  -4.697  37.436  1.00  0.00     0.011 A 
HETATM   20 Br1  UNK     1      29.565  -4.160  39.050  1.00  0.00    -0.051 Br
HETATM   21  C16 UNK     1      31.425  -3.935  36.895  1.00  0.00     0.019 A 
HETATM   22  C11 UNK     1      32.033  -4.331  35.704  1.00  0.00     0.009 A 
ENDBRANCH   4  16
BRANCH   6  23
HETATM   23  C12 UNK     1      34.485  -6.596  34.795  1.00  0.00     0.294 C 
HETATM   24  O5  UNK     1      35.214  -5.688  34.443  1.00  0.00    -0.259 OA
BRANCH  23  25
HETATM   25  O3  UNK     1      34.601  -7.395  35.882  1.00  0.00    -0.318 OA
BRANCH  25  26
HETATM   26  C20 UNK     1      34.379  -6.744  37.138  1.00  0.00     0.174 C 
HETATM   27  C21 UNK     1      33.217  -7.414  37.841  1.00  0.00     0.034 C 
ENDBRANCH  25  26
ENDBRANCH  23  25
ENDBRANCH   6  23
BRANCH   9  28
HETATM   28  N1  UNK     1      33.981  -9.310  33.821  1.00  0.00    -0.379 N 
HETATM   29  H8  UNK     1      34.725  -9.235  34.503  1.00  0.00     0.158 HD
HETATM   30  H9  UNK     1      33.860 -10.159  33.285  1.00  0.00     0.158 HD
ENDBRANCH   9  28
TORSDOF 5
ENDMDL
MODEL 3
REMARK VINA RESULT:      -7.2      2.588      6.021
REMARK  5 active torsions:
REMARK  status: ('A' for Active; 'I' for Inactive)
REMARK    1  A    between atoms: C12_19  and  O3_4 
REMARK    2  A    between atoms: C20_27  and  O3_4 
REMARK    3  A    between atoms: C7_14  and  N1_7 
REMARK    4  A    between atoms: C1_8  and  C5_12 
REMARK    5  A    between atoms: C12_19  and  C3_10 
ROOT
HETATM    1  O1  UNK     1      29.931  -5.650  37.461  1.00  0.00    -0.292 OA
HETATM    2  O2  UNK     1      30.370  -9.810  37.571  1.00  0.00    -0.274 OA
HETATM    3  O4  UNK     1      32.127  -9.667  36.124  1.00  0.00    -0.259 OA
HETATM    4  C1  UNK     1      31.950  -6.813  35.782  1.00  0.00     0.104 C 
HETATM    5  C2  UNK     1      31.048  -7.625  36.694  1.00  0.00     0.066 A 
HETATM    6  C3  UNK     1      31.818  -5.322  36.045  1.00  0.00     0.081 C 
HETATM    7  C4  UNK     1      30.115  -7.021  37.446  1.00  0.00     0.104 A 
HETATM    8  C6  UNK     1      29.221  -7.795  38.303  1.00  0.00     0.033 A 
HETATM    9  C7  UNK     1      30.850  -4.807  36.832  1.00  0.00     0.155 C 
HETATM   10  C8  UNK     1      31.244  -9.098  36.757  1.00  0.00     0.298 A 
HETATM   11  C9  UNK     1      29.372  -9.178  38.337  1.00  0.00     0.092 A 
HETATM   12  C13 UNK     1      28.216  -7.221  39.092  1.00  0.00     0.017 A 
HETATM   13  C14 UNK     1      28.560  -9.994  39.124  1.00  0.00     0.038 A 
HETATM   14  C17 UNK     1      27.393  -8.027  39.886  1.00  0.00     0.001 A 
HETATM   15  C19 UNK     1      27.565  -9.410  39.903  1.00  0.00     0.003 A 
ENDROOT
BRANCH   4  16
HETATM   16  C5  UNK     1      31.647  -7.115  34.343  1.00  0.00    -0.044 A 
HETATM   17  C10 UNK     1      32.664  -7.556  33.504  1.00  0.00     0.009 A 
HETATM   18  C15 UNK     1      32.381  -7.835  32.167  1.00  0.00     0.019 A 
HETATM   19  C18 UNK     1      31.086  -7.671  31.678  1.00  0.00     0.011 A 
HETATM   20 Br1  UNK     1      30.702  -8.048  29.866  1.00  0.00    -0.051 Br
HETATM   21  C16 UNK     1      30.071  -7.227  32.527  1.00  0.00     0.019 A 
HETATM   22  C11 UNK     1      30.354  -6.948  33.864  1.00  0.00     0.009 A 
ENDBRANCH   4  16
BRANCH   6  23
HETATM   23  C12 UNK     1      32.828  -4.454  35.415  1.00  0.00     0.294 C 
HETATM   24  O5  UNK     1      32.564  -3.649  34.541  1.00  0.00    -0.259 OA
BRANCH  23  25
HETATM   25  O3  UNK     1      34.031  -4.724  35.975  1.00  0.00    -0.318 OA
BRANCH  25  26
HETATM   26  C20 UNK     1      35.058  -5.100  35.052  1.00  0.00     0.174 C 
HETATM   27  C21 UNK     1      35.660  -6.417  35.495  1.00  0.00     0.034 C 
ENDBRANCH  25  26
ENDBRANCH  23  25
ENDBRANCH   6  23
BRANCH   9  28
HETATM   28  N1  UNK     1      30.647  -3.485  37.110  1.00  0.00    -0.379 N 
HETATM   29  H8  UNK     1      31.396  -2.814  36.994  1.00  0.00     0.158 HD
HETATM   30  H9  UNK     1      29.736  -3.184  37.430  1.00  0.00     0.158 HD
ENDBRANCH   9  28
TORSDOF 5
ENDMDL
MODEL 4
REMARK VINA RESULT:      -7.1      3.238      7.028
REMARK  5 active torsions:
REMARK  status: ('A' for Active; 'I' for Inactive)
REMARK    1  A    between atoms: C12_19  and  O3_4 
REMARK    2  A    between atoms: C20_27  and  O3_4 
REMARK    3  A    between atoms: C7_14  and  N1_7 
REMARK    4  A    between atoms: C1_8  and  C5_12 
REMARK    5  A    between atoms: C12_19  and  C3_10 
ROOT
HETATM    1  O1  UNK     1      28.454  -8.050  34.587  1.00  0.00    -0.292 OA
HETATM    2  O2  UNK     1      29.338  -6.200  38.235  1.00  0.00    -0.274 OA
HETATM    3  O4  UNK     1      30.683  -4.708  37.156  1.00  0.00    -0.259 OA
HETATM    4  C1  UNK     1      30.334  -5.879  34.549  1.00  0.00     0.104 C 
HETATM    5  C2  UNK     1      29.656  -6.379  35.812  1.00  0.00     0.066 A 
HETATM    6  C3  UNK     1      29.723  -6.497  33.302  1.00  0.00     0.081 C 
HETATM    7  C4  UNK     1      28.794  -7.407  35.764  1.00  0.00     0.104 A 
HETATM    8  C6  UNK     1      28.161  -7.918  36.977  1.00  0.00     0.033 A 
HETATM    9  C7  UNK     1      28.849  -7.524  33.355  1.00  0.00     0.155 C 
HETATM   10  C8  UNK     1      29.945  -5.686  37.095  1.00  0.00     0.298 A 
HETATM   11  C9  UNK     1      28.457  -7.298  38.187  1.00  0.00     0.092 A 
HETATM   12  C13 UNK     1      27.272  -9.000  36.989  1.00  0.00     0.017 A 
HETATM   13  C14 UNK     1      27.901  -7.722  39.394  1.00  0.00     0.038 A 
HETATM   14  C17 UNK     1      26.706  -9.437  38.192  1.00  0.00     0.001 A 
HETATM   15  C19 UNK     1      27.019  -8.799  39.391  1.00  0.00     0.003 A 
ENDROOT
BRANCH   4  16
HETATM   16  C5  UNK     1      31.807  -6.161  34.599  1.00  0.00    -0.044 A 
HETATM   17  C10 UNK     1      32.713  -5.114  34.475  1.00  0.00     0.009 A 
HETATM   18  C15 UNK     1      34.082  -5.378  34.520  1.00  0.00     0.019 A 
HETATM   19  C18 UNK     1      34.535  -6.686  34.689  1.00  0.00     0.011 A 
HETATM   20 Br1  UNK     1      36.390  -7.043  34.751  1.00  0.00    -0.051 Br
HETATM   21  C16 UNK     1      33.619  -7.731  34.813  1.00  0.00     0.019 A 
HETATM   22  C11 UNK     1      32.250  -7.467  34.768  1.00  0.00     0.009 A 
ENDBRANCH   4  16
BRANCH   6  23
HETATM   23  C12 UNK     1      30.112  -5.895  32.015  1.00  0.00     0.294 C 
HETATM   24  O5  UNK     1      30.850  -6.442  31.218  1.00  0.00    -0.259 OA
BRANCH  23  25
HETATM   25  O3  UNK     1      29.514  -4.684  31.914  1.00  0.00    -0.318 OA
BRANCH  25  26
HETATM   26  C20 UNK     1      29.899  -3.913  30.771  1.00  0.00     0.174 C 
HETATM   27  C21 UNK     1      30.105  -2.474  31.194  1.00  0.00     0.034 C 
ENDBRANCH  25  26
ENDBRANCH  23  25
ENDBRANCH   6  23
BRANCH   9  28
HETATM   28  N1  UNK     1      28.265  -8.149  32.289  1.00  0.00    -0.379 N 
HETATM   29  H8  UNK     1      28.471  -7.853  31.344  1.00  0.00     0.158 HD
HETATM   30  H9  UNK     1      27.626  -8.915  32.459  1.00  0.00     0.158 HD
ENDBRANCH   9  28
TORSDOF 5
ENDMDL
MODEL 5
REMARK VINA RESULT:      -7.1      3.343      5.029
REMARK  5 active torsions:
REMARK  status: ('A' for Active; 'I' for Inactive)
REMARK    1  A    between atoms: C12_19  and  O3_4 
REMARK    2  A    between atoms: C20_27  and  O3_4 
REMARK    3  A    between atoms: C7_14  and  N1_7 
REMARK    4  A    between atoms: C1_8  and  C5_12 
REMARK    5  A    between atoms: C12_19  and  C3_10 
ROOT
HETATM    1  O1  UNK     1      31.558  -8.476  32.489  1.00  0.00    -0.292 OA
HETATM    2  O2  UNK     1      27.596  -7.407  31.669  1.00  0.00    -0.274 OA
HETATM    3  O4  UNK     1      27.590  -6.024  33.482  1.00  0.00    -0.259 OA
HETATM    4  C1  UNK     1      30.260  -6.691  34.327  1.00  0.00     0.104 C 
HETATM    5  C2  UNK     1      29.586  -7.256  33.090  1.00  0.00     0.066 A 
HETATM    6  C3  UNK     1      31.751  -6.987  34.339  1.00  0.00     0.081 C 
HETATM    7  C4  UNK     1      30.244  -8.096  32.277  1.00  0.00     0.104 A 
HETATM    8  C6  UNK     1      29.595  -8.671  31.102  1.00  0.00     0.033 A 
HETATM    9  C7  UNK     1      32.328  -7.840  33.466  1.00  0.00     0.155 C 
HETATM   10  C8  UNK     1      28.193  -6.834  32.786  1.00  0.00     0.298 A 
HETATM   11  C9  UNK     1      28.278  -8.311  30.832  1.00  0.00     0.092 A 
HETATM   12  C13 UNK     1      30.226  -9.569  30.231  1.00  0.00     0.017 A 
HETATM   13  C14 UNK     1      27.581  -8.815  29.735  1.00  0.00     0.038 A 
HETATM   14  C17 UNK     1      29.539 -10.083  29.125  1.00  0.00     0.001 A 
HETATM   15  C19 UNK     1      28.219  -9.707  28.878  1.00  0.00     0.003 A 
ENDROOT
BRANCH   4  16
HETATM   16  C5  UNK     1      29.614  -7.232  35.569  1.00  0.00    -0.044 A 
HETATM   17  C10 UNK     1      29.466  -8.605  35.725  1.00  0.00     0.009 A 
HETATM   18  C15 UNK     1      28.865  -9.106  36.880  1.00  0.00     0.019 A 
HETATM   19  C18 UNK     1      28.416  -8.232  37.869  1.00  0.00     0.011 A 
HETATM   20 Br1  UNK     1      27.602  -8.911  39.434  1.00  0.00    -0.051 Br
HETATM   21  C16 UNK     1      28.569  -6.855  37.704  1.00  0.00     0.019 A 
HETATM   22  C11 UNK     1      29.170  -6.354  36.550  1.00  0.00     0.009 A 
ENDBRANCH   4  16
BRANCH   6  23
HETATM   23  C12 UNK     1      32.554  -6.268  35.343  1.00  0.00     0.294 C 
HETATM   24  O5  UNK     1      32.727  -5.064  35.320  1.00  0.00    -0.259 OA
BRANCH  23  25
HETATM   25  O3  UNK     1      33.026  -7.169  36.236  1.00  0.00    -0.318 OA
BRANCH  25  26
HETATM   26  C20 UNK     1      32.799  -6.836  37.610  1.00  0.00     0.174 C 
HETATM   27  C21 UNK     1      32.175  -8.025  38.309  1.00  0.00     0.034 C 
ENDBRANCH  25  26
ENDBRANCH  23  25
ENDBRANCH   6  23
BRANCH   9  28
HETATM   28  N1  UNK     1      33.651  -8.177  33.414  1.00  0.00    -0.379 N 
HETATM   29  H8  UNK     1      33.941  -9.139  33.529  1.00  0.00     0.158 HD
HETATM   30  H9  UNK     1      34.336  -7.450  33.254  1.00  0.00     0.158 HD
ENDBRANCH   9  28
TORSDOF 5
ENDMDL
MODEL 6
REMARK VINA RESULT:      -7.1      2.565      6.267
REMARK  5 active torsions:
REMARK  status: ('A' for Active; 'I' for Inactive)
REMARK    1  A    between atoms: C12_19  and  O3_4 
REMARK    2  A    between atoms: C20_27  and  O3_4 
REMARK    3  A    between atoms: C7_14  and  N1_7 
REMARK    4  A    between atoms: C1_8  and  C5_12 
REMARK    5  A    between atoms: C12_19  and  C3_10 
ROOT
HETATM    1  O1  UNK     1      32.551  -4.955  36.159  1.00  0.00    -0.292 OA
HETATM    2  O2  UNK     1      30.538  -8.190  37.890  1.00  0.00    -0.274 OA
HETATM    3  O4  UNK     1      32.043  -9.628  36.959  1.00  0.00    -0.259 OA
HETATM    4  C1  UNK     1      33.522  -7.591  35.563  1.00  0.00     0.104 C 
HETATM    5  C2  UNK     1      32.330  -7.320  36.463  1.00  0.00     0.066 A 
HETATM    6  C3  UNK     1      34.269  -6.311  35.221  1.00  0.00     0.081 C 
HETATM    7  C4  UNK     1      31.919  -6.064  36.693  1.00  0.00     0.104 A 
HETATM    8  C6  UNK     1      30.754  -5.794  37.532  1.00  0.00     0.033 A 
HETATM    9  C7  UNK     1      33.778  -5.087  35.506  1.00  0.00     0.155 C 
HETATM   10  C8  UNK     1      31.651  -8.476  37.107  1.00  0.00     0.298 A 
HETATM   11  C9  UNK     1      30.089  -6.873  38.106  1.00  0.00     0.092 A 
HETATM   12  C13 UNK     1      30.267  -4.506  37.788  1.00  0.00     0.017 A 
HETATM   13  C14 UNK     1      28.967  -6.707  38.917  1.00  0.00     0.038 A 
HETATM   14  C17 UNK     1      29.141  -4.323  38.599  1.00  0.00     0.001 A 
HETATM   15  C19 UNK     1      28.493  -5.422  39.163  1.00  0.00     0.003 A 
ENDROOT
BRANCH   4  16
HETATM   16  C5  UNK     1      33.083  -8.286  34.308  1.00  0.00    -0.044 A 
HETATM   17  C10 UNK     1      32.109  -7.705  33.504  1.00  0.00     0.009 A 
HETATM   18  C15 UNK     1      31.701  -8.353  32.338  1.00  0.00     0.019 A 
HETATM   19  C18 UNK     1      32.270  -9.576  31.984  1.00  0.00     0.011 A 
HETATM   20 Br1  UNK     1      31.717 -10.454  30.404  1.00  0.00    -0.051 Br
HETATM   21  C16 UNK     1      33.247 -10.152  32.796  1.00  0.00     0.019 A 
HETATM   22  C11 UNK     1      33.655  -9.504  33.962  1.00  0.00     0.009 A 
ENDBRANCH   4  16
BRANCH   6  23
HETATM   23  C12 UNK     1      35.585  -6.473  34.580  1.00  0.00     0.294 C 
HETATM   24  O5  UNK     1      36.565  -6.892  35.165  1.00  0.00    -0.259 OA
BRANCH  23  25
HETATM   25  O3  UNK     1      35.480  -6.082  33.287  1.00  0.00    -0.318 OA
BRANCH  25  26
HETATM   26  C20 UNK     1      36.020  -7.002  32.331  1.00  0.00     0.174 C 
HETATM   27  C21 UNK     1      35.049  -7.139  31.178  1.00  0.00     0.034 C 
ENDBRANCH  25  26
ENDBRANCH  23  25
ENDBRANCH   6  23
BRANCH   9  28
HETATM   28  N1  UNK     1      34.370  -3.889  35.223  1.00  0.00    -0.379 N 
HETATM   29  H8  UNK     1      33.877  -3.185  34.689  1.00  0.00     0.158 HD
HETATM   30  H9  UNK     1      35.308  -3.713  35.558  1.00  0.00     0.158 HD
ENDBRANCH   9  28
TORSDOF 5
ENDMDL
MODEL 7
REMARK VINA RESULT:      -7.0      3.211      7.115
REMARK  5 active torsions:
REMARK  status: ('A' for Active; 'I' for Inactive)
REMARK    1  A    between atoms: C12_19  and  O3_4 
REMARK    2  A    between atoms: C20_27  and  O3_4 
REMARK    3  A    between atoms: C7_14  and  N1_7 
REMARK    4  A    between atoms: C1_8  and  C5_12 
REMARK    5  A    between atoms: C12_19  and  C3_10 
ROOT
HETATM    1  O1  UNK     1      28.372  -8.022  34.568  1.00  0.00    -0.292 OA
HETATM    2  O2  UNK     1      29.230  -6.309  38.289  1.00  0.00    -0.274 OA
HETATM    3  O4  UNK     1      30.565  -4.764  37.273  1.00  0.00    -0.259 OA
HETATM    4  C1  UNK     1      30.231  -5.835  34.621  1.00  0.00     0.104 C 
HETATM    5  C2  UNK     1      29.556  -6.390  35.861  1.00  0.00     0.066 A 
HETATM    6  C3  UNK     1      29.629  -6.409  33.348  1.00  0.00     0.081 C 
HETATM    7  C4  UNK     1      28.703  -7.423  35.771  1.00  0.00     0.104 A 
HETATM    8  C6  UNK     1      28.072  -7.986  36.961  1.00  0.00     0.033 A 
HETATM    9  C7  UNK     1      28.764  -7.445  33.359  1.00  0.00     0.155 C 
HETATM   10  C8  UNK     1      29.835  -5.745  37.171  1.00  0.00     0.298 A 
HETATM   11  C9  UNK     1      28.360  -7.411  38.195  1.00  0.00     0.092 A 
HETATM   12  C13 UNK     1      27.193  -9.076  36.929  1.00  0.00     0.017 A 
HETATM   13  C14 UNK     1      27.804  -7.887  39.383  1.00  0.00     0.038 A 
HETATM   14  C17 UNK     1      26.628  -9.565  38.112  1.00  0.00     0.001 A 
HETATM   15  C19 UNK     1      26.933  -8.972  39.336  1.00  0.00     0.003 A 
ENDROOT
BRANCH   4  16
HETATM   16  C5  UNK     1      31.707  -6.105  34.663  1.00  0.00    -0.044 A 
HETATM   17  C10 UNK     1      32.604  -5.048  34.561  1.00  0.00     0.009 A 
HETATM   18  C15 UNK     1      33.975  -5.301  34.599  1.00  0.00     0.019 A 
HETATM   19  C18 UNK     1      34.440  -6.609  34.740  1.00  0.00     0.011 A 
HETATM   20 Br1  UNK     1      36.298  -6.952  34.792  1.00  0.00    -0.051 Br
HETATM   21  C16 UNK     1      33.533  -7.664  34.842  1.00  0.00     0.019 A 
HETATM   22  C11 UNK     1      32.162  -7.411  34.803  1.00  0.00     0.009 A 
ENDBRANCH   4  16
BRANCH   6  23
HETATM   23  C12 UNK     1      30.015  -5.753  32.087  1.00  0.00     0.294 C 
HETATM   24  O5  UNK     1      29.738  -4.598  31.824  1.00  0.00    -0.259 OA
BRANCH  23  25
HETATM   25  O3  UNK     1      30.698  -6.647  31.334  1.00  0.00    -0.318 OA
BRANCH  25  26
HETATM   26  C20 UNK     1      30.734  -6.356  29.932  1.00  0.00     0.174 C 
HETATM   27  C21 UNK     1      30.049  -7.476  29.179  1.00  0.00     0.034 C 
ENDBRANCH  25  26
ENDBRANCH  23  25
ENDBRANCH   6  23
BRANCH   9  28
HETATM   28  N1  UNK     1      28.188  -8.033  32.268  1.00  0.00    -0.379 N 
HETATM   29  H8  UNK     1      27.870  -7.471  31.490  1.00  0.00     0.158 HD
HETATM   30  H9  UNK     1      28.088  -9.039  32.248  1.00  0.00     0.158 HD
ENDBRANCH   9  28
TORSDOF 5
ENDMDL
MODEL 8
REMARK VINA RESULT:      -7.0      3.444      6.009
REMARK  5 active torsions:
REMARK  status: ('A' for Active; 'I' for Inactive)
REMARK    1  A    between atoms: C12_19  and  O3_4 
REMARK    2  A    between atoms: C20_27  and  O3_4 
REMARK    3  A    between atoms: C7_14  and  N1_7 
REMARK    4  A    between atoms: C1_8  and  C5_12 
REMARK    5  A    between atoms: C12_19  and  C3_10 
ROOT
HETATM    1  O1  UNK     1      30.489  -5.566  33.796  1.00  0.00    -0.292 OA
HETATM    2  O2  UNK     1      33.955  -7.259  35.420  1.00  0.00    -0.274 OA
HETATM    3  O4  UNK     1      34.433  -8.218  33.407  1.00  0.00    -0.259 OA
HETATM    4  C1  UNK     1      32.050  -7.273  32.095  1.00  0.00     0.104 C 
HETATM    5  C2  UNK     1      32.418  -6.962  33.534  1.00  0.00     0.066 A 
HETATM    6  C3  UNK     1      30.911  -6.396  31.604  1.00  0.00     0.081 C 
HETATM    7  C4  UNK     1      31.639  -6.164  34.281  1.00  0.00     0.104 A 
HETATM    8  C6  UNK     1      31.966  -5.882  35.676  1.00  0.00     0.033 A 
HETATM    9  C7  UNK     1      30.189  -5.612  32.433  1.00  0.00     0.155 C 
HETATM   10  C8  UNK     1      33.675  -7.534  34.085  1.00  0.00     0.298 A 
HETATM   11  C9  UNK     1      33.120  -6.446  36.210  1.00  0.00     0.092 A 
HETATM   12  C13 UNK     1      31.179  -5.076  36.508  1.00  0.00     0.017 A 
HETATM   13  C14 UNK     1      33.507  -6.234  37.533  1.00  0.00     0.038 A 
HETATM   14  C17 UNK     1      31.553  -4.853  37.838  1.00  0.00     0.001 A 
HETATM   15  C19 UNK     1      32.715  -5.431  38.350  1.00  0.00     0.003 A 
ENDROOT
BRANCH   4  16
HETATM   16  C5  UNK     1      31.688  -8.722  31.950  1.00  0.00    -0.044 A 
HETATM   17  C10 UNK     1      30.704  -9.271  32.765  1.00  0.00     0.009 A 
HETATM   18  C15 UNK     1      30.369 -10.618  32.630  1.00  0.00     0.019 A 
HETATM   19  C18 UNK     1      31.018 -11.407  31.681  1.00  0.00     0.011 A 
HETATM   20 Br1  UNK     1      30.565 -13.233  31.498  1.00  0.00    -0.051 Br
HETATM   21  C16 UNK     1      32.005 -10.849  30.867  1.00  0.00     0.019 A 
HETATM   22  C11 UNK     1      32.340  -9.502  31.003  1.00  0.00     0.009 A 
ENDBRANCH   4  16
BRANCH   6  23
HETATM   23  C12 UNK     1      30.644  -6.418  30.155  1.00  0.00     0.294 C 
HETATM   24  O5  UNK     1      31.483  -6.141  29.318  1.00  0.00    -0.259 OA
BRANCH  23  25
HETATM   25  O3  UNK     1      29.356  -6.787  29.965  1.00  0.00    -0.318 OA
BRANCH  25  26
HETATM   26  C20 UNK     1      29.176  -8.099  29.418  1.00  0.00     0.174 C 
HETATM   27  C21 UNK     1      28.059  -8.795  30.165  1.00  0.00     0.034 C 
ENDBRANCH  25  26
ENDBRANCH  23  25
ENDBRANCH   6  23
BRANCH   9  28
HETATM   28  N1  UNK     1      29.143  -4.806  32.083  1.00  0.00    -0.379 N 
HETATM   29  H8  UNK     1      28.851  -4.051  32.689  1.00  0.00     0.158 HD
HETATM   30  H9  UNK     1      28.667  -4.973  31.206  1.00  0.00     0.158 HD
ENDBRANCH   9  28
TORSDOF 5
ENDMDL
MODEL 9
REMARK VINA RESULT:      -7.0      2.921      4.781
REMARK  5 active torsions:
REMARK  status: ('A' for Active; 'I' for Inactive)
REMARK    1  A    between atoms: C12_19  and  O3_4 
REMARK    2  A    between atoms: C20_27  and  O3_4 
REMARK    3  A    between atoms: C7_14  and  N1_7 
REMARK    4  A    between atoms: C1_8  and  C5_12 
REMARK    5  A    between atoms: C12_19  and  C3_10 
ROOT
HETATM    1  O1  UNK     1      31.035  -5.486  33.648  1.00  0.00    -0.292 OA
HETATM    2  O2  UNK     1      33.002  -8.381  35.942  1.00  0.00    -0.274 OA
HETATM    3  O4  UNK     1      31.273  -9.829  35.601  1.00  0.00    -0.259 OA
HETATM    4  C1  UNK     1      29.669  -7.972  34.096  1.00  0.00     0.104 C 
HETATM    5  C2  UNK     1      31.051  -7.664  34.645  1.00  0.00     0.066 A 
HETATM    6  C3  UNK     1      29.213  -6.918  33.100  1.00  0.00     0.081 C 
HETATM    7  C4  UNK     1      31.631  -6.477  34.408  1.00  0.00     0.104 A 
HETATM    8  C6  UNK     1      32.946  -6.158  34.957  1.00  0.00     0.033 A 
HETATM    9  C7  UNK     1      29.873  -5.754  32.921  1.00  0.00     0.155 C 
HETATM   10  C8  UNK     1      31.757  -8.717  35.421  1.00  0.00     0.298 A 
HETATM   11  C9  UNK     1      33.596  -7.125  35.718  1.00  0.00     0.092 A 
HETATM   12  C13 UNK     1      33.588  -4.929  34.762  1.00  0.00     0.017 A 
HETATM   13  C14 UNK     1      34.852  -6.904  36.283  1.00  0.00     0.038 A 
HETATM   14  C17 UNK     1      34.849  -4.692  35.323  1.00  0.00     0.001 A 
HETATM   15  C19 UNK     1      35.479  -5.678  36.082  1.00  0.00     0.003 A 
ENDROOT
BRANCH   4  16
HETATM   16  C5  UNK     1      28.677  -8.091  35.215  1.00  0.00    -0.044 A 
HETATM   17  C10 UNK     1      27.979  -9.280  35.393  1.00  0.00     0.009 A 
HETATM   18  C15 UNK     1      27.056  -9.390  36.433  1.00  0.00     0.019 A 
HETATM   19  C18 UNK     1      26.837  -8.310  37.288  1.00  0.00     0.011 A 
HETATM   20 Br1  UNK     1      25.586  -8.458  38.697  1.00  0.00    -0.051 Br
HETATM   21  C16 UNK     1      27.541  -7.120  37.103  1.00  0.00     0.019 A 
HETATM   22  C11 UNK     1      28.464  -7.010  36.063  1.00  0.00     0.009 A 
ENDBRANCH   4  16
BRANCH   6  23
HETATM   23  C12 UNK     1      28.015  -7.242  32.307  1.00  0.00     0.294 C 
HETATM   24  O5  UNK     1      27.088  -6.470  32.152  1.00  0.00    -0.259 OA
BRANCH  23  25
HETATM   25  O3  UNK     1      28.155  -8.497  31.818  1.00  0.00    -0.318 OA
BRANCH  25  26
HETATM   26  C20 UNK     1      27.839  -8.645  30.429  1.00  0.00     0.174 C 
HETATM   27  C21 UNK     1      28.952  -8.036  29.604  1.00  0.00     0.034 C 
ENDBRANCH  25  26
ENDBRANCH  23  25
ENDBRANCH   6  23
BRANCH   9  28
HETATM   28  N1  UNK     1      29.528  -4.748  32.064  1.00  0.00    -0.379 N 
HETATM   29  H8  UNK     1      29.965  -3.839  32.137  1.00  0.00     0.158 HD
HETATM   30  H9  UNK     1      28.832  -4.927  31.352  1.00  0.00     0.158 HD
ENDBRANCH   9  28
TORSDOF 5
ENDMDL
MODEL 10
REMARK VINA RESULT:      -6.8      3.739      6.583
REMARK  5 active torsions:
REMARK  status: ('A' for Active; 'I' for Inactive)
REMARK    1  A    between atoms: C12_19  and  O3_4 
REMARK    2  A    between atoms: C20_27  and  O3_4 
REMARK    3  A    between atoms: C7_14  and  N1_7 
REMARK    4  A    between atoms: C1_8  and  C5_12 
REMARK    5  A    between atoms: C12_19  and  C3_10 
ROOT
HETATM    1  O1  UNK     1      30.654  -5.878  33.022  1.00  0.00    -0.292 OA
HETATM    2  O2  UNK     1      29.272  -9.653  31.860  1.00  0.00    -0.274 OA
HETATM    3  O4  UNK     1      30.862 -10.640  33.164  1.00  0.00    -0.259 OA
HETATM    4  C1  UNK     1      32.073  -8.170  34.012  1.00  0.00     0.104 C 
HETATM    5  C2  UNK     1      30.863  -8.263  33.101  1.00  0.00     0.066 A 
HETATM    6  C3  UNK     1      32.286  -6.753  34.520  1.00  0.00     0.081 C 
HETATM    7  C4  UNK     1      30.250  -7.152  32.663  1.00  0.00     0.104 A 
HETATM    8  C6  UNK     1      29.105  -7.229  31.760  1.00  0.00     0.033 A 
HETATM    9  C7  UNK     1      31.608  -5.695  34.025  1.00  0.00     0.155 C 
HETATM   10  C8  UNK     1      30.356  -9.610  32.731  1.00  0.00     0.298 A 
HETATM   11  C9  UNK     1      28.649  -8.487  31.378  1.00  0.00     0.092 A 
HETATM   12  C13 UNK     1      28.442  -6.104  31.254  1.00  0.00     0.017 A 
HETATM   13  C14 UNK     1      27.565  -8.653  30.517  1.00  0.00     0.038 A 
HETATM   14  C17 UNK     1      27.352  -6.254  30.389  1.00  0.00     0.001 A 
HETATM   15  C19 UNK     1      26.915  -7.526  30.021  1.00  0.00     0.003 A 
ENDROOT
BRANCH   4  16
HETATM   16  C5  UNK     1      33.302  -8.655  33.302  1.00  0.00    -0.044 A 
HETATM   17  C10 UNK     1      34.002  -9.747  33.804  1.00  0.00     0.009 A 
HETATM   18  C15 UNK     1      35.145 -10.197  33.144  1.00  0.00     0.019 A 
HETATM   19  C18 UNK     1      35.580  -9.553  31.986  1.00  0.00     0.011 A 
HETATM   20 Br1  UNK     1      37.129 -10.162  31.090  1.00  0.00    -0.051 Br
HETATM   21  C16 UNK     1      34.873  -8.459  31.488  1.00  0.00     0.019 A 
HETATM   22  C11 UNK     1      33.730  -8.009  32.149  1.00  0.00     0.009 A 
ENDBRANCH   4  16
BRANCH   6  23
HETATM   23  C12 UNK     1      33.259  -6.588  35.614  1.00  0.00     0.294 C 
HETATM   24  O5  UNK     1      33.130  -7.110  36.705  1.00  0.00    -0.259 OA
BRANCH  23  25
HETATM   25  O3  UNK     1      34.259  -5.786  35.177  1.00  0.00    -0.318 OA
BRANCH  25  26
HETATM   26  C20 UNK     1      35.543  -6.054  35.751  1.00  0.00     0.174 C 
HETATM   27  C21 UNK     1      36.316  -6.968  34.825  1.00  0.00     0.034 C 
ENDBRANCH  25  26
ENDBRANCH  23  25
ENDBRANCH   6  23
BRANCH   9  28
HETATM   28  N1  UNK     1      31.746  -4.391  34.408  1.00  0.00    -0.379 N 
HETATM   29  H8  UNK     1      31.185  -3.667  33.979  1.00  0.00     0.158 HD
HETATM   30  H9  UNK     1      32.414  -4.160  35.132  1.00  0.00     0.158 HD
ENDBRANCH   9  28
TORSDOF 5
ENDMDL
