MODEL 1
REMARK VINA RESULT:      -9.9      0.000      0.000
REMARK  6 active torsions:
REMARK  status: ('A' for Active; 'I' for Inactive)
REMARK    1  A    between atoms: C16_25  and  N1_7 
REMARK    2  A    between atoms: C4_13  and  N1_7 
REMARK       I    between atoms: C13_22  and  N2_8 
REMARK    3  A    between atoms: N2_8  and  N3_9 
REMARK    4  A    between atoms: C16_25  and  N3_9 
REMARK    5  A    between atoms: C10_19  and  C9_18 
REMARK    6  A    between atoms: C13_22  and  C9_18 
ROOT
HETATM    1  S1  UNK     1      18.339  -1.585  37.089  1.00  0.00    -0.039 SA
HETATM    2  C16 UNK     1      18.989  -2.870  36.228  1.00  0.00     0.191 C 
ENDROOT
BRANCH   2   3
HETATM    3  N1  UNK     1      19.906  -2.832  35.163  1.00  0.00    -0.332 N 
HETATM    4  H10 UNK     1      20.703  -3.449  35.297  1.00  0.00     0.168 HD
BRANCH   3   5
HETATM    5  C4  UNK     1      19.917  -2.183  33.929  1.00  0.00     0.037 A 
HETATM    6  C6  UNK     1      19.174  -1.021  33.743  1.00  0.00     0.067 A 
HETATM    7  C2  UNK     1      19.201  -0.386  32.501  1.00  0.00     0.092 A 
HETATM    8  C1  UNK     1      19.949  -0.876  31.430  1.00  0.00     0.004 A 
HETATM    9  O1  UNK     1      18.428   0.785  32.374  1.00  0.00    -0.275 OA
HETATM   10  C3  UNK     1      19.918  -0.143  30.156  1.00  0.00    -0.043 A 
HETATM   11  C5  UNK     1      20.690  -2.047  31.636  1.00  0.00     0.017 A 
HETATM   12  C11 UNK     1      20.712  -0.645  28.985  1.00  0.00     0.049 C 
HETATM   13  C8  UNK     1      19.174   0.968  30.065  1.00  0.00     0.090 A 
HETATM   14  C12 UNK     1      18.379   1.498  31.186  1.00  0.00     0.288 A 
HETATM   15  O2  UNK     1      17.712   2.518  31.065  1.00  0.00    -0.260 OA
HETATM   16  C7  UNK     1      20.674  -2.695  32.877  1.00  0.00     0.030 A 
ENDBRANCH   3   5
ENDBRANCH   2   3
BRANCH   2  17
HETATM   17  N3  UNK     1      18.613  -4.151  36.617  1.00  0.00    -0.274 N 
HETATM   18  H12 UNK     1      17.672  -4.497  36.466  1.00  0.00     0.189 HD
BRANCH  17  19
HETATM   19  N2  UNK     1      19.505  -5.017  37.204  1.00  0.00    -0.268 N 
HETATM   20  C13 UNK     1      20.238  -5.867  36.399  1.00  0.00     0.240 C 
HETATM   21  O3  UNK     1      20.169  -5.926  35.173  1.00  0.00    -0.272 OA
HETATM   22  H11 UNK     1      19.665  -4.916  38.200  1.00  0.00     0.190 HD
BRANCH  20  23
HETATM   23  C9  UNK     1      21.209  -6.724  37.184  1.00  0.00     0.148 C 
BRANCH  23  24
HETATM   24  C10 UNK     1      20.607  -8.064  37.514  1.00  0.00     0.011 A 
HETATM   25  C14 UNK     1      20.699  -9.130  36.629  1.00  0.00     0.043 A 
HETATM   26 Cl1  UNK     1      21.502  -8.982  35.108  1.00  0.00    -0.084 Cl
HETATM   27  C17 UNK     1      20.132 -10.359  36.968  1.00  0.00     0.024 A 
HETATM   28  C19 UNK     1      19.476 -10.510  38.190  1.00  0.00     0.005 A 
HETATM   29  C18 UNK     1      19.388  -9.434  39.072  1.00  0.00     0.043 A 
HETATM   30  C15 UNK     1      19.956  -8.206  38.733  1.00  0.00     0.124 A 
HETATM   31  F1  UNK     1      19.866  -7.178  39.590  1.00  0.00    -0.205 F 
ENDBRANCH  23  24
ENDBRANCH  20  23
ENDBRANCH  17  19
ENDBRANCH   2  17
TORSDOF 6
ENDMDL
MODEL 2
REMARK VINA RESULT:      -9.6      5.416      8.184
REMARK  6 active torsions:
REMARK  status: ('A' for Active; 'I' for Inactive)
REMARK    1  A    between atoms: C16_25  and  N1_7 
REMARK    2  A    between atoms: C4_13  and  N1_7 
REMARK       I    between atoms: C13_22  and  N2_8 
REMARK    3  A    between atoms: N2_8  and  N3_9 
REMARK    4  A    between atoms: C16_25  and  N3_9 
REMARK    5  A    between atoms: C10_19  and  C9_18 
REMARK    6  A    between atoms: C13_22  and  C9_18 
ROOT
HETATM    1  S1  UNK     1      17.912   1.959  28.681  1.00  0.00    -0.039 SA
HETATM    2  C16 UNK     1      18.825   2.809  29.804  1.00  0.00     0.191 C 
ENDROOT
BRANCH   2   3
HETATM    3  N1  UNK     1      19.070   4.192  29.861  1.00  0.00    -0.332 N 
HETATM    4  H10 UNK     1      19.290   4.600  28.956  1.00  0.00     0.168 HD
BRANCH   3   5
HETATM    5  C4  UNK     1      19.003   5.137  30.885  1.00  0.00     0.037 A 
HETATM    6  C6  UNK     1      17.774   5.477  31.443  1.00  0.00     0.067 A 
HETATM    7  C2  UNK     1      17.729   6.423  32.467  1.00  0.00     0.092 A 
HETATM    8  C1  UNK     1      18.877   7.047  32.956  1.00  0.00     0.004 A 
HETATM    9  O1  UNK     1      16.456   6.726  32.991  1.00  0.00    -0.275 OA
HETATM   10  C3  UNK     1      18.736   8.032  34.037  1.00  0.00    -0.043 A 
HETATM   11  C5  UNK     1      20.105   6.692  32.383  1.00  0.00     0.017 A 
HETATM   12  C11 UNK     1      19.953   8.720  34.585  1.00  0.00     0.049 C 
HETATM   13  C8  UNK     1      17.513   8.300  34.517  1.00  0.00     0.090 A 
HETATM   14  C12 UNK     1      16.292   7.651  34.010  1.00  0.00     0.288 A 
HETATM   15  O2  UNK     1      15.191   7.921  34.475  1.00  0.00    -0.260 OA
HETATM   16  C7  UNK     1      20.167   5.744  31.354  1.00  0.00     0.030 A 
ENDBRANCH   3   5
ENDBRANCH   2   3
BRANCH   2  17
HETATM   17  N3  UNK     1      19.400   2.080  30.838  1.00  0.00    -0.274 N 
HETATM   18  H12 UNK     1      20.255   2.384  31.291  1.00  0.00     0.189 HD
BRANCH  17  19
HETATM   19  N2  UNK     1      18.825   0.925  31.312  1.00  0.00    -0.268 N 
HETATM   20  C13 UNK     1      19.622  -0.187  31.507  1.00  0.00     0.240 C 
HETATM   21  O3  UNK     1      20.831  -0.245  31.291  1.00  0.00    -0.272 OA
HETATM   22  H11 UNK     1      17.855   0.973  31.605  1.00  0.00     0.190 HD
BRANCH  20  23
HETATM   23  C9  UNK     1      18.858  -1.363  32.077  1.00  0.00     0.148 C 
BRANCH  23  24
HETATM   24  C10 UNK     1      19.166  -1.555  33.537  1.00  0.00     0.011 A 
HETATM   25  C14 UNK     1      20.193  -2.395  33.951  1.00  0.00     0.043 A 
HETATM   26 Cl1  UNK     1      21.168  -3.261  32.820  1.00  0.00    -0.084 Cl
HETATM   27  C17 UNK     1      20.452  -2.548  35.313  1.00  0.00     0.024 A 
HETATM   28  C19 UNK     1      19.682  -1.861  36.251  1.00  0.00     0.005 A 
HETATM   29  C18 UNK     1      18.652  -1.021  35.827  1.00  0.00     0.043 A 
HETATM   30  C15 UNK     1      18.394  -0.868  34.466  1.00  0.00     0.124 A 
HETATM   31  F1  UNK     1      17.402  -0.056  34.069  1.00  0.00    -0.205 F 
ENDBRANCH  23  24
ENDBRANCH  20  23
ENDBRANCH  17  19
ENDBRANCH   2  17
TORSDOF 6
ENDMDL
MODEL 3
REMARK VINA RESULT:      -9.6      2.007      2.678
REMARK  6 active torsions:
REMARK  status: ('A' for Active; 'I' for Inactive)
REMARK    1  A    between atoms: C16_25  and  N1_7 
REMARK    2  A    between atoms: C4_13  and  N1_7 
REMARK       I    between atoms: C13_22  and  N2_8 
REMARK    3  A    between atoms: N2_8  and  N3_9 
REMARK    4  A    between atoms: C16_25  and  N3_9 
REMARK    5  A    between atoms: C10_19  and  C9_18 
REMARK    6  A    between atoms: C13_22  and  C9_18 
ROOT
HETATM    1  S1  UNK     1      17.375  -0.744  37.168  1.00  0.00    -0.039 SA
HETATM    2  C16 UNK     1      18.072  -2.006  36.310  1.00  0.00     0.191 C 
ENDROOT
BRANCH   2   3
HETATM    3  N1  UNK     1      18.842  -1.941  35.135  1.00  0.00    -0.332 N 
HETATM    4  H10 UNK     1      19.482  -2.725  35.031  1.00  0.00     0.168 HD
BRANCH   3   5
HETATM    5  C4  UNK     1      18.861  -1.070  34.046  1.00  0.00     0.037 A 
HETATM    6  C6  UNK     1      19.360  -1.496  32.819  1.00  0.00     0.067 A 
HETATM    7  C2  UNK     1      19.368  -0.609  31.743  1.00  0.00     0.092 A 
HETATM    8  C1  UNK     1      18.891   0.698  31.850  1.00  0.00     0.004 A 
HETATM    9  O1  UNK     1      19.886  -1.098  30.527  1.00  0.00    -0.275 OA
HETATM   10  C3  UNK     1      18.938   1.564  30.663  1.00  0.00    -0.043 A 
HETATM   11  C5  UNK     1      18.392   1.108  33.093  1.00  0.00     0.017 A 
HETATM   12  C11 UNK     1      18.432   2.975  30.747  1.00  0.00     0.049 C 
HETATM   13  C8  UNK     1      19.436   1.072  29.520  1.00  0.00     0.090 A 
HETATM   14  C12 UNK     1      19.943  -0.305  29.391  1.00  0.00     0.288 A 
HETATM   15  O2  UNK     1      20.391  -0.720  28.328  1.00  0.00    -0.260 OA
HETATM   16  C7  UNK     1      18.377   0.230  34.183  1.00  0.00     0.030 A 
ENDBRANCH   3   5
ENDBRANCH   2   3
BRANCH   2  17
HETATM   17  N3  UNK     1      17.909  -3.289  36.821  1.00  0.00    -0.274 N 
HETATM   18  H12 UNK     1      17.109  -3.534  37.394  1.00  0.00     0.189 HD
BRANCH  17  19
HETATM   19  N2  UNK     1      18.810  -4.291  36.554  1.00  0.00    -0.268 N 
HETATM   20  C13 UNK     1      18.370  -5.601  36.543  1.00  0.00     0.240 C 
HETATM   21  O3  UNK     1      17.215  -5.966  36.756  1.00  0.00    -0.272 OA
HETATM   22  H11 UNK     1      19.743  -4.015  36.266  1.00  0.00     0.190 HD
BRANCH  20  23
HETATM   23  C9  UNK     1      19.464  -6.584  36.187  1.00  0.00     0.148 C 
BRANCH  23  24
HETATM   24  C10 UNK     1      19.733  -7.533  37.325  1.00  0.00     0.011 A 
HETATM   25  C14 UNK     1      20.626  -7.204  38.338  1.00  0.00     0.043 A 
HETATM   26 Cl1  UNK     1      21.471  -5.699  38.350  1.00  0.00    -0.084 Cl
HETATM   27  C17 UNK     1      20.850  -8.106  39.378  1.00  0.00     0.024 A 
HETATM   28  C19 UNK     1      20.182  -9.330  39.396  1.00  0.00     0.005 A 
HETATM   29  C18 UNK     1      19.289  -9.652  38.374  1.00  0.00     0.043 A 
HETATM   30  C15 UNK     1      19.064  -8.750  37.335  1.00  0.00     0.124 A 
HETATM   31  F1  UNK     1      18.202  -9.069  36.358  1.00  0.00    -0.205 F 
ENDBRANCH  23  24
ENDBRANCH  20  23
ENDBRANCH  17  19
ENDBRANCH   2  17
TORSDOF 6
ENDMDL
MODEL 4
REMARK VINA RESULT:      -9.5      6.266     11.001
REMARK  6 active torsions:
REMARK  status: ('A' for Active; 'I' for Inactive)
REMARK    1  A    between atoms: C16_25  and  N1_7 
REMARK    2  A    between atoms: C4_13  and  N1_7 
REMARK       I    between atoms: C13_22  and  N2_8 
REMARK    3  A    between atoms: N2_8  and  N3_9 
REMARK    4  A    between atoms: C16_25  and  N3_9 
REMARK    5  A    between atoms: C10_19  and  C9_18 
REMARK    6  A    between atoms: C13_22  and  C9_18 
ROOT
HETATM    1  S1  UNK     1      17.900   1.642  28.748  1.00  0.00    -0.039 SA
HETATM    2  C16 UNK     1      18.818   1.184  30.075  1.00  0.00     0.191 C 
ENDROOT
BRANCH   2   3
HETATM    3  N1  UNK     1      18.965  -0.098  30.633  1.00  0.00    -0.332 N 
HETATM    4  H10 UNK     1      19.083  -0.829  29.935  1.00  0.00     0.168 HD
BRANCH   3   5
HETATM    5  C4  UNK     1      19.060  -0.571  31.942  1.00  0.00     0.037 A 
HETATM    6  C6  UNK     1      18.355   0.058  32.964  1.00  0.00     0.067 A 
HETATM    7  C2  UNK     1      18.462  -0.432  34.266  1.00  0.00     0.092 A 
HETATM    8  C1  UNK     1      19.255  -1.535  34.585  1.00  0.00     0.004 A 
HETATM    9  O1  UNK     1      17.726   0.246  35.258  1.00  0.00    -0.275 OA
HETATM   10  C3  UNK     1      19.309  -1.983  35.983  1.00  0.00    -0.043 A 
HETATM   11  C5  UNK     1      19.956  -2.155  33.542  1.00  0.00     0.017 A 
HETATM   12  C11 UNK     1      20.153  -3.167  36.358  1.00  0.00     0.049 C 
HETATM   13  C8  UNK     1      18.598  -1.319  36.905  1.00  0.00     0.090 A 
HETATM   14  C12 UNK     1      17.757  -0.153  36.585  1.00  0.00     0.288 A 
HETATM   15  O2  UNK     1      17.120   0.429  37.456  1.00  0.00    -0.260 OA
HETATM   16  C7  UNK     1      19.859  -1.675  32.230  1.00  0.00     0.030 A 
ENDBRANCH   3   5
ENDBRANCH   2   3
BRANCH   2  17
HETATM   17  N3  UNK     1      19.562   2.174  30.706  1.00  0.00    -0.274 N 
HETATM   18  H12 UNK     1      20.333   1.946  31.324  1.00  0.00     0.189 HD
BRANCH  17  19
HETATM   19  N2  UNK     1      19.305   3.509  30.503  1.00  0.00    -0.268 N 
HETATM   20  C13 UNK     1      18.472   4.170  31.386  1.00  0.00     0.240 C 
HETATM   21  O3  UNK     1      17.923   3.665  32.363  1.00  0.00    -0.272 OA
HETATM   22  H11 UNK     1      19.829   3.979  29.773  1.00  0.00     0.190 HD
BRANCH  20  23
HETATM   23  C9  UNK     1      18.324   5.641  31.061  1.00  0.00     0.148 C 
BRANCH  23  24
HETATM   24  C10 UNK     1      18.563   6.494  32.278  1.00  0.00     0.011 A 
HETATM   25  C14 UNK     1      17.504   7.045  32.989  1.00  0.00     0.043 A 
HETATM   26 Cl1  UNK     1      15.863   6.785  32.520  1.00  0.00    -0.084 Cl
HETATM   27  C17 UNK     1      17.762   7.828  34.113  1.00  0.00     0.024 A 
HETATM   28  C19 UNK     1      19.078   8.056  34.517  1.00  0.00     0.005 A 
HETATM   29  C18 UNK     1      20.135   7.500  33.798  1.00  0.00     0.043 A 
HETATM   30  C15 UNK     1      19.877   6.716  32.673  1.00  0.00     0.124 A 
HETATM   31  F1  UNK     1      20.901   6.185  31.989  1.00  0.00    -0.205 F 
ENDBRANCH  23  24
ENDBRANCH  20  23
ENDBRANCH  17  19
ENDBRANCH   2  17
TORSDOF 6
ENDMDL
MODEL 5
REMARK VINA RESULT:      -9.5      1.620      1.930
REMARK  6 active torsions:
REMARK  status: ('A' for Active; 'I' for Inactive)
REMARK    1  A    between atoms: C16_25  and  N1_7 
REMARK    2  A    between atoms: C4_13  and  N1_7 
REMARK       I    between atoms: C13_22  and  N2_8 
REMARK    3  A    between atoms: N2_8  and  N3_9 
REMARK    4  A    between atoms: C16_25  and  N3_9 
REMARK    5  A    between atoms: C10_19  and  C9_18 
REMARK    6  A    between atoms: C13_22  and  C9_18 
ROOT
HETATM    1  S1  UNK     1      21.061  -2.503  35.910  1.00  0.00    -0.039 SA
HETATM    2  C16 UNK     1      19.385  -2.556  35.935  1.00  0.00     0.191 C 
ENDROOT
BRANCH   2   3
HETATM    3  N1  UNK     1      18.477  -1.862  35.116  1.00  0.00    -0.332 N 
HETATM    4  H10 UNK     1      17.518  -1.902  35.455  1.00  0.00     0.168 HD
BRANCH   3   5
HETATM    5  C4  UNK     1      18.623  -1.067  33.980  1.00  0.00     0.037 A 
HETATM    6  C6  UNK     1      18.208   0.261  33.997  1.00  0.00     0.067 A 
HETATM    7  C2  UNK     1      18.365   1.039  32.850  1.00  0.00     0.092 A 
HETATM    8  C1  UNK     1      18.927   0.532  31.677  1.00  0.00     0.004 A 
HETATM    9  O1  UNK     1      17.926   2.375  32.929  1.00  0.00    -0.275 OA
HETATM   10  C3  UNK     1      19.054   1.424  30.515  1.00  0.00    -0.043 A 
HETATM   11  C5  UNK     1      19.339  -0.806  31.679  1.00  0.00     0.017 A 
HETATM   12  C11 UNK     1      19.653   0.908  29.239  1.00  0.00     0.049 C 
HETATM   13  C8  UNK     1      18.627   2.690  30.619  1.00  0.00     0.090 A 
HETATM   14  C12 UNK     1      18.033   3.239  31.850  1.00  0.00     0.288 A 
HETATM   15  O2  UNK     1      17.655   4.404  31.907  1.00  0.00    -0.260 OA
HETATM   16  C7  UNK     1      19.188  -1.600  32.822  1.00  0.00     0.030 A 
ENDBRANCH   3   5
ENDBRANCH   2   3
BRANCH   2  17
HETATM   17  N3  UNK     1      18.790  -3.412  36.855  1.00  0.00    -0.274 N 
HETATM   18  H12 UNK     1      18.617  -3.126  37.812  1.00  0.00     0.189 HD
BRANCH  17  19
HETATM   19  N2  UNK     1      18.387  -4.679  36.506  1.00  0.00    -0.268 N 
HETATM   20  C13 UNK     1      19.173  -5.755  36.870  1.00  0.00     0.240 C 
HETATM   21  O3  UNK     1      20.230  -5.687  37.494  1.00  0.00    -0.272 OA
HETATM   22  H11 UNK     1      17.467  -4.777  36.089  1.00  0.00     0.190 HD
BRANCH  20  23
HETATM   23  C9  UNK     1      18.576  -7.083  36.458  1.00  0.00     0.148 C 
BRANCH  23  24
HETATM   24  C10 UNK     1      19.619  -8.168  36.442  1.00  0.00     0.011 A 
HETATM   25  C14 UNK     1      20.539  -8.265  35.405  1.00  0.00     0.043 A 
HETATM   26 Cl1  UNK     1      20.537  -7.155  34.083  1.00  0.00    -0.084 Cl
HETATM   27  C17 UNK     1      21.494  -9.281  35.424  1.00  0.00     0.024 A 
HETATM   28  C19 UNK     1      21.522 -10.193  36.478  1.00  0.00     0.005 A 
HETATM   29  C18 UNK     1      20.595 -10.089  37.515  1.00  0.00     0.043 A 
HETATM   30  C15 UNK     1      19.640  -9.072  37.497  1.00  0.00     0.124 A 
HETATM   31  F1  UNK     1      18.754  -8.980  38.499  1.00  0.00    -0.205 F 
ENDBRANCH  23  24
ENDBRANCH  20  23
ENDBRANCH  17  19
ENDBRANCH   2  17
TORSDOF 6
ENDMDL
MODEL 6
REMARK VINA RESULT:      -9.5      1.688      2.436
REMARK  6 active torsions:
REMARK  status: ('A' for Active; 'I' for Inactive)
REMARK    1  A    between atoms: C16_25  and  N1_7 
REMARK    2  A    between atoms: C4_13  and  N1_7 
REMARK       I    between atoms: C13_22  and  N2_8 
REMARK    3  A    between atoms: N2_8  and  N3_9 
REMARK    4  A    between atoms: C16_25  and  N3_9 
REMARK    5  A    between atoms: C10_19  and  C9_18 
REMARK    6  A    between atoms: C13_22  and  C9_18 
ROOT
HETATM    1  S1  UNK     1      17.887  -0.328  37.262  1.00  0.00    -0.039 SA
HETATM    2  C16 UNK     1      18.443  -1.647  36.387  1.00  0.00     0.191 C 
ENDROOT
BRANCH   2   3
HETATM    3  N1  UNK     1      18.480  -1.816  34.992  1.00  0.00    -0.332 N 
HETATM    4  H10 UNK     1      18.332  -2.779  34.699  1.00  0.00     0.168 HD
BRANCH   3   5
HETATM    5  C4  UNK     1      18.604  -0.931  33.921  1.00  0.00     0.037 A 
HETATM    6  C6  UNK     1      19.117  -1.373  32.705  1.00  0.00     0.067 A 
HETATM    7  C2  UNK     1      19.231  -0.472  31.646  1.00  0.00     0.092 A 
HETATM    8  C1  UNK     1      18.847   0.865  31.760  1.00  0.00     0.004 A 
HETATM    9  O1  UNK     1      19.758  -0.978  30.441  1.00  0.00    -0.275 OA
HETATM   10  C3  UNK     1      19.002   1.744  30.592  1.00  0.00    -0.043 A 
HETATM   11  C5  UNK     1      18.332   1.291  32.991  1.00  0.00     0.017 A 
HETATM   12  C11 UNK     1      18.598   3.187  30.684  1.00  0.00     0.049 C 
HETATM   13  C8  UNK     1      19.506   1.235  29.459  1.00  0.00     0.090 A 
HETATM   14  C12 UNK     1      19.916  -0.173  29.323  1.00  0.00     0.288 A 
HETATM   15  O2  UNK     1      20.373  -0.602  28.270  1.00  0.00    -0.260 OA
HETATM   16  C7  UNK     1      18.212   0.399  34.064  1.00  0.00     0.030 A 
ENDBRANCH   3   5
ENDBRANCH   2   3
BRANCH   2  17
HETATM   17  N3  UNK     1      18.967  -2.714  37.109  1.00  0.00    -0.274 N 
HETATM   18  H12 UNK     1      19.652  -2.572  37.843  1.00  0.00     0.189 HD
BRANCH  17  19
HETATM   19  N2  UNK     1      18.565  -4.008  36.878  1.00  0.00    -0.268 N 
HETATM   20  C13 UNK     1      19.524  -4.971  36.631  1.00  0.00     0.240 C 
HETATM   21  O3  UNK     1      20.737  -4.777  36.596  1.00  0.00    -0.272 OA
HETATM   22  H11 UNK     1      17.582  -4.220  37.010  1.00  0.00     0.190 HD
BRANCH  20  23
HETATM   23  C9  UNK     1      18.932  -6.352  36.445  1.00  0.00     0.148 C 
BRANCH  23  24
HETATM   24  C10 UNK     1      19.977  -7.420  36.627  1.00  0.00     0.011 A 
HETATM   25  C14 UNK     1      20.736  -7.872  35.555  1.00  0.00     0.043 A 
HETATM   26 Cl1  UNK     1      20.527  -7.239  33.962  1.00  0.00    -0.084 Cl
HETATM   27  C17 UNK     1      21.698  -8.862  35.760  1.00  0.00     0.024 A 
HETATM   28  C19 UNK     1      21.891  -9.393  37.035  1.00  0.00     0.005 A 
HETATM   29  C18 UNK     1      21.123  -8.934  38.105  1.00  0.00     0.043 A 
HETATM   30  C15 UNK     1      20.163  -7.944  37.900  1.00  0.00     0.124 A 
HETATM   31  F1  UNK     1      19.431  -7.508  38.937  1.00  0.00    -0.205 F 
ENDBRANCH  23  24
ENDBRANCH  20  23
ENDBRANCH  17  19
ENDBRANCH   2  17
TORSDOF 6
ENDMDL
MODEL 7
REMARK VINA RESULT:      -9.5      6.097     11.229
REMARK  6 active torsions:
REMARK  status: ('A' for Active; 'I' for Inactive)
REMARK    1  A    between atoms: C16_25  and  N1_7 
REMARK    2  A    between atoms: C4_13  and  N1_7 
REMARK       I    between atoms: C13_22  and  N2_8 
REMARK    3  A    between atoms: N2_8  and  N3_9 
REMARK    4  A    between atoms: C16_25  and  N3_9 
REMARK    5  A    between atoms: C10_19  and  C9_18 
REMARK    6  A    between atoms: C13_22  and  C9_18 
ROOT
HETATM    1  S1  UNK     1      18.098   1.430  28.819  1.00  0.00    -0.039 SA
HETATM    2  C16 UNK     1      18.877   1.096  30.266  1.00  0.00     0.191 C 
ENDROOT
BRANCH   2   3
HETATM    3  N1  UNK     1      18.915  -0.116  30.977  1.00  0.00    -0.332 N 
HETATM    4  H10 UNK     1      19.065  -0.927  30.382  1.00  0.00     0.168 HD
BRANCH   3   5
HETATM    5  C4  UNK     1      18.864  -0.435  32.334  1.00  0.00     0.037 A 
HETATM    6  C6  UNK     1      19.537  -1.554  32.815  1.00  0.00     0.067 A 
HETATM    7  C2  UNK     1      19.475  -1.854  34.176  1.00  0.00     0.092 A 
HETATM    8  C1  UNK     1      18.758  -1.069  35.080  1.00  0.00     0.004 A 
HETATM    9  O1  UNK     1      20.176  -3.000  34.602  1.00  0.00    -0.275 OA
HETATM   10  C3  UNK     1      18.748  -1.459  36.497  1.00  0.00    -0.043 A 
HETATM   11  C5  UNK     1      18.088   0.054  34.578  1.00  0.00     0.017 A 
HETATM   12  C11 UNK     1      17.986  -0.635  37.494  1.00  0.00     0.049 C 
HETATM   13  C8  UNK     1      19.423  -2.554  36.874  1.00  0.00     0.090 A 
HETATM   14  C12 UNK     1      20.183  -3.393  35.932  1.00  0.00     0.288 A 
HETATM   15  O2  UNK     1      20.790  -4.387  36.314  1.00  0.00    -0.260 OA
HETATM   16  C7  UNK     1      18.141   0.368  33.214  1.00  0.00     0.030 A 
ENDBRANCH   3   5
ENDBRANCH   2   3
BRANCH   2  17
HETATM   17  N3  UNK     1      19.614   2.124  30.843  1.00  0.00    -0.274 N 
HETATM   18  H12 UNK     1      20.385   1.936  31.474  1.00  0.00     0.189 HD
BRANCH  17  19
HETATM   19  N2  UNK     1      19.347   3.445  30.569  1.00  0.00    -0.268 N 
HETATM   20  C13 UNK     1      18.479   4.136  31.392  1.00  0.00     0.240 C 
HETATM   21  O3  UNK     1      17.905   3.670  32.375  1.00  0.00    -0.272 OA
HETATM   22  H11 UNK     1      19.889   3.886  29.834  1.00  0.00     0.190 HD
BRANCH  20  23
HETATM   23  C9  UNK     1      18.324   5.587  30.993  1.00  0.00     0.148 C 
BRANCH  23  24
HETATM   24  C10 UNK     1      18.505   6.499  32.176  1.00  0.00     0.011 A 
HETATM   25  C14 UNK     1      17.414   7.091  32.801  1.00  0.00     0.043 A 
HETATM   26 Cl1  UNK     1      15.798   6.816  32.259  1.00  0.00    -0.084 Cl
HETATM   27  C17 UNK     1      17.618   7.929  33.897  1.00  0.00     0.024 A 
HETATM   28  C19 UNK     1      18.912   8.171  34.359  1.00  0.00     0.005 A 
HETATM   29  C18 UNK     1      20.001   7.574  33.725  1.00  0.00     0.043 A 
HETATM   30  C15 UNK     1      19.797   6.735  32.630  1.00  0.00     0.124 A 
HETATM   31  F1  UNK     1      20.851   6.165  32.029  1.00  0.00    -0.205 F 
ENDBRANCH  23  24
ENDBRANCH  20  23
ENDBRANCH  17  19
ENDBRANCH   2  17
TORSDOF 6
ENDMDL
MODEL 8
REMARK VINA RESULT:      -9.4      6.264      8.855
REMARK  6 active torsions:
REMARK  status: ('A' for Active; 'I' for Inactive)
REMARK    1  A    between atoms: C16_25  and  N1_7 
REMARK    2  A    between atoms: C4_13  and  N1_7 
REMARK       I    between atoms: C13_22  and  N2_8 
REMARK    3  A    between atoms: N2_8  and  N3_9 
REMARK    4  A    between atoms: C16_25  and  N3_9 
REMARK    5  A    between atoms: C10_19  and  C9_18 
REMARK    6  A    between atoms: C13_22  and  C9_18 
ROOT
HETATM    1  S1  UNK     1      18.654   3.265  29.718  1.00  0.00    -0.039 SA
HETATM    2  C16 UNK     1      18.347   2.758  31.287  1.00  0.00     0.191 C 
ENDROOT
BRANCH   2   3
HETATM    3  N1  UNK     1      17.920   3.526  32.385  1.00  0.00    -0.332 N 
HETATM    4  H10 UNK     1      17.364   2.997  33.053  1.00  0.00     0.168 HD
BRANCH   3   5
HETATM    5  C4  UNK     1      18.160   4.839  32.790  1.00  0.00     0.037 A 
HETATM    6  C6  UNK     1      17.153   5.795  32.693  1.00  0.00     0.067 A 
HETATM    7  C2  UNK     1      17.414   7.102  33.105  1.00  0.00     0.092 A 
HETATM    8  C1  UNK     1      18.655   7.490  33.613  1.00  0.00     0.004 A 
HETATM    9  O1  UNK     1      16.356   8.025  32.983  1.00  0.00    -0.275 OA
HETATM   10  C3  UNK     1      18.841   8.889  34.023  1.00  0.00    -0.043 A 
HETATM   11  C5  UNK     1      19.655   6.514  33.703  1.00  0.00     0.017 A 
HETATM   12  C11 UNK     1      20.163   9.338  34.573  1.00  0.00     0.049 C 
HETATM   13  C8  UNK     1      17.816   9.745  33.895  1.00  0.00     0.090 A 
HETATM   14  C12 UNK     1      16.502   9.350  33.361  1.00  0.00     0.288 A 
HETATM   15  O2  UNK     1      15.588  10.161  33.260  1.00  0.00    -0.260 OA
HETATM   16  C7  UNK     1      19.409   5.198  33.294  1.00  0.00     0.030 A 
ENDBRANCH   3   5
ENDBRANCH   2   3
BRANCH   2  17
HETATM   17  N3  UNK     1      18.497   1.402  31.558  1.00  0.00    -0.274 N 
HETATM   18  H12 UNK     1      18.512   0.711  30.816  1.00  0.00     0.189 HD
BRANCH  17  19
HETATM   19  N2  UNK     1      18.654   0.936  32.841  1.00  0.00    -0.268 N 
HETATM   20  C13 UNK     1      18.526  -0.419  33.080  1.00  0.00     0.240 C 
HETATM   21  O3  UNK     1      18.277  -1.273  32.231  1.00  0.00    -0.272 OA
HETATM   22  H11 UNK     1      18.968   1.598  33.542  1.00  0.00     0.190 HD
BRANCH  20  23
HETATM   23  C9  UNK     1      18.773  -0.784  34.528  1.00  0.00     0.148 C 
BRANCH  23  24
HETATM   24  C10 UNK     1      17.904   0.029  35.450  1.00  0.00     0.011 A 
HETATM   25  C14 UNK     1      16.544  -0.228  35.567  1.00  0.00     0.043 A 
HETATM   26 Cl1  UNK     1      15.776  -1.485  34.667  1.00  0.00    -0.084 Cl
HETATM   27  C17 UNK     1      15.769   0.544  36.433  1.00  0.00     0.024 A 
HETATM   28  C19 UNK     1      16.360   1.567  37.174  1.00  0.00     0.005 A 
HETATM   29  C18 UNK     1      17.726   1.818  37.049  1.00  0.00     0.043 A 
HETATM   30  C15 UNK     1      18.501   1.046  36.184  1.00  0.00     0.124 A 
HETATM   31  F1  UNK     1      19.814   1.295  36.073  1.00  0.00    -0.205 F 
ENDBRANCH  23  24
ENDBRANCH  20  23
ENDBRANCH  17  19
ENDBRANCH   2  17
TORSDOF 6
ENDMDL
MODEL 9
REMARK VINA RESULT:      -9.3      3.492      9.624
REMARK  6 active torsions:
REMARK  status: ('A' for Active; 'I' for Inactive)
REMARK    1  A    between atoms: C16_25  and  N1_7 
REMARK    2  A    between atoms: C4_13  and  N1_7 
REMARK       I    between atoms: C13_22  and  N2_8 
REMARK    3  A    between atoms: N2_8  and  N3_9 
REMARK    4  A    between atoms: C16_25  and  N3_9 
REMARK    5  A    between atoms: C10_19  and  C9_18 
REMARK    6  A    between atoms: C13_22  and  C9_18 
ROOT
HETATM    1  S1  UNK     1      18.511  -1.677  38.000  1.00  0.00    -0.039 SA
HETATM    2  C16 UNK     1      18.683  -2.360  36.478  1.00  0.00     0.191 C 
ENDROOT
BRANCH   2   3
HETATM    3  N1  UNK     1      19.353  -3.544  36.122  1.00  0.00    -0.332 N 
HETATM    4  H10 UNK     1      19.549  -3.611  35.126  1.00  0.00     0.168 HD
BRANCH   3   5
HETATM    5  C4  UNK     1      19.872  -4.610  36.856  1.00  0.00     0.037 A 
HETATM    6  C6  UNK     1      19.197  -5.827  36.894  1.00  0.00     0.067 A 
HETATM    7  C2  UNK     1      19.735  -6.881  37.632  1.00  0.00     0.092 A 
HETATM    8  C1  UNK     1      20.932  -6.761  38.340  1.00  0.00     0.004 A 
HETATM    9  O1  UNK     1      19.006  -8.087  37.633  1.00  0.00    -0.275 OA
HETATM   10  C3  UNK     1      21.425  -7.924  39.091  1.00  0.00    -0.043 A 
HETATM   11  C5  UNK     1      21.597  -5.529  38.289  1.00  0.00     0.017 A 
HETATM   12  C11 UNK     1      22.709  -7.827  39.862  1.00  0.00     0.049 C 
HETATM   13  C8  UNK     1      20.710  -9.059  39.074  1.00  0.00     0.090 A 
HETATM   14  C12 UNK     1      19.446  -9.200  38.333  1.00  0.00     0.288 A 
HETATM   15  O2  UNK     1      18.820 -10.254  38.339  1.00  0.00    -0.260 OA
HETATM   16  C7  UNK     1      21.070  -4.462  37.552  1.00  0.00     0.030 A 
ENDBRANCH   3   5
ENDBRANCH   2   3
BRANCH   2  17
HETATM   17  N3  UNK     1      18.068  -1.707  35.415  1.00  0.00    -0.274 N 
HETATM   18  H12 UNK     1      17.095  -1.873  35.182  1.00  0.00     0.189 HD
BRANCH  17  19
HETATM   19  N2  UNK     1      18.741  -0.788  34.646  1.00  0.00    -0.268 N 
HETATM   20  C13 UNK     1      18.394  -0.648  33.316  1.00  0.00     0.240 C 
HETATM   21  O3  UNK     1      17.516  -1.284  32.737  1.00  0.00    -0.272 OA
HETATM   22  H11 UNK     1      19.392  -0.172  35.120  1.00  0.00     0.190 HD
BRANCH  20  23
HETATM   23  C9  UNK     1      19.188   0.433  32.615  1.00  0.00     0.148 C 
BRANCH  23  24
HETATM   24  C10 UNK     1      19.491   0.048  31.191  1.00  0.00     0.011 A 
HETATM   25  C14 UNK     1      19.042   0.820  30.127  1.00  0.00     0.043 A 
HETATM   26 Cl1  UNK     1      18.117   2.257  30.374  1.00  0.00    -0.084 Cl
HETATM   27  C17 UNK     1      19.344   0.435  28.821  1.00  0.00     0.024 A 
HETATM   28  C19 UNK     1      20.090  -0.720  28.589  1.00  0.00     0.005 A 
HETATM   29  C18 UNK     1      20.535  -1.490  29.663  1.00  0.00     0.043 A 
HETATM   30  C15 UNK     1      20.234  -1.105  30.969  1.00  0.00     0.124 A 
HETATM   31  F1  UNK     1      20.669  -1.852  31.995  1.00  0.00    -0.205 F 
ENDBRANCH  23  24
ENDBRANCH  20  23
ENDBRANCH  17  19
ENDBRANCH   2  17
TORSDOF 6
ENDMDL
MODEL 10
REMARK VINA RESULT:      -9.3      6.005      8.561
REMARK  6 active torsions:
REMARK  status: ('A' for Active; 'I' for Inactive)
REMARK    1  A    between atoms: C16_25  and  N1_7 
REMARK    2  A    between atoms: C4_13  and  N1_7 
REMARK       I    between atoms: C13_22  and  N2_8 
REMARK    3  A    between atoms: N2_8  and  N3_9 
REMARK    4  A    between atoms: C16_25  and  N3_9 
REMARK    5  A    between atoms: C10_19  and  C9_18 
REMARK    6  A    between atoms: C13_22  and  C9_18 
ROOT
HETATM    1  S1  UNK     1      17.997   2.008  28.882  1.00  0.00    -0.039 SA
HETATM    2  C16 UNK     1      18.387   2.805  30.307  1.00  0.00     0.191 C 
ENDROOT
BRANCH   2   3
HETATM    3  N1  UNK     1      19.197   3.941  30.478  1.00  0.00    -0.332 N 
HETATM    4  H10 UNK     1      19.968   3.988  29.816  1.00  0.00     0.168 HD
BRANCH   3   5
HETATM    5  C4  UNK     1      19.124   5.055  31.314  1.00  0.00     0.037 A 
HETATM    6  C6  UNK     1      17.892   5.637  31.597  1.00  0.00     0.067 A 
HETATM    7  C2  UNK     1      17.841   6.749  32.437  1.00  0.00     0.092 A 
HETATM    8  C1  UNK     1      18.987   7.305  33.008  1.00  0.00     0.004 A 
HETATM    9  O1  UNK     1      16.566   7.294  32.686  1.00  0.00    -0.275 OA
HETATM   10  C3  UNK     1      18.840   8.478  33.882  1.00  0.00    -0.043 A 
HETATM   11  C5  UNK     1      20.218   6.705  32.712  1.00  0.00     0.017 A 
HETATM   12  C11 UNK     1      20.054   9.098  34.511  1.00  0.00     0.049 C 
HETATM   13  C8  UNK     1      17.614   8.975  34.101  1.00  0.00     0.090 A 
HETATM   14  C12 UNK     1      16.396   8.400  33.505  1.00  0.00     0.288 A 
HETATM   15  O2  UNK     1      15.292   8.882  33.730  1.00  0.00    -0.260 OA
HETATM   16  C7  UNK     1      20.285   5.588  31.871  1.00  0.00     0.030 A 
ENDBRANCH   3   5
ENDBRANCH   2   3
BRANCH   2  17
HETATM   17  N3  UNK     1      17.825   2.317  31.482  1.00  0.00    -0.274 N 
HETATM   18  H12 UNK     1      16.855   2.025  31.525  1.00  0.00     0.189 HD
BRANCH  17  19
HETATM   19  N2  UNK     1      18.563   2.186  32.633  1.00  0.00    -0.268 N 
HETATM   20  C13 UNK     1      17.954   1.672  33.762  1.00  0.00     0.240 C 
HETATM   21  O3  UNK     1      16.782   1.311  33.838  1.00  0.00    -0.272 OA
HETATM   22  H11 UNK     1      19.559   2.371  32.572  1.00  0.00     0.190 HD
BRANCH  20  23
HETATM   23  C9  UNK     1      18.905   1.544  34.933  1.00  0.00     0.148 C 
BRANCH  23  24
HETATM   24  C10 UNK     1      18.491   0.423  35.849  1.00  0.00     0.011 A 
HETATM   25  C14 UNK     1      18.625  -0.906  35.464  1.00  0.00     0.043 A 
HETATM   26 Cl1  UNK     1      19.270  -1.345  33.924  1.00  0.00    -0.084 Cl
HETATM   27  C17 UNK     1      18.234  -1.919  36.339  1.00  0.00     0.024 A 
HETATM   28  C19 UNK     1      17.710  -1.597  37.591  1.00  0.00     0.005 A 
HETATM   29  C18 UNK     1      17.577  -0.261  37.968  1.00  0.00     0.043 A 
HETATM   30  C15 UNK     1      17.969   0.753  37.094  1.00  0.00     0.124 A 
HETATM   31  F1  UNK     1      17.839   2.034  37.467  1.00  0.00    -0.205 F 
ENDBRANCH  23  24
ENDBRANCH  20  23
ENDBRANCH  17  19
ENDBRANCH   2  17
TORSDOF 6
ENDMDL
