MODEL 1
REMARK VINA RESULT:      -8.9      0.000      0.000
REMARK  2 active torsions:
REMARK  status: ('A' for Active; 'I' for Inactive)
REMARK    1  A    between atoms: C4_9  and  N1_4 
REMARK    2  A    between atoms: C10_15  and  N2_5 
ROOT
HETATM    1  O1  UNK     1      19.291   2.826  20.211  1.00  0.00    -0.275 OA
HETATM    2  O2  UNK     1      19.352   2.785  22.501  1.00  0.00    -0.260 OA
HETATM    3  C1  UNK     1      19.236   0.721  18.991  1.00  0.00     0.000 A 
HETATM    4  C2  UNK     1      19.251   2.113  18.996  1.00  0.00     0.089 A 
HETATM    5  C3  UNK     1      19.195   0.050  17.767  1.00  0.00     0.047 A 
HETATM    6  C4  UNK     1      19.171   0.777  16.573  1.00  0.00     0.080 A 
HETATM    7  C5  UNK     1      19.228   2.850  17.813  1.00  0.00     0.040 A 
HETATM    8  C6  UNK     1      19.189   2.173  16.597  1.00  0.00     0.036 A 
HETATM    9  C7  UNK     1      19.261   0.015  20.262  1.00  0.00     0.020 A 
HETATM   10  C8  UNK     1      19.299   0.698  21.409  1.00  0.00     0.083 A 
HETATM   11  C9  UNK     1      19.317   2.172  21.439  1.00  0.00     0.288 A 
ENDROOT
BRANCH   6  12
HETATM   12  N1  UNK     1      19.132   0.102  15.348  1.00  0.00    -0.150 NA
HETATM   13  N2  UNK     1      19.234  -1.132  15.536  1.00  0.00    -0.150 NA
BRANCH  13  14
HETATM   14  C10 UNK     1      19.196  -1.811  14.307  1.00  0.00     0.079 A 
HETATM   15  C11 UNK     1      19.467  -1.122  13.128  1.00  0.00     0.035 A 
HETATM   16  C13 UNK     1      19.427  -1.796  11.907  1.00  0.00     0.026 A 
HETATM   17  C15 UNK     1      19.117  -3.156  11.871  1.00  0.00     0.034 A 
HETATM   18  C14 UNK     1      18.847  -3.841  13.056  1.00  0.00     0.026 A 
HETATM   19 Cl1  UNK     1      19.070  -3.988  10.365  1.00  0.00    -0.084 Cl
HETATM   20  C12 UNK     1      18.886  -3.168  14.276  1.00  0.00     0.035 A 
ENDBRANCH  13  14
ENDBRANCH   6  12
TORSDOF 2
ENDMDL
MODEL 2
REMARK VINA RESULT:      -8.6     13.703     16.589
REMARK  2 active torsions:
REMARK  status: ('A' for Active; 'I' for Inactive)
REMARK    1  A    between atoms: C4_9  and  N1_4 
REMARK    2  A    between atoms: C10_15  and  N2_5 
ROOT
HETATM    1  O1  UNK     1      17.177   8.985  34.558  1.00  0.00    -0.275 OA
HETATM    2  O2  UNK     1      15.491  10.256  35.448  1.00  0.00    -0.260 OA
HETATM    3  C1  UNK     1      16.607   7.048  33.198  1.00  0.00     0.000 A 
HETATM    4  C2  UNK     1      17.565   7.875  33.780  1.00  0.00     0.089 A 
HETATM    5  C3  UNK     1      17.031   5.959  32.434  1.00  0.00     0.047 A 
HETATM    6  C4  UNK     1      18.397   5.713  32.264  1.00  0.00     0.080 A 
HETATM    7  C5  UNK     1      18.929   7.642  33.619  1.00  0.00     0.040 A 
HETATM    8  C6  UNK     1      19.343   6.553  32.856  1.00  0.00     0.036 A 
HETATM    9  C7  UNK     1      15.201   7.350  33.407  1.00  0.00     0.020 A 
HETATM   10  C8  UNK     1      14.842   8.403  34.146  1.00  0.00     0.083 A 
HETATM   11  C9  UNK     1      15.837   9.292  34.772  1.00  0.00     0.288 A 
ENDROOT
BRANCH   6  12
HETATM   12  N1  UNK     1      18.818   4.621  31.499  1.00  0.00    -0.150 NA
HETATM   13  N2  UNK     1      17.905   3.764  31.438  1.00  0.00    -0.150 NA
BRANCH  13  14
HETATM   14  C10 UNK     1      18.327   2.666  30.670  1.00  0.00     0.079 A 
HETATM   15  C11 UNK     1      19.118   1.679  31.252  1.00  0.00     0.035 A 
HETATM   16  C13 UNK     1      19.537   0.589  30.489  1.00  0.00     0.026 A 
HETATM   17  C15 UNK     1      19.164   0.491  29.148  1.00  0.00     0.034 A 
HETATM   18  C14 UNK     1      18.371   1.483  28.571  1.00  0.00     0.026 A 
HETATM   19 Cl1  UNK     1      19.681  -0.854  28.207  1.00  0.00    -0.084 Cl
HETATM   20  C12 UNK     1      17.952   2.573  29.333  1.00  0.00     0.035 A 
ENDBRANCH  13  14
ENDBRANCH   6  12
TORSDOF 2
ENDMDL
MODEL 3
REMARK VINA RESULT:      -8.3      4.850      8.424
REMARK  2 active torsions:
REMARK  status: ('A' for Active; 'I' for Inactive)
REMARK    1  A    between atoms: C4_9  and  N1_4 
REMARK    2  A    between atoms: C10_15  and  N2_5 
ROOT
HETATM    1  O1  UNK     1      18.663  -4.125  11.846  1.00  0.00    -0.275 OA
HETATM    2  O2  UNK     1      18.950  -4.121   9.573  1.00  0.00    -0.260 OA
HETATM    3  C1  UNK     1      19.258  -2.138  13.119  1.00  0.00     0.000 A 
HETATM    4  C2  UNK     1      18.770  -3.442  13.074  1.00  0.00     0.089 A 
HETATM    5  C3  UNK     1      19.348  -1.493  14.354  1.00  0.00     0.047 A 
HETATM    6  C4  UNK     1      18.951  -2.156  15.519  1.00  0.00     0.080 A 
HETATM    7  C5  UNK     1      18.370  -4.114  14.227  1.00  0.00     0.040 A 
HETATM    8  C6  UNK     1      18.465  -3.463  15.455  1.00  0.00     0.036 A 
HETATM    9  C7  UNK     1      19.657  -1.496  11.877  1.00  0.00     0.020 A 
HETATM   10  C8  UNK     1      19.553  -2.151  10.718  1.00  0.00     0.083 A 
HETATM   11  C9  UNK     1      19.039  -3.531  10.646  1.00  0.00     0.288 A 
ENDROOT
BRANCH   6  12
HETATM   12  N1  UNK     1      19.043  -1.507  16.755  1.00  0.00    -0.150 NA
HETATM   13  N2  UNK     1      19.004  -0.266  16.590  1.00  0.00    -0.150 NA
BRANCH  13  14
HETATM   14  C10 UNK     1      19.098   0.387  17.831  1.00  0.00     0.079 A 
HETATM   15  C11 UNK     1      19.288  -0.358  18.991  1.00  0.00     0.035 A 
HETATM   16  C13 UNK     1      19.379   0.290  20.223  1.00  0.00     0.026 A 
HETATM   17  C15 UNK     1      19.281   1.680  20.289  1.00  0.00     0.034 A 
HETATM   18  C14 UNK     1      19.091   2.422  19.122  1.00  0.00     0.026 A 
HETATM   19 Cl1  UNK     1      19.395   2.480  21.809  1.00  0.00    -0.084 Cl
HETATM   20  C12 UNK     1      18.999   1.774  17.891  1.00  0.00     0.035 A 
ENDBRANCH  13  14
ENDBRANCH   6  12
TORSDOF 2
ENDMDL
MODEL 4
REMARK VINA RESULT:      -8.2     14.417     17.483
REMARK  2 active torsions:
REMARK  status: ('A' for Active; 'I' for Inactive)
REMARK    1  A    between atoms: C4_9  and  N1_4 
REMARK    2  A    between atoms: C10_15  and  N2_5 
ROOT
HETATM    1  O1  UNK     1      19.757  -1.144  31.492  1.00  0.00    -0.275 OA
HETATM    2  O2  UNK     1      20.717  -2.777  30.204  1.00  0.00    -0.260 OA
HETATM    3  C1  UNK     1      19.254   1.014  30.486  1.00  0.00     0.000 A 
HETATM    4  C2  UNK     1      19.251   0.168  31.592  1.00  0.00     0.089 A 
HETATM    5  C3  UNK     1      18.744   2.307  30.624  1.00  0.00     0.047 A 
HETATM    6  C4  UNK     1      18.241   2.732  31.858  1.00  0.00     0.080 A 
HETATM    7  C5  UNK     1      18.753   0.578  32.827  1.00  0.00     0.040 A 
HETATM    8  C6  UNK     1      18.247   1.869  32.956  1.00  0.00     0.036 A 
HETATM    9  C7  UNK     1      19.789   0.521  29.228  1.00  0.00     0.020 A 
HETATM   10  C8  UNK     1      20.267  -0.722  29.142  1.00  0.00     0.083 A 
HETATM   11  C9  UNK     1      20.274  -1.637  30.299  1.00  0.00     0.288 A 
ENDROOT
BRANCH   6  12
HETATM   12  N1  UNK     1      17.731   4.027  31.993  1.00  0.00    -0.150 NA
HETATM   13  N2  UNK     1      18.210   4.570  33.015  1.00  0.00    -0.150 NA
BRANCH  13  14
HETATM   14  C10 UNK     1      17.698   5.872  33.153  1.00  0.00     0.079 A 
HETATM   15  C11 UNK     1      18.290   6.756  34.050  1.00  0.00     0.035 A 
HETATM   16  C13 UNK     1      17.780   8.047  34.187  1.00  0.00     0.026 A 
HETATM   17  C15 UNK     1      16.682   8.449  33.426  1.00  0.00     0.034 A 
HETATM   18  C14 UNK     1      16.094   7.558  32.528  1.00  0.00     0.026 A 
HETATM   19 Cl1  UNK     1      16.055  10.042  33.594  1.00  0.00    -0.084 Cl
HETATM   20  C12 UNK     1      16.602   6.267  32.391  1.00  0.00     0.035 A 
ENDBRANCH  13  14
ENDBRANCH   6  12
TORSDOF 2
ENDMDL
MODEL 5
REMARK VINA RESULT:      -8.2     13.614     15.792
REMARK  2 active torsions:
REMARK  status: ('A' for Active; 'I' for Inactive)
REMARK    1  A    between atoms: C4_9  and  N1_4 
REMARK    2  A    between atoms: C10_15  and  N2_5 
ROOT
HETATM    1  O1  UNK     1      17.065   8.265  31.788  1.00  0.00    -0.275 OA
HETATM    2  O2  UNK     1      15.932   9.880  32.953  1.00  0.00    -0.260 OA
HETATM    3  C1  UNK     1      17.388   6.078  32.805  1.00  0.00     0.000 A 
HETATM    4  C2  UNK     1      17.570   6.951  31.735  1.00  0.00     0.089 A 
HETATM    5  C3  UNK     1      17.902   4.783  32.715  1.00  0.00     0.047 A 
HETATM    6  C4  UNK     1      18.587   4.381  31.564  1.00  0.00     0.080 A 
HETATM    7  C5  UNK     1      18.250   6.564  30.582  1.00  0.00     0.040 A 
HETATM    8  C6  UNK     1      18.761   5.270  30.502  1.00  0.00     0.036 A 
HETATM    9  C7  UNK     1      16.668   6.547  33.977  1.00  0.00     0.020 A 
HETATM   10  C8  UNK     1      16.193   7.795  34.019  1.00  0.00     0.083 A 
HETATM   11  C9  UNK     1      16.374   8.736  32.899  1.00  0.00     0.288 A 
ENDROOT
BRANCH   6  12
HETATM   12  N1  UNK     1      19.101   3.083  31.478  1.00  0.00    -0.150 NA
HETATM   13  N2  UNK     1      18.665   2.519  30.448  1.00  0.00    -0.150 NA
BRANCH  13  14
HETATM   14  C10 UNK     1      19.181   1.215  30.360  1.00  0.00     0.079 A 
HETATM   15  C11 UNK     1      19.234   0.414  31.497  1.00  0.00     0.035 A 
HETATM   16  C13 UNK     1      19.748  -0.880  31.409  1.00  0.00     0.026 A 
HETATM   17  C15 UNK     1      20.205  -1.368  30.185  1.00  0.00     0.034 A 
HETATM   18  C14 UNK     1      20.148  -0.561  29.048  1.00  0.00     0.026 A 
HETATM   19 Cl1  UNK     1      20.836  -2.965  30.077  1.00  0.00    -0.084 Cl
HETATM   20  C12 UNK     1      19.636   0.733  29.135  1.00  0.00     0.035 A 
ENDBRANCH  13  14
ENDBRANCH   6  12
TORSDOF 2
ENDMDL
MODEL 6
REMARK VINA RESULT:      -8.1      4.906      8.293
REMARK  2 active torsions:
REMARK  status: ('A' for Active; 'I' for Inactive)
REMARK    1  A    between atoms: C4_9  and  N1_4 
REMARK    2  A    between atoms: C10_15  and  N2_5 
ROOT
HETATM    1  O1  UNK     1      18.794  -3.600  11.494  1.00  0.00    -0.275 OA
HETATM    2  O2  UNK     1      18.601  -5.459  10.170  1.00  0.00    -0.260 OA
HETATM    3  C1  UNK     1      18.937  -3.875  13.908  1.00  0.00     0.000 A 
HETATM    4  C2  UNK     1      18.910  -3.050  12.786  1.00  0.00     0.089 A 
HETATM    5  C3  UNK     1      19.054  -3.293  15.172  1.00  0.00     0.047 A 
HETATM    6  C4  UNK     1      19.141  -1.903  15.296  1.00  0.00     0.080 A 
HETATM    7  C5  UNK     1      18.996  -1.663  12.895  1.00  0.00     0.040 A 
HETATM    8  C6  UNK     1      19.111  -1.091  14.160  1.00  0.00     0.036 A 
HETATM    9  C7  UNK     1      18.843  -5.314  13.722  1.00  0.00     0.020 A 
HETATM   10  C8  UNK     1      18.733  -5.826  12.494  1.00  0.00     0.083 A 
HETATM   11  C9  UNK     1      18.702  -4.973  11.292  1.00  0.00     0.288 A 
ENDROOT
BRANCH   6  12
HETATM   12  N1  UNK     1      19.256  -1.323  16.563  1.00  0.00    -0.150 NA
HETATM   13  N2  UNK     1      18.973  -0.104  16.502  1.00  0.00    -0.150 NA
BRANCH  13  14
HETATM   14  C10 UNK     1      19.089   0.481  17.775  1.00  0.00     0.079 A 
HETATM   15  C11 UNK     1      19.085   1.867  17.902  1.00  0.00     0.035 A 
HETATM   16  C13 UNK     1      19.202   2.446  19.166  1.00  0.00     0.026 A 
HETATM   17  C15 UNK     1      19.322   1.638  20.296  1.00  0.00     0.034 A 
HETATM   18  C14 UNK     1      19.326   0.249  20.162  1.00  0.00     0.026 A 
HETATM   19 Cl1  UNK     1      19.465   2.353  21.855  1.00  0.00    -0.084 Cl
HETATM   20  C12 UNK     1      19.209  -0.331  18.899  1.00  0.00     0.035 A 
ENDBRANCH  13  14
ENDBRANCH   6  12
TORSDOF 2
ENDMDL
MODEL 7
REMARK VINA RESULT:      -8.0     14.751     18.479
REMARK  2 active torsions:
REMARK  status: ('A' for Active; 'I' for Inactive)
REMARK    1  A    between atoms: C4_9  and  N1_4 
REMARK    2  A    between atoms: C10_15  and  N2_5 
ROOT
HETATM    1  O1  UNK     1      18.707   0.740  30.784  1.00  0.00    -0.275 OA
HETATM    2  O2  UNK     1      18.759   1.760  28.733  1.00  0.00    -0.260 OA
HETATM    3  C1  UNK     1      20.159  -1.171  31.193  1.00  0.00     0.000 A 
HETATM    4  C2  UNK     1      19.189  -0.274  31.637  1.00  0.00     0.089 A 
HETATM    5  C3  UNK     1      20.613  -2.160  32.067  1.00  0.00     0.047 A 
HETATM    6  C4  UNK     1      20.094  -2.240  33.364  1.00  0.00     0.080 A 
HETATM    7  C5  UNK     1      18.664  -0.341  32.925  1.00  0.00     0.040 A 
HETATM    8  C6  UNK     1      19.122  -1.332  33.790  1.00  0.00     0.036 A 
HETATM    9  C7  UNK     1      20.664  -1.043  29.836  1.00  0.00     0.020 A 
HETATM   10  C8  UNK     1      20.201  -0.080  29.035  1.00  0.00     0.083 A 
HETATM   11  C9  UNK     1      19.175   0.880  29.482  1.00  0.00     0.288 A 
ENDROOT
BRANCH   6  12
HETATM   12  N1  UNK     1      20.550  -3.233  34.237  1.00  0.00    -0.150 NA
HETATM   13  N2  UNK     1      19.729  -3.391  35.170  1.00  0.00    -0.150 NA
BRANCH  13  14
HETATM   14  C10 UNK     1      20.186  -4.388  36.048  1.00  0.00     0.079 A 
HETATM   15  C11 UNK     1      20.824  -4.028  37.231  1.00  0.00     0.035 A 
HETATM   16  C13 UNK     1      21.279  -5.018  38.102  1.00  0.00     0.026 A 
HETATM   17  C15 UNK     1      21.092  -6.364  37.787  1.00  0.00     0.034 A 
HETATM   18  C14 UNK     1      20.452  -6.719  36.599  1.00  0.00     0.026 A 
HETATM   19 Cl1  UNK     1      21.652  -7.586  38.862  1.00  0.00    -0.084 Cl
HETATM   20  C12 UNK     1      19.997  -5.730  35.728  1.00  0.00     0.035 A 
ENDBRANCH  13  14
ENDBRANCH   6  12
TORSDOF 2
ENDMDL
MODEL 8
REMARK VINA RESULT:      -7.9     14.630     17.210
REMARK  2 active torsions:
REMARK  status: ('A' for Active; 'I' for Inactive)
REMARK    1  A    between atoms: C4_9  and  N1_4 
REMARK    2  A    between atoms: C10_15  and  N2_5 
ROOT
HETATM    1  O1  UNK     1      19.942  -0.656  29.760  1.00  0.00    -0.275 OA
HETATM    2  O2  UNK     1      20.656  -2.812  30.059  1.00  0.00    -0.260 OA
HETATM    3  C1  UNK     1      19.044   0.569  31.662  1.00  0.00     0.000 A 
HETATM    4  C2  UNK     1      19.384   0.515  30.313  1.00  0.00     0.089 A 
HETATM    5  C3  UNK     1      18.495   1.746  32.173  1.00  0.00     0.047 A 
HETATM    6  C4  UNK     1      18.293   2.846  31.333  1.00  0.00     0.080 A 
HETATM    7  C5  UNK     1      19.189   1.603  29.464  1.00  0.00     0.040 A 
HETATM    8  C6  UNK     1      18.639   2.773  29.982  1.00  0.00     0.036 A 
HETATM    9  C7  UNK     1      19.275  -0.603  32.490  1.00  0.00     0.020 A 
HETATM   10  C8  UNK     1      19.804  -1.708  31.959  1.00  0.00     0.083 A 
HETATM   11  C9  UNK     1      20.171  -1.789  30.533  1.00  0.00     0.288 A 
ENDROOT
BRANCH   6  12
HETATM   12  N1  UNK     1      17.742   4.024  31.848  1.00  0.00    -0.150 NA
HETATM   13  N2  UNK     1      18.594   4.942  31.822  1.00  0.00    -0.150 NA
BRANCH  13  14
HETATM   14  C10 UNK     1      18.041   6.125  32.339  1.00  0.00     0.079 A 
HETATM   15  C11 UNK     1      16.662   6.311  32.319  1.00  0.00     0.035 A 
HETATM   16  C13 UNK     1      16.114   7.487  32.832  1.00  0.00     0.026 A 
HETATM   17  C15 UNK     1      16.947   8.471  33.363  1.00  0.00     0.034 A 
HETATM   18  C14 UNK     1      18.329   8.280  33.381  1.00  0.00     0.026 A 
HETATM   19 Cl1  UNK     1      16.270   9.921  33.997  1.00  0.00    -0.084 Cl
HETATM   20  C12 UNK     1      18.877   7.105  32.868  1.00  0.00     0.035 A 
ENDBRANCH  13  14
ENDBRANCH   6  12
TORSDOF 2
ENDMDL
MODEL 9
REMARK VINA RESULT:      -7.9     21.182     23.534
REMARK  2 active torsions:
REMARK  status: ('A' for Active; 'I' for Inactive)
REMARK    1  A    between atoms: C4_9  and  N1_4 
REMARK    2  A    between atoms: C10_15  and  N2_5 
ROOT
HETATM    1  O1  UNK     1      18.481  -6.774  37.757  1.00  0.00    -0.275 OA
HETATM    2  O2  UNK     1      16.724  -6.498  36.313  1.00  0.00    -0.260 OA
HETATM    3  C1  UNK     1      20.662  -7.384  36.865  1.00  0.00     0.000 A 
HETATM    4  C2  UNK     1      19.843  -7.081  37.950  1.00  0.00     0.089 A 
HETATM    5  C3  UNK     1      22.006  -7.682  37.096  1.00  0.00     0.047 A 
HETATM    6  C4  UNK     1      22.510  -7.673  38.400  1.00  0.00     0.080 A 
HETATM    7  C5  UNK     1      20.331  -7.069  39.255  1.00  0.00     0.040 A 
HETATM    8  C6  UNK     1      21.673  -7.368  39.476  1.00  0.00     0.036 A 
HETATM    9  C7  UNK     1      20.087  -7.379  35.530  1.00  0.00     0.020 A 
HETATM   10  C8  UNK     1      18.795  -7.088  35.356  1.00  0.00     0.083 A 
HETATM   11  C9  UNK     1      17.909  -6.764  36.489  1.00  0.00     0.288 A 
ENDROOT
BRANCH   6  12
HETATM   12  N1  UNK     1      23.857  -7.973  38.629  1.00  0.00    -0.150 NA
HETATM   13  N2  UNK     1      24.379  -8.419  37.581  1.00  0.00    -0.150 NA
BRANCH  13  14
HETATM   14  C10 UNK     1      25.732  -8.722  37.809  1.00  0.00     0.079 A 
HETATM   15  C11 UNK     1      26.534  -9.143  36.752  1.00  0.00     0.035 A 
HETATM   16  C13 UNK     1      27.877  -9.444  36.980  1.00  0.00     0.026 A 
HETATM   17  C15 UNK     1      28.412  -9.322  38.263  1.00  0.00     0.034 A 
HETATM   18  C14 UNK     1      27.603  -8.900  39.318  1.00  0.00     0.026 A 
HETATM   19 Cl1  UNK     1      30.069  -9.693  38.543  1.00  0.00    -0.084 Cl
HETATM   20  C12 UNK     1      26.260  -8.599  39.091  1.00  0.00     0.035 A 
ENDBRANCH  13  14
ENDBRANCH   6  12
TORSDOF 2
ENDMDL
MODEL 10
REMARK VINA RESULT:      -7.8     16.087     19.721
REMARK  2 active torsions:
REMARK  status: ('A' for Active; 'I' for Inactive)
REMARK    1  A    between atoms: C4_9  and  N1_4 
REMARK    2  A    between atoms: C10_15  and  N2_5 
ROOT
HETATM    1  O1  UNK     1      18.614   0.076  32.309  1.00  0.00    -0.275 OA
HETATM    2  O2  UNK     1      18.652   0.916  30.178  1.00  0.00    -0.260 OA
HETATM    3  C1  UNK     1      20.074  -1.788  32.873  1.00  0.00     0.000 A 
HETATM    4  C2  UNK     1      19.104  -0.859  33.243  1.00  0.00     0.089 A 
HETATM    5  C3  UNK     1      20.536  -2.697  33.827  1.00  0.00     0.047 A 
HETATM    6  C4  UNK     1      20.025  -2.667  35.128  1.00  0.00     0.080 A 
HETATM    7  C5  UNK     1      18.586  -0.817  34.536  1.00  0.00     0.040 A 
HETATM    8  C6  UNK     1      19.051  -1.729  35.480  1.00  0.00     0.036 A 
HETATM    9  C7  UNK     1      20.572  -1.776  31.508  1.00  0.00     0.020 A 
HETATM   10  C8  UNK     1      20.101  -0.887  30.629  1.00  0.00     0.083 A 
HETATM   11  C9  UNK     1      19.074   0.106  30.997  1.00  0.00     0.288 A 
ENDROOT
BRANCH   6  12
HETATM   12  N1  UNK     1      20.488  -3.580  36.081  1.00  0.00    -0.150 NA
HETATM   13  N2  UNK     1      20.074  -4.730  35.806  1.00  0.00    -0.150 NA
BRANCH  13  14
HETATM   14  C10 UNK     1      20.539  -5.649  36.763  1.00  0.00     0.079 A 
HETATM   15  C11 UNK     1      21.386  -5.219  37.779  1.00  0.00     0.035 A 
HETATM   16  C13 UNK     1      21.848  -6.131  38.728  1.00  0.00     0.026 A 
HETATM   17  C15 UNK     1      21.460  -7.469  38.657  1.00  0.00     0.034 A 
HETATM   18  C14 UNK     1      20.610  -7.894  37.635  1.00  0.00     0.026 A 
HETATM   19 Cl1  UNK     1      22.029  -8.595  39.828  1.00  0.00    -0.084 Cl
HETATM   20  C12 UNK     1      20.148  -6.983  36.686  1.00  0.00     0.035 A 
ENDBRANCH  13  14
ENDBRANCH   6  12
TORSDOF 2
ENDMDL
