MODEL 1
REMARK VINA RESULT:      -8.2      0.000      0.000
REMARK  3 active torsions:
REMARK  status: ('A' for Active; 'I' for Inactive)
REMARK    1  A    between atoms: C11_16  and  O2_3 
REMARK    2  A    between atoms: C5_10  and  O2_3 
REMARK    3  A    between atoms: C11_16  and  C12_17 
ROOT
HETATM    1  O1  UNK     1      17.257   8.339  34.759  1.00  0.00    -0.275 OA
HETATM    2  O3  UNK     1      15.729   9.813  35.609  1.00  0.00    -0.260 OA
HETATM    3  C1  UNK     1      16.614   6.891  32.900  1.00  0.00     0.007 A 
HETATM    4  C2  UNK     1      15.278   7.503  32.918  1.00  0.00    -0.043 A 
HETATM    5  C3  UNK     1      17.563   7.331  33.824  1.00  0.00     0.090 A 
HETATM    6  C4  UNK     1      16.997   5.884  32.003  1.00  0.00     0.052 A 
HETATM    7  C5  UNK     1      18.288   5.346  32.042  1.00  0.00     0.080 A 
HETATM    8  C6  UNK     1      18.854   6.803  33.874  1.00  0.00     0.041 A 
HETATM    9  C7  UNK     1      19.215   5.804  32.975  1.00  0.00     0.040 A 
HETATM   10  C8  UNK     1      15.015   8.460  33.819  1.00  0.00     0.090 A 
HETATM   11  C9  UNK     1      14.234   7.052  31.938  1.00  0.00     0.049 C 
HETATM   12  C10 UNK     1      16.006   8.935  34.800  1.00  0.00     0.288 A 
ENDROOT
BRANCH   7  13
HETATM   13  O2  UNK     1      18.640   4.369  31.161  1.00  0.00    -0.275 OA
BRANCH  13  14
HETATM   14  C11 UNK     1      18.243   3.083  31.538  1.00  0.00     0.305 C 
HETATM   15  O4  UNK     1      17.726   2.783  32.604  1.00  0.00    -0.258 OA
BRANCH  14  16
HETATM   16  C12 UNK     1      18.521   2.098  30.463  1.00  0.00     0.080 A 
HETATM   17  S1  UNK     1      19.548   0.815  30.832  1.00  0.00    -0.096 SA
HETATM   18  C15 UNK     1      19.368   0.210  29.241  1.00  0.00     0.050 A 
HETATM   19  C14 UNK     1      18.536   0.998  28.479  1.00  0.00     0.009 A 
HETATM   20  C13 UNK     1      18.038   2.114  29.211  1.00  0.00     0.025 A 
ENDBRANCH  14  16
ENDBRANCH  13  14
ENDBRANCH   7  13
TORSDOF 3
ENDMDL
MODEL 2
REMARK VINA RESULT:      -8.1      5.840      7.522
REMARK  3 active torsions:
REMARK  status: ('A' for Active; 'I' for Inactive)
REMARK    1  A    between atoms: C11_16  and  O2_3 
REMARK    2  A    between atoms: C5_10  and  O2_3 
REMARK    3  A    between atoms: C11_16  and  C12_17 
ROOT
HETATM    1  O1  UNK     1      19.466  -2.060  36.707  1.00  0.00    -0.275 OA
HETATM    2  O3  UNK     1      18.578  -1.628  38.770  1.00  0.00    -0.260 OA
HETATM    3  C1  UNK     1      18.442  -1.055  34.731  1.00  0.00     0.007 A 
HETATM    4  C2  UNK     1      17.452  -0.408  35.604  1.00  0.00    -0.043 A 
HETATM    5  C3  UNK     1      19.420  -1.863  35.313  1.00  0.00     0.090 A 
HETATM    6  C4  UNK     1      18.465  -0.909  33.337  1.00  0.00     0.052 A 
HETATM    7  C5  UNK     1      19.438  -1.555  32.566  1.00  0.00     0.080 A 
HETATM    8  C6  UNK     1      20.397  -2.513  34.557  1.00  0.00     0.041 A 
HETATM    9  C7  UNK     1      20.402  -2.356  33.175  1.00  0.00     0.040 A 
HETATM   10  C8  UNK     1      17.520  -0.615  36.926  1.00  0.00     0.090 A 
HETATM   11  C9  UNK     1      16.387   0.466  35.009  1.00  0.00     0.049 C 
HETATM   12  C10 UNK     1      18.547  -1.464  37.556  1.00  0.00     0.288 A 
ENDROOT
BRANCH   7  13
HETATM   13  O2  UNK     1      19.442  -1.400  31.213  1.00  0.00    -0.275 OA
BRANCH  13  14
HETATM   14  C11 UNK     1      20.184  -0.306  30.762  1.00  0.00     0.305 C 
HETATM   15  O4  UNK     1      21.397  -0.185  30.847  1.00  0.00    -0.258 OA
BRANCH  14  16
HETATM   16  C12 UNK     1      19.306   0.718  30.140  1.00  0.00     0.080 A 
HETATM   17  S1  UNK     1      18.802   0.449  28.556  1.00  0.00    -0.096 SA
HETATM   18  C15 UNK     1      17.927   1.920  28.581  1.00  0.00     0.050 A 
HETATM   19  C14 UNK     1      18.044   2.570  29.789  1.00  0.00     0.009 A 
HETATM   20  C13 UNK     1      18.863   1.851  30.707  1.00  0.00     0.025 A 
ENDBRANCH  14  16
ENDBRANCH  13  14
ENDBRANCH   7  13
TORSDOF 3
ENDMDL
MODEL 3
REMARK VINA RESULT:      -7.9      1.916      2.492
REMARK  3 active torsions:
REMARK  status: ('A' for Active; 'I' for Inactive)
REMARK    1  A    between atoms: C11_16  and  O2_3 
REMARK    2  A    between atoms: C5_10  and  O2_3 
REMARK    3  A    between atoms: C11_16  and  C12_17 
ROOT
HETATM    1  O1  UNK     1      20.437   7.886  33.404  1.00  0.00    -0.275 OA
HETATM    2  O3  UNK     1      20.347   9.609  34.906  1.00  0.00    -0.260 OA
HETATM    3  C1  UNK     1      18.454   6.505  33.051  1.00  0.00     0.007 A 
HETATM    4  C2  UNK     1      17.738   7.322  34.041  1.00  0.00    -0.043 A 
HETATM    5  C3  UNK     1      19.784   6.815  32.763  1.00  0.00     0.090 A 
HETATM    6  C4  UNK     1      17.876   5.424  32.369  1.00  0.00     0.052 A 
HETATM    7  C5  UNK     1      18.617   4.689  31.437  1.00  0.00     0.080 A 
HETATM    8  C6  UNK     1      20.534   6.090  31.836  1.00  0.00     0.041 A 
HETATM    9  C7  UNK     1      19.943   5.021  31.171  1.00  0.00     0.040 A 
HETATM   10  C8  UNK     1      18.385   8.334  34.635  1.00  0.00     0.090 A 
HETATM   11  C9  UNK     1      16.307   7.014  34.372  1.00  0.00     0.049 C 
HETATM   12  C10 UNK     1      19.788   8.674  34.343  1.00  0.00     0.288 A 
ENDROOT
BRANCH   7  13
HETATM   13  O2  UNK     1      18.037   3.643  30.786  1.00  0.00    -0.275 OA
BRANCH  13  14
HETATM   14  C11 UNK     1      18.221   2.405  31.407  1.00  0.00     0.305 C 
HETATM   15  O4  UNK     1      17.902   2.130  32.554  1.00  0.00    -0.258 OA
BRANCH  14  16
HETATM   16  C12 UNK     1      18.856   1.430  30.484  1.00  0.00     0.080 A 
HETATM   17  S1  UNK     1      18.277   1.368  28.903  1.00  0.00    -0.096 SA
HETATM   18  C15 UNK     1      19.407   0.135  28.536  1.00  0.00     0.050 A 
HETATM   19  C14 UNK     1      20.188  -0.191  29.622  1.00  0.00     0.009 A 
HETATM   20  C13 UNK     1      19.855   0.581  30.772  1.00  0.00     0.025 A 
ENDBRANCH  14  16
ENDBRANCH  13  14
ENDBRANCH   7  13
TORSDOF 3
ENDMDL
MODEL 4
REMARK VINA RESULT:      -7.8      3.266      7.817
REMARK  3 active torsions:
REMARK  status: ('A' for Active; 'I' for Inactive)
REMARK    1  A    between atoms: C11_16  and  O2_3 
REMARK    2  A    between atoms: C5_10  and  O2_3 
REMARK    3  A    between atoms: C11_16  and  C12_17 
ROOT
HETATM    1  O1  UNK     1      19.778  -1.263  33.151  1.00  0.00    -0.275 OA
HETATM    2  O3  UNK     1      20.890  -3.223  32.755  1.00  0.00    -0.260 OA
HETATM    3  C1  UNK     1      19.433   0.306  31.312  1.00  0.00     0.007 A 
HETATM    4  C2  UNK     1      20.138  -0.623  30.419  1.00  0.00    -0.043 A 
HETATM    5  C3  UNK     1      19.275  -0.046  32.654  1.00  0.00     0.090 A 
HETATM    6  C4  UNK     1      18.902   1.535  30.895  1.00  0.00     0.052 A 
HETATM    7  C5  UNK     1      18.241   2.372  31.801  1.00  0.00     0.080 A 
HETATM    8  C6  UNK     1      18.617   0.779  33.568  1.00  0.00     0.041 A 
HETATM    9  C7  UNK     1      18.099   1.995  33.134  1.00  0.00     0.040 A 
HETATM   10  C8  UNK     1      20.607  -1.774  30.920  1.00  0.00     0.090 A 
HETATM   11  C9  UNK     1      20.325  -0.274  28.971  1.00  0.00     0.049 C 
HETATM   12  C10 UNK     1      20.448  -2.160  32.333  1.00  0.00     0.288 A 
ENDROOT
BRANCH   7  13
HETATM   13  O2  UNK     1      17.733   3.562  31.376  1.00  0.00    -0.275 OA
BRANCH  13  14
HETATM   14  C11 UNK     1      18.698   4.521  31.062  1.00  0.00     0.305 C 
HETATM   15  O4  UNK     1      19.339   4.572  30.022  1.00  0.00    -0.258 OA
BRANCH  14  16
HETATM   16  C12 UNK     1      18.855   5.506  32.162  1.00  0.00     0.080 A 
HETATM   17  S1  UNK     1      17.496   5.848  33.096  1.00  0.00    -0.096 SA
HETATM   18  C15 UNK     1      18.414   6.946  34.035  1.00  0.00     0.050 A 
HETATM   19  C14 UNK     1      19.722   7.020  33.611  1.00  0.00     0.009 A 
HETATM   20  C13 UNK     1      19.974   6.163  32.501  1.00  0.00     0.025 A 
ENDBRANCH  14  16
ENDBRANCH  13  14
ENDBRANCH   7  13
TORSDOF 3
ENDMDL
MODEL 5
REMARK VINA RESULT:      -7.7      9.965     14.018
REMARK  3 active torsions:
REMARK  status: ('A' for Active; 'I' for Inactive)
REMARK    1  A    between atoms: C11_16  and  O2_3 
REMARK    2  A    between atoms: C5_10  and  O2_3 
REMARK    3  A    between atoms: C11_16  and  C12_17 
ROOT
HETATM    1  O1  UNK     1      21.084  -8.996  34.812  1.00  0.00    -0.275 OA
HETATM    2  O3  UNK     1      22.253 -10.960  34.745  1.00  0.00    -0.260 OA
HETATM    3  C1  UNK     1      21.424  -7.467  36.687  1.00  0.00     0.007 A 
HETATM    4  C2  UNK     1      22.396  -8.413  37.250  1.00  0.00    -0.043 A 
HETATM    5  C3  UNK     1      20.797  -7.790  35.482  1.00  0.00     0.090 A 
HETATM    6  C4  UNK     1      21.084  -6.248  37.290  1.00  0.00     0.052 A 
HETATM    7  C5  UNK     1      20.148  -5.393  36.697  1.00  0.00     0.080 A 
HETATM    8  C6  UNK     1      19.862  -6.947  34.879  1.00  0.00     0.041 A 
HETATM    9  C7  UNK     1      19.539  -5.742  35.494  1.00  0.00     0.040 A 
HETATM   10  C8  UNK     1      22.648  -9.553  36.592  1.00  0.00     0.090 A 
HETATM   11  C9  UNK     1      23.087  -8.096  38.545  1.00  0.00     0.049 C 
HETATM   12  C10 UNK     1      21.996  -9.908  35.319  1.00  0.00     0.288 A 
ENDROOT
BRANCH   7  13
HETATM   13  O2  UNK     1      19.832  -4.213  37.299  1.00  0.00    -0.275 OA
BRANCH  13  14
HETATM   14  C11 UNK     1      20.198  -3.079  36.571  1.00  0.00     0.305 C 
HETATM   15  O4  UNK     1      21.237  -2.942  35.942  1.00  0.00    -0.258 OA
BRANCH  14  16
HETATM   16  C12 UNK     1      19.147  -2.033  36.641  1.00  0.00     0.080 A 
HETATM   17  S1  UNK     1      18.850  -1.137  35.246  1.00  0.00    -0.096 SA
HETATM   18  C15 UNK     1      17.640  -0.250  36.071  1.00  0.00     0.050 A 
HETATM   19  C14 UNK     1      17.498  -0.659  37.377  1.00  0.00     0.009 A 
HETATM   20  C13 UNK     1      18.395  -1.716  37.706  1.00  0.00     0.025 A 
ENDBRANCH  14  16
ENDBRANCH  13  14
ENDBRANCH   7  13
TORSDOF 3
ENDMDL
MODEL 6
REMARK VINA RESULT:      -7.6     10.482     13.915
REMARK  3 active torsions:
REMARK  status: ('A' for Active; 'I' for Inactive)
REMARK    1  A    between atoms: C11_16  and  O2_3 
REMARK    2  A    between atoms: C5_10  and  O2_3 
REMARK    3  A    between atoms: C11_16  and  C12_17 
ROOT
HETATM    1  O1  UNK     1      18.991  -9.030  37.442  1.00  0.00    -0.275 OA
HETATM    2  O3  UNK     1      19.321 -11.172  38.174  1.00  0.00    -0.260 OA
HETATM    3  C1  UNK     1      20.453  -7.252  38.257  1.00  0.00     0.007 A 
HETATM    4  C2  UNK     1      21.174  -8.247  39.063  1.00  0.00    -0.043 A 
HETATM    5  C3  UNK     1      19.381  -7.677  37.470  1.00  0.00     0.090 A 
HETATM    6  C4  UNK     1      20.778  -5.888  38.229  1.00  0.00     0.052 A 
HETATM    7  C5  UNK     1      20.048  -4.994  37.438  1.00  0.00     0.080 A 
HETATM    8  C6  UNK     1      18.644  -6.797  36.676  1.00  0.00     0.041 A 
HETATM    9  C7  UNK     1      18.983  -5.449  36.662  1.00  0.00     0.040 A 
HETATM   10  C8  UNK     1      20.779  -9.527  39.017  1.00  0.00     0.090 A 
HETATM   11  C9  UNK     1      22.330  -7.821  39.920  1.00  0.00     0.049 C 
HETATM   12  C10 UNK     1      19.651  -9.992  38.191  1.00  0.00     0.288 A 
ENDROOT
BRANCH   7  13
HETATM   13  O2  UNK     1      20.381  -3.674  37.425  1.00  0.00    -0.275 OA
BRANCH  13  14
HETATM   14  C11 UNK     1      20.076  -3.015  36.232  1.00  0.00     0.305 C 
HETATM   15  O4  UNK     1      20.558  -3.267  35.137  1.00  0.00    -0.258 OA
BRANCH  14  16
HETATM   16  C12 UNK     1      19.064  -1.951  36.449  1.00  0.00     0.080 A 
HETATM   17  S1  UNK     1      18.680  -0.966  35.137  1.00  0.00    -0.096 SA
HETATM   18  C15 UNK     1      17.566  -0.102  36.109  1.00  0.00     0.050 A 
HETATM   19  C14 UNK     1      17.519  -0.586  37.397  1.00  0.00     0.009 A 
HETATM   20  C13 UNK     1      18.410  -1.682  37.589  1.00  0.00     0.025 A 
ENDBRANCH  14  16
ENDBRANCH  13  14
ENDBRANCH   7  13
TORSDOF 3
ENDMDL
MODEL 7
REMARK VINA RESULT:      -7.6     14.649     19.546
REMARK  3 active torsions:
REMARK  status: ('A' for Active; 'I' for Inactive)
REMARK    1  A    between atoms: C11_16  and  O2_3 
REMARK    2  A    between atoms: C5_10  and  O2_3 
REMARK    3  A    between atoms: C11_16  and  C12_17 
ROOT
HETATM    1  O1  UNK     1      19.202  -3.757  12.205  1.00  0.00    -0.275 OA
HETATM    2  O3  UNK     1      19.197  -5.638  10.904  1.00  0.00    -0.260 OA
HETATM    3  C1  UNK     1      18.344  -3.883  14.488  1.00  0.00     0.007 A 
HETATM    4  C2  UNK     1      18.060  -5.309  14.277  1.00  0.00    -0.043 A 
HETATM    5  C3  UNK     1      18.908  -3.151  13.442  1.00  0.00     0.090 A 
HETATM    6  C4  UNK     1      18.083  -3.207  15.688  1.00  0.00     0.052 A 
HETATM    7  C5  UNK     1      18.379  -1.845  15.821  1.00  0.00     0.080 A 
HETATM    8  C6  UNK     1      19.209  -1.793  13.561  1.00  0.00     0.041 A 
HETATM    9  C7  UNK     1      18.942  -1.140  14.759  1.00  0.00     0.040 A 
HETATM   10  C8  UNK     1      18.350  -5.859  13.089  1.00  0.00     0.090 A 
HETATM   11  C9  UNK     1      17.454  -6.124  15.382  1.00  0.00     0.049 C 
HETATM   12  C10 UNK     1      18.945  -5.100  11.976  1.00  0.00     0.288 A 
ENDROOT
BRANCH   7  13
HETATM   13  O2  UNK     1      18.117  -1.207  16.995  1.00  0.00    -0.275 OA
BRANCH  13  14
HETATM   14  C11 UNK     1      19.253  -0.889  17.743  1.00  0.00     0.305 C 
HETATM   15  O4  UNK     1      20.271  -1.561  17.812  1.00  0.00    -0.258 OA
BRANCH  14  16
HETATM   16  C12 UNK     1      19.082   0.402  18.457  1.00  0.00     0.080 A 
HETATM   17  S1  UNK     1      18.934   0.347  20.134  1.00  0.00    -0.096 SA
HETATM   18  C15 UNK     1      18.790   2.052  20.180  1.00  0.00     0.050 A 
HETATM   19  C14 UNK     1      18.858   2.611  18.924  1.00  0.00     0.009 A 
HETATM   20  C13 UNK     1      19.031   1.626  17.909  1.00  0.00     0.025 A 
ENDBRANCH  14  16
ENDBRANCH  13  14
ENDBRANCH   7  13
TORSDOF 3
ENDMDL
MODEL 8
REMARK VINA RESULT:      -7.6      2.908      3.740
REMARK  3 active torsions:
REMARK  status: ('A' for Active; 'I' for Inactive)
REMARK    1  A    between atoms: C11_16  and  O2_3 
REMARK    2  A    between atoms: C5_10  and  O2_3 
REMARK    3  A    between atoms: C11_16  and  C12_17 
ROOT
HETATM    1  O1  UNK     1      19.695   6.767  31.981  1.00  0.00    -0.275 OA
HETATM    2  O3  UNK     1      20.292   8.102  33.740  1.00  0.00    -0.260 OA
HETATM    3  C1  UNK     1      18.680   4.591  32.424  1.00  0.00     0.007 A 
HETATM    4  C2  UNK     1      18.786   4.862  33.864  1.00  0.00    -0.043 A 
HETATM    5  C3  UNK     1      19.139   5.556  31.526  1.00  0.00     0.090 A 
HETATM    6  C4  UNK     1      18.139   3.412  31.891  1.00  0.00     0.052 A 
HETATM    7  C5  UNK     1      18.067   3.220  30.507  1.00  0.00     0.080 A 
HETATM    8  C6  UNK     1      19.074   5.378  30.143  1.00  0.00     0.041 A 
HETATM    9  C7  UNK     1      18.534   4.201  29.635  1.00  0.00     0.040 A 
HETATM   10  C8  UNK     1      19.321   6.023  34.268  1.00  0.00     0.090 A 
HETATM   11  C9  UNK     1      18.302   3.844  34.856  1.00  0.00     0.049 C 
HETATM   12  C10 UNK     1      19.810   7.051  33.333  1.00  0.00     0.288 A 
ENDROOT
BRANCH   7  13
HETATM   13  O2  UNK     1      17.538   2.068  30.010  1.00  0.00    -0.275 OA
BRANCH  13  14
HETATM   14  C11 UNK     1      18.219   1.552  28.905  1.00  0.00     0.305 C 
HETATM   15  O4  UNK     1      18.067   1.909  27.746  1.00  0.00    -0.258 OA
BRANCH  14  16
HETATM   16  C12 UNK     1      19.181   0.497  29.311  1.00  0.00     0.080 A 
HETATM   17  S1  UNK     1      19.508   0.337  30.956  1.00  0.00    -0.096 SA
HETATM   18  C15 UNK     1      20.586  -0.949  30.620  1.00  0.00     0.050 A 
HETATM   19  C14 UNK     1      20.666  -1.218  29.272  1.00  0.00     0.009 A 
HETATM   20  C13 UNK     1      19.830  -0.356  28.505  1.00  0.00     0.025 A 
ENDBRANCH  14  16
ENDBRANCH  13  14
ENDBRANCH   7  13
TORSDOF 3
ENDMDL
MODEL 9
REMARK VINA RESULT:      -7.5     16.577     18.731
REMARK  3 active torsions:
REMARK  status: ('A' for Active; 'I' for Inactive)
REMARK    1  A    between atoms: C11_16  and  O2_3 
REMARK    2  A    between atoms: C5_10  and  O2_3 
REMARK    3  A    between atoms: C11_16  and  C12_17 
ROOT
HETATM    1  O1  UNK     1      32.457  -4.168  36.539  1.00  0.00    -0.275 OA
HETATM    2  O3  UNK     1      34.434  -4.556  35.457  1.00  0.00    -0.260 OA
HETATM    3  C1  UNK     1      31.376  -5.997  37.743  1.00  0.00     0.007 A 
HETATM    4  C2  UNK     1      32.478  -6.882  37.340  1.00  0.00    -0.043 A 
HETATM    5  C3  UNK     1      31.401  -4.665  37.329  1.00  0.00     0.090 A 
HETATM    6  C4  UNK     1      30.290  -6.414  38.527  1.00  0.00     0.052 A 
HETATM    7  C5  UNK     1      29.274  -5.517  38.875  1.00  0.00     0.080 A 
HETATM    8  C6  UNK     1      30.394  -3.759  37.668  1.00  0.00     0.041 A 
HETATM    9  C7  UNK     1      29.326  -4.192  38.446  1.00  0.00     0.040 A 
HETATM   10  C8  UNK     1      33.468  -6.381  36.588  1.00  0.00     0.090 A 
HETATM   11  C9  UNK     1      32.480  -8.320  37.769  1.00  0.00     0.049 C 
HETATM   12  C10 UNK     1      33.510  -4.978  36.143  1.00  0.00     0.288 A 
ENDROOT
BRANCH   7  13
HETATM   13  O2  UNK     1      28.229  -5.942  39.637  1.00  0.00    -0.275 OA
BRANCH  13  14
HETATM   14  C11 UNK     1      27.131  -6.400  38.905  1.00  0.00     0.305 C 
HETATM   15  O4  UNK     1      26.274  -5.696  38.393  1.00  0.00    -0.258 OA
BRANCH  14  16
HETATM   16  C12 UNK     1      27.129  -7.882  38.810  1.00  0.00     0.080 A 
HETATM   17  S1  UNK     1      26.580  -8.566  37.371  1.00  0.00    -0.096 SA
HETATM   18  C15 UNK     1      26.867 -10.131  38.003  1.00  0.00     0.050 A 
HETATM   19  C14 UNK     1      27.370 -10.087  39.284  1.00  0.00     0.009 A 
HETATM   20  C13 UNK     1      27.522  -8.751  39.753  1.00  0.00     0.025 A 
ENDBRANCH  14  16
ENDBRANCH  13  14
ENDBRANCH   7  13
TORSDOF 3
ENDMDL
MODEL 10
REMARK VINA RESULT:      -7.5      3.043      7.300
REMARK  3 active torsions:
REMARK  status: ('A' for Active; 'I' for Inactive)
REMARK    1  A    between atoms: C11_16  and  O2_3 
REMARK    2  A    between atoms: C5_10  and  O2_3 
REMARK    3  A    between atoms: C11_16  and  C12_17 
ROOT
HETATM    1  O1  UNK     1      18.743   3.778  29.568  1.00  0.00    -0.275 OA
HETATM    2  O3  UNK     1      18.711   1.713  28.586  1.00  0.00    -0.260 OA
HETATM    3  C1  UNK     1      18.472   3.953  31.989  1.00  0.00     0.007 A 
HETATM    4  C2  UNK     1      18.359   2.490  32.058  1.00  0.00    -0.043 A 
HETATM    5  C3  UNK     1      18.661   4.552  30.742  1.00  0.00     0.090 A 
HETATM    6  C4  UNK     1      18.401   4.793  33.109  1.00  0.00     0.052 A 
HETATM    7  C5  UNK     1      18.517   6.181  32.972  1.00  0.00     0.080 A 
HETATM    8  C6  UNK     1      18.778   5.935  30.590  1.00  0.00     0.041 A 
HETATM    9  C7  UNK     1      18.705   6.750  31.714  1.00  0.00     0.040 A 
HETATM   10  C8  UNK     1      18.440   1.780  30.924  1.00  0.00     0.090 A 
HETATM   11  C9  UNK     1      18.154   1.816  33.383  1.00  0.00     0.049 C 
HETATM   12  C10 UNK     1      18.640   2.396  29.601  1.00  0.00     0.288 A 
ENDROOT
BRANCH   7  13
HETATM   13  O2  UNK     1      18.446   6.979  34.073  1.00  0.00    -0.275 OA
BRANCH  13  14
HETATM   14  C11 UNK     1      17.252   7.696  34.188  1.00  0.00     0.305 C 
HETATM   15  O4  UNK     1      16.140   7.208  34.319  1.00  0.00    -0.258 OA
BRANCH  14  16
HETATM   16  C12 UNK     1      17.498   9.159  34.143  1.00  0.00     0.080 A 
HETATM   17  S1  UNK     1      16.163  10.175  34.295  1.00  0.00    -0.096 SA
HETATM   18  C15 UNK     1      17.184  11.542  34.157  1.00  0.00     0.050 A 
HETATM   19  C14 UNK     1      18.505  11.187  33.999  1.00  0.00     0.009 A 
HETATM   20  C13 UNK     1      18.682   9.773  33.992  1.00  0.00     0.025 A 
ENDBRANCH  14  16
ENDBRANCH  13  14
ENDBRANCH   7  13
TORSDOF 3
ENDMDL
