MODEL 1
REMARK VINA RESULT:      -9.0      0.000      0.000
REMARK  7 active torsions:
REMARK  status: ('A' for Active; 'I' for Inactive)
REMARK    1  A    between atoms: C5_12  and  O1_1 
REMARK    2  A    between atoms: C9_16  and  O1_1 
REMARK    3  A    between atoms: C1_8  and  N1_6 
REMARK    4  A    between atoms: C3_10  and  N1_6 
REMARK    5  A    between atoms: C6_13  and  N2_7 
REMARK    6  A    between atoms: C3_10  and  C5_12 
REMARK    7  A    between atoms: C12_19  and  C8_15 
ROOT
HETATM    1  O2  UNK     1      18.769   1.370  31.374  1.00  0.00    -0.273 OA
HETATM    2  O3  UNK     1      17.823   2.423  33.163  1.00  0.00    -0.257 OA
HETATM    3  C1  UNK     1      19.093  -0.960  33.014  1.00  0.00     0.081 A 
HETATM    4  C2  UNK     1      19.546  -0.945  31.599  1.00  0.00     0.027 A 
HETATM    5  C4  UNK     1      19.366   0.213  30.835  1.00  0.00     0.092 A 
HETATM    6  C6  UNK     1      18.536   0.179  33.458  1.00  0.00     0.205 A 
HETATM    7  C7  UNK     1      20.158  -2.036  30.957  1.00  0.00     0.017 A 
HETATM    8  C10 UNK     1      18.337   1.416  32.688  1.00  0.00     0.324 A 
HETATM    9  C11 UNK     1      19.765   0.305  29.498  1.00  0.00     0.038 A 
HETATM   10  C13 UNK     1      20.563  -1.958  29.617  1.00  0.00     0.001 A 
HETATM   11  C14 UNK     1      20.366  -0.789  28.888  1.00  0.00     0.003 A 
ENDROOT
BRANCH   3  12
HETATM   12  N1  UNK     1      19.274  -2.110  33.738  1.00  0.00    -0.385 N 
HETATM   13  H3  UNK     1      18.635  -2.883  33.598  1.00  0.00     0.159 HD
BRANCH  12  14
HETATM   14  C3  UNK     1      20.431  -2.351  34.554  1.00  0.00     0.146 C 
BRANCH  14  15
HETATM   15  C5  UNK     1      20.004  -2.797  35.942  1.00  0.00     0.195 C 
BRANCH  15  16
HETATM   16  O1  UNK     1      21.014  -3.623  36.507  1.00  0.00    -0.350 OA
BRANCH  16  17
HETATM   17  C9  UNK     1      20.602  -4.798  37.079  1.00  0.00     0.068 A 
HETATM   18  C17 UNK     1      19.415  -5.389  36.658  1.00  0.00     0.037 A 
HETATM   19  C15 UNK     1      18.994  -6.584  37.240  1.00  0.00     0.010 A 
HETATM   20  C8  UNK     1      19.763  -7.181  38.240  1.00  0.00    -0.058 A 
HETATM   21  C16 UNK     1      20.951  -6.583  38.658  1.00  0.00     0.010 A 
HETATM   22  C18 UNK     1      21.372  -5.387  38.075  1.00  0.00     0.037 A 
BRANCH  20  23
HETATM   23  C12 UNK     1      19.314  -8.459  38.863  1.00  0.00     0.034 C 
HETATM   24  C19 UNK     1      19.075  -9.557  37.830  1.00  0.00     0.010 C 
ENDBRANCH  20  23
ENDBRANCH  16  17
ENDBRANCH  15  16
ENDBRANCH  14  15
ENDBRANCH  12  14
ENDBRANCH   3  12
BRANCH   6  25
HETATM   25  N2  UNK     1      18.089   0.205  34.814  1.00  0.00    -0.107 N 
HETATM   26  O4  UNK     1      16.933  -0.174  35.032  1.00  0.00    -0.531 OA
HETATM   27  O5  UNK     1      18.893   0.605  35.663  1.00  0.00    -0.531 OA
ENDBRANCH   6  25
TORSDOF 7
ENDMDL
MODEL 2
REMARK VINA RESULT:      -8.8      4.816      9.469
REMARK  7 active torsions:
REMARK  status: ('A' for Active; 'I' for Inactive)
REMARK    1  A    between atoms: C5_12  and  O1_1 
REMARK    2  A    between atoms: C9_16  and  O1_1 
REMARK    3  A    between atoms: C1_8  and  N1_6 
REMARK    4  A    between atoms: C3_10  and  N1_6 
REMARK    5  A    between atoms: C6_13  and  N2_7 
REMARK    6  A    between atoms: C3_10  and  C5_12 
REMARK    7  A    between atoms: C12_19  and  C8_15 
ROOT
HETATM    1  O2  UNK     1      19.513  -1.864  32.146  1.00  0.00    -0.273 OA
HETATM    2  O3  UNK     1      20.417  -2.891  30.320  1.00  0.00    -0.257 OA
HETATM    3  C1  UNK     1      19.454   0.579  30.646  1.00  0.00     0.081 A 
HETATM    4  C2  UNK     1      18.974   0.527  32.052  1.00  0.00     0.027 A 
HETATM    5  C4  UNK     1      19.020  -0.687  32.745  1.00  0.00     0.092 A 
HETATM    6  C6  UNK     1      19.912  -0.579  30.144  1.00  0.00     0.205 A 
HETATM    7  C7  UNK     1      18.468   1.635  32.753  1.00  0.00     0.017 A 
HETATM    8  C10 UNK     1      19.981  -1.871  30.843  1.00  0.00     0.324 A 
HETATM    9  C11 UNK     1      18.588  -0.818  34.068  1.00  0.00     0.038 A 
HETATM   10  C13 UNK     1      18.031   1.519  34.080  1.00  0.00     0.001 A 
HETATM   11  C14 UNK     1      18.091   0.293  34.737  1.00  0.00     0.003 A 
ENDROOT
BRANCH   3  12
HETATM   12  N1  UNK     1      19.391   1.780  29.987  1.00  0.00    -0.385 N 
HETATM   13  H3  UNK     1      20.246   2.301  29.835  1.00  0.00     0.159 HD
BRANCH  12  14
HETATM   14  C3  UNK     1      18.203   2.259  29.336  1.00  0.00     0.146 C 
BRANCH  14  15
HETATM   15  C5  UNK     1      17.954   3.709  29.711  1.00  0.00     0.195 C 
BRANCH  15  16
HETATM   16  O1  UNK     1      19.182   4.322  30.082  1.00  0.00    -0.350 OA
BRANCH  16  17
HETATM   17  C9  UNK     1      19.166   5.108  31.204  1.00  0.00     0.068 A 
HETATM   18  C17 UNK     1      18.017   5.168  31.984  1.00  0.00     0.037 A 
HETATM   19  C15 UNK     1      18.000   5.970  33.126  1.00  0.00     0.010 A 
HETATM   20  C8  UNK     1      19.131   6.705  33.479  1.00  0.00    -0.058 A 
HETATM   21  C16 UNK     1      20.280   6.641  32.691  1.00  0.00     0.010 A 
HETATM   22  C18 UNK     1      20.297   5.839  31.549  1.00  0.00     0.037 A 
BRANCH  20  23
HETATM   23  C12 UNK     1      19.113   7.562  34.699  1.00  0.00     0.034 C 
HETATM   24  C19 UNK     1      19.942   8.832  34.530  1.00  0.00     0.010 C 
ENDBRANCH  20  23
ENDBRANCH  16  17
ENDBRANCH  15  16
ENDBRANCH  14  15
ENDBRANCH  12  14
ENDBRANCH   3  12
BRANCH   6  25
HETATM   25  N2  UNK     1      20.383  -0.569  28.795  1.00  0.00    -0.107 N 
HETATM   26  O4  UNK     1      21.601  -0.448  28.626  1.00  0.00    -0.531 OA
HETATM   27  O5  UNK     1      19.534  -0.682  27.904  1.00  0.00    -0.531 OA
ENDBRANCH   6  25
TORSDOF 7
ENDMDL
MODEL 3
REMARK VINA RESULT:      -8.6     11.136     13.227
REMARK  7 active torsions:
REMARK  status: ('A' for Active; 'I' for Inactive)
REMARK    1  A    between atoms: C5_12  and  O1_1 
REMARK    2  A    between atoms: C9_16  and  O1_1 
REMARK    3  A    between atoms: C1_8  and  N1_6 
REMARK    4  A    between atoms: C3_10  and  N1_6 
REMARK    5  A    between atoms: C6_13  and  N2_7 
REMARK    6  A    between atoms: C3_10  and  C5_12 
REMARK    7  A    between atoms: C12_19  and  C8_15 
ROOT
HETATM    1  O2  UNK     1      30.780  -3.883  38.046  1.00  0.00    -0.273 OA
HETATM    2  O3  UNK     1      29.502  -3.867  39.937  1.00  0.00    -0.257 OA
HETATM    3  C1  UNK     1      29.164  -6.039  37.065  1.00  0.00     0.081 A 
HETATM    4  C2  UNK     1      30.297  -5.501  36.268  1.00  0.00     0.027 A 
HETATM    5  C4  UNK     1      31.057  -4.448  36.785  1.00  0.00     0.092 A 
HETATM    6  C6  UNK     1      28.961  -5.454  38.257  1.00  0.00     0.205 A 
HETATM    7  C7  UNK     1      30.669  -5.987  35.003  1.00  0.00     0.017 A 
HETATM    8  C10 UNK     1      29.743  -4.350  38.835  1.00  0.00     0.324 A 
HETATM    9  C11 UNK     1      32.138  -3.887  36.097  1.00  0.00     0.038 A 
HETATM   10  C13 UNK     1      31.750  -5.436  34.301  1.00  0.00     0.001 A 
HETATM   11  C14 UNK     1      32.483  -4.387  34.847  1.00  0.00     0.003 A 
ENDROOT
BRANCH   3  12
HETATM   12  N1  UNK     1      28.429  -7.066  36.532  1.00  0.00    -0.385 N 
HETATM   13  H3  UNK     1      27.519  -6.865  36.137  1.00  0.00     0.159 HD
BRANCH  12  14
HETATM   14  C3  UNK     1      28.955  -8.389  36.334  1.00  0.00     0.146 C 
BRANCH  14  15
HETATM   15  C5  UNK     1      29.488  -8.937  37.647  1.00  0.00     0.195 C 
BRANCH  15  16
HETATM   16  O1  UNK     1      30.721  -9.607  37.415  1.00  0.00    -0.350 OA
BRANCH  16  17
HETATM   17  C9  UNK     1      31.816  -8.820  37.173  1.00  0.00     0.068 A 
HETATM   18  C17 UNK     1      32.223  -7.897  38.130  1.00  0.00     0.037 A 
HETATM   19  C15 UNK     1      33.338  -7.095  37.884  1.00  0.00     0.010 A 
HETATM   20  C8  UNK     1      34.036  -7.220  36.684  1.00  0.00    -0.058 A 
HETATM   21  C16 UNK     1      33.621  -8.147  35.728  1.00  0.00     0.010 A 
HETATM   22  C18 UNK     1      32.507  -8.950  35.974  1.00  0.00     0.037 A 
BRANCH  20  23
HETATM   23  C12 UNK     1      35.227  -6.362  36.421  1.00  0.00     0.034 C 
HETATM   24  C19 UNK     1      35.616  -6.345  34.945  1.00  0.00     0.010 C 
ENDBRANCH  20  23
ENDBRANCH  16  17
ENDBRANCH  15  16
ENDBRANCH  14  15
ENDBRANCH  12  14
ENDBRANCH   3  12
BRANCH   6  25
HETATM   25  N2  UNK     1      27.882  -5.943  39.054  1.00  0.00    -0.107 N 
HETATM   26  O4  UNK     1      28.127  -6.885  39.815  1.00  0.00    -0.531 OA
HETATM   27  O5  UNK     1      26.787  -5.386  38.918  1.00  0.00    -0.531 OA
ENDBRANCH   6  25
TORSDOF 7
ENDMDL
MODEL 4
REMARK VINA RESULT:      -8.6      4.376      9.452
REMARK  7 active torsions:
REMARK  status: ('A' for Active; 'I' for Inactive)
REMARK    1  A    between atoms: C5_12  and  O1_1 
REMARK    2  A    between atoms: C9_16  and  O1_1 
REMARK    3  A    between atoms: C1_8  and  N1_6 
REMARK    4  A    between atoms: C3_10  and  N1_6 
REMARK    5  A    between atoms: C6_13  and  N2_7 
REMARK    6  A    between atoms: C3_10  and  C5_12 
REMARK    7  A    between atoms: C12_19  and  C8_15 
ROOT
HETATM    1  O2  UNK     1      19.631  -1.635  32.901  1.00  0.00    -0.273 OA
HETATM    2  O3  UNK     1      18.730  -1.374  34.982  1.00  0.00    -0.257 OA
HETATM    3  C1  UNK     1      18.503   0.901  32.180  1.00  0.00     0.081 A 
HETATM    4  C2  UNK     1      19.285   0.101  31.203  1.00  0.00     0.027 A 
HETATM    5  C4  UNK     1      19.819  -1.130  31.599  1.00  0.00     0.092 A 
HETATM    6  C6  UNK     1      18.362   0.355  33.400  1.00  0.00     0.205 A 
HETATM    7  C7  UNK     1      19.533   0.499  29.879  1.00  0.00     0.017 A 
HETATM    8  C10 UNK     1      18.903  -0.936  33.849  1.00  0.00     0.324 A 
HETATM    9  C11 UNK     1      20.567  -1.940  30.739  1.00  0.00     0.038 A 
HETATM   10  C13 UNK     1      20.281  -0.302  29.005  1.00  0.00     0.001 A 
HETATM   11  C14 UNK     1      20.798  -1.521  29.435  1.00  0.00     0.003 A 
ENDROOT
BRANCH   3  12
HETATM   12  N1  UNK     1      17.997   2.107  31.769  1.00  0.00    -0.385 N 
HETATM   13  H3  UNK     1      17.044   2.149  31.428  1.00  0.00     0.159 HD
BRANCH  12  14
HETATM   14  C3  UNK     1      18.681   3.355  31.965  1.00  0.00     0.146 C 
BRANCH  14  15
HETATM   15  C5  UNK     1      18.859   4.065  30.634  1.00  0.00     0.195 C 
BRANCH  15  16
HETATM   16  O1  UNK     1      19.740   5.169  30.800  1.00  0.00    -0.350 OA
BRANCH  16  17
HETATM   17  C9  UNK     1      19.350   6.144  31.680  1.00  0.00     0.068 A 
HETATM   18  C17 UNK     1      20.204   6.521  32.710  1.00  0.00     0.037 A 
HETATM   19  C15 UNK     1      19.807   7.513  33.607  1.00  0.00     0.010 A 
HETATM   20  C8  UNK     1      18.559   8.121  33.467  1.00  0.00    -0.058 A 
HETATM   21  C16 UNK     1      17.708   7.737  32.432  1.00  0.00     0.010 A 
HETATM   22  C18 UNK     1      18.105   6.745  31.535  1.00  0.00     0.037 A 
BRANCH  20  23
HETATM   23  C12 UNK     1      18.135   9.182  34.425  1.00  0.00     0.034 C 
HETATM   24  C19 UNK     1      18.399  10.587  33.891  1.00  0.00     0.010 C 
ENDBRANCH  20  23
ENDBRANCH  16  17
ENDBRANCH  15  16
ENDBRANCH  14  15
ENDBRANCH  12  14
ENDBRANCH   3  12
BRANCH   6  25
HETATM   25  N2  UNK     1      17.615   1.094  34.367  1.00  0.00    -0.107 N 
HETATM   26  O4  UNK     1      18.247   1.867  35.095  1.00  0.00    -0.531 OA
HETATM   27  O5  UNK     1      16.394   0.902  34.399  1.00  0.00    -0.531 OA
ENDBRANCH   6  25
TORSDOF 7
ENDMDL
MODEL 5
REMARK VINA RESULT:      -8.4      3.905      9.182
REMARK  7 active torsions:
REMARK  status: ('A' for Active; 'I' for Inactive)
REMARK    1  A    between atoms: C5_12  and  O1_1 
REMARK    2  A    between atoms: C9_16  and  O1_1 
REMARK    3  A    between atoms: C1_8  and  N1_6 
REMARK    4  A    between atoms: C3_10  and  N1_6 
REMARK    5  A    between atoms: C6_13  and  N2_7 
REMARK    6  A    between atoms: C3_10  and  C5_12 
REMARK    7  A    between atoms: C12_19  and  C8_15 
ROOT
HETATM    1  O2  UNK     1      19.538  -2.205  35.110  1.00  0.00    -0.273 OA
HETATM    2  O3  UNK     1      20.947  -3.285  33.676  1.00  0.00    -0.257 OA
HETATM    3  C1  UNK     1      18.804  -0.463  32.954  1.00  0.00     0.081 A 
HETATM    4  C2  UNK     1      18.215  -0.302  34.308  1.00  0.00     0.027 A 
HETATM    5  C4  UNK     1      18.600  -1.176  35.330  1.00  0.00     0.092 A 
HETATM    6  C6  UNK     1      19.692  -1.462  32.820  1.00  0.00     0.205 A 
HETATM    7  C7  UNK     1      17.278   0.689  34.646  1.00  0.00     0.017 A 
HETATM    8  C10 UNK     1      20.125  -2.395  33.871  1.00  0.00     0.324 A 
HETATM    9  C11 UNK     1      18.092  -1.090  36.629  1.00  0.00     0.038 A 
HETATM   10  C13 UNK     1      16.759   0.788  35.944  1.00  0.00     0.001 A 
HETATM   11  C14 UNK     1      17.165  -0.101  36.935  1.00  0.00     0.003 A 
ENDROOT
BRANCH   3  12
HETATM   12  N1  UNK     1      18.404   0.402  31.968  1.00  0.00    -0.385 N 
HETATM   13  H3  UNK     1      17.416   0.491  31.765  1.00  0.00     0.159 HD
BRANCH  12  14
HETATM   14  C3  UNK     1      19.293   1.331  31.328  1.00  0.00     0.146 C 
BRANCH  14  15
HETATM   15  C5  UNK     1      18.515   2.226  30.379  1.00  0.00     0.195 C 
BRANCH  15  16
HETATM   16  O1  UNK     1      17.641   3.063  31.127  1.00  0.00    -0.350 OA
BRANCH  16  17
HETATM   17  C9  UNK     1      18.198   4.167  31.717  1.00  0.00     0.068 A 
HETATM   18  C17 UNK     1      17.985   4.402  33.071  1.00  0.00     0.037 A 
HETATM   19  C15 UNK     1      18.551   5.527  33.673  1.00  0.00     0.010 A 
HETATM   20  C8  UNK     1      19.324   6.408  32.917  1.00  0.00    -0.058 A 
HETATM   21  C16 UNK     1      19.532   6.165  31.559  1.00  0.00     0.010 A 
HETATM   22  C18 UNK     1      18.967   5.041  30.958  1.00  0.00     0.037 A 
BRANCH  20  23
HETATM   23  C12 UNK     1      19.929   7.609  33.560  1.00  0.00     0.034 C 
HETATM   24  C19 UNK     1      19.346   7.885  34.943  1.00  0.00     0.010 C 
ENDBRANCH  20  23
ENDBRANCH  16  17
ENDBRANCH  15  16
ENDBRANCH  14  15
ENDBRANCH  12  14
ENDBRANCH   3  12
BRANCH   6  25
HETATM   25  N2  UNK     1      20.282  -1.649  31.532  1.00  0.00    -0.107 N 
HETATM   26  O4  UNK     1      21.352  -1.071  31.316  1.00  0.00    -0.531 OA
HETATM   27  O5  UNK     1      19.674  -2.374  30.737  1.00  0.00    -0.531 OA
ENDBRANCH   6  25
TORSDOF 7
ENDMDL
MODEL 6
REMARK VINA RESULT:      -8.2      2.549      4.475
REMARK  7 active torsions:
REMARK  status: ('A' for Active; 'I' for Inactive)
REMARK    1  A    between atoms: C5_12  and  O1_1 
REMARK    2  A    between atoms: C9_16  and  O1_1 
REMARK    3  A    between atoms: C1_8  and  N1_6 
REMARK    4  A    between atoms: C3_10  and  N1_6 
REMARK    5  A    between atoms: C6_13  and  N2_7 
REMARK    6  A    between atoms: C3_10  and  C5_12 
REMARK    7  A    between atoms: C12_19  and  C8_15 
ROOT
HETATM    1  O2  UNK     1      17.751  -0.575  33.430  1.00  0.00    -0.273 OA
HETATM    2  O3  UNK     1      19.049  -1.548  31.826  1.00  0.00    -0.257 OA
HETATM    3  C1  UNK     1      19.497  -1.694  35.411  1.00  0.00     0.081 A 
HETATM    4  C2  UNK     1      18.320  -0.873  35.797  1.00  0.00     0.027 A 
HETATM    5  C4  UNK     1      17.496  -0.346  34.798  1.00  0.00     0.092 A 
HETATM    6  C6  UNK     1      19.674  -1.872  34.091  1.00  0.00     0.205 A 
HETATM    7  C7  UNK     1      17.965  -0.583  37.126  1.00  0.00     0.017 A 
HETATM    8  C10 UNK     1      18.828  -1.339  33.014  1.00  0.00     0.324 A 
HETATM    9  C11 UNK     1      16.372   0.436  35.080  1.00  0.00     0.038 A 
HETATM   10  C13 UNK     1      16.840   0.199  37.424  1.00  0.00     0.001 A 
HETATM   11  C14 UNK     1      16.045   0.708  36.402  1.00  0.00     0.003 A 
ENDROOT
BRANCH   3  12
HETATM   12  N1  UNK     1      20.292  -2.192  36.411  1.00  0.00    -0.385 N 
HETATM   13  H3  UNK     1      21.163  -1.721  36.625  1.00  0.00     0.159 HD
BRANCH  12  14
HETATM   14  C3  UNK     1      19.875  -3.242  37.298  1.00  0.00     0.146 C 
BRANCH  14  15
HETATM   15  C5  UNK     1      20.531  -4.552  36.899  1.00  0.00     0.195 C 
BRANCH  15  16
HETATM   16  O1  UNK     1      19.529  -5.496  36.544  1.00  0.00    -0.350 OA
BRANCH  16  17
HETATM   17  C9  UNK     1      19.911  -6.811  36.489  1.00  0.00     0.068 A 
HETATM   18  C17 UNK     1      19.561  -7.672  37.524  1.00  0.00     0.037 A 
HETATM   19  C15 UNK     1      19.951  -9.010  37.470  1.00  0.00     0.010 A 
HETATM   20  C8  UNK     1      20.687  -9.479  36.381  1.00  0.00    -0.058 A 
HETATM   21  C16 UNK     1      21.034  -8.609  35.347  1.00  0.00     0.010 A 
HETATM   22  C18 UNK     1      20.645  -7.271  35.402  1.00  0.00     0.037 A 
BRANCH  20  23
HETATM   23  C12 UNK     1      21.103 -10.909  36.322  1.00  0.00     0.034 C 
HETATM   24  C19 UNK     1      22.388 -11.108  35.524  1.00  0.00     0.010 C 
ENDBRANCH  20  23
ENDBRANCH  16  17
ENDBRANCH  15  16
ENDBRANCH  14  15
ENDBRANCH  12  14
ENDBRANCH   3  12
BRANCH   6  25
HETATM   25  N2  UNK     1      20.795  -2.656  33.680  1.00  0.00    -0.107 N 
HETATM   26  O4  UNK     1      21.846  -2.053  33.443  1.00  0.00    -0.531 OA
HETATM   27  O5  UNK     1      20.624  -3.878  33.595  1.00  0.00    -0.531 OA
ENDBRANCH   6  25
TORSDOF 7
ENDMDL
MODEL 7
REMARK VINA RESULT:      -8.0      4.345      9.566
REMARK  7 active torsions:
REMARK  status: ('A' for Active; 'I' for Inactive)
REMARK    1  A    between atoms: C5_12  and  O1_1 
REMARK    2  A    between atoms: C9_16  and  O1_1 
REMARK    3  A    between atoms: C1_8  and  N1_6 
REMARK    4  A    between atoms: C3_10  and  N1_6 
REMARK    5  A    between atoms: C6_13  and  N2_7 
REMARK    6  A    between atoms: C3_10  and  C5_12 
REMARK    7  A    between atoms: C12_19  and  C8_15 
ROOT
HETATM    1  O2  UNK     1      19.615  -1.584  32.842  1.00  0.00    -0.273 OA
HETATM    2  O3  UNK     1      18.743  -1.550  34.950  1.00  0.00    -0.257 OA
HETATM    3  C1  UNK     1      18.432   0.989  32.394  1.00  0.00     0.081 A 
HETATM    4  C2  UNK     1      19.213   0.305  31.331  1.00  0.00     0.027 A 
HETATM    5  C4  UNK     1      19.774  -0.948  31.594  1.00  0.00     0.092 A 
HETATM    6  C6  UNK     1      18.320   0.322  33.555  1.00  0.00     0.205 A 
HETATM    7  C7  UNK     1      19.433   0.839  30.049  1.00  0.00     0.017 A 
HETATM    8  C10 UNK     1      18.890  -0.998  33.865  1.00  0.00     0.324 A 
HETATM    9  C11 UNK     1      20.522  -1.655  30.647  1.00  0.00     0.038 A 
HETATM   10  C13 UNK     1      20.180   0.142  29.089  1.00  0.00     0.001 A 
HETATM   11  C14 UNK     1      20.725  -1.103  29.388  1.00  0.00     0.003 A 
ENDROOT
BRANCH   3  12
HETATM   12  N1  UNK     1      17.898   2.220  32.112  1.00  0.00    -0.385 N 
HETATM   13  H3  UNK     1      17.091   2.277  31.504  1.00  0.00     0.159 HD
BRANCH  12  14
HETATM   14  C3  UNK     1      18.307   3.425  32.779  1.00  0.00     0.146 C 
BRANCH  14  15
HETATM   15  C5  UNK     1      18.368   4.574  31.786  1.00  0.00     0.195 C 
BRANCH  15  16
HETATM   16  O1  UNK     1      18.705   5.774  32.470  1.00  0.00    -0.350 OA
BRANCH  16  17
HETATM   17  C9  UNK     1      17.663   6.544  32.917  1.00  0.00     0.068 A 
HETATM   18  C17 UNK     1      17.672   7.020  34.223  1.00  0.00     0.037 A 
HETATM   19  C15 UNK     1      16.611   7.803  34.679  1.00  0.00     0.010 A 
HETATM   20  C8  UNK     1      15.550   8.104  33.827  1.00  0.00    -0.058 A 
HETATM   21  C16 UNK     1      15.547   7.623  32.517  1.00  0.00     0.010 A 
HETATM   22  C18 UNK     1      16.608   6.840  32.061  1.00  0.00     0.037 A 
BRANCH  20  23
HETATM   23  C12 UNK     1      14.416   8.941  34.313  1.00  0.00     0.034 C 
HETATM   24  C19 UNK     1      14.890  10.223  34.994  1.00  0.00     0.010 C 
ENDBRANCH  20  23
ENDBRANCH  16  17
ENDBRANCH  15  16
ENDBRANCH  14  15
ENDBRANCH  12  14
ENDBRANCH   3  12
BRANCH   6  25
HETATM   25  N2  UNK     1      17.575   0.946  34.601  1.00  0.00    -0.107 N 
HETATM   26  O4  UNK     1      18.220   1.532  35.477  1.00  0.00    -0.531 OA
HETATM   27  O5  UNK     1      16.344   0.850  34.547  1.00  0.00    -0.531 OA
ENDBRANCH   6  25
TORSDOF 7
ENDMDL
MODEL 8
REMARK VINA RESULT:      -7.9      2.210      4.064
REMARK  7 active torsions:
REMARK  status: ('A' for Active; 'I' for Inactive)
REMARK    1  A    between atoms: C5_12  and  O1_1 
REMARK    2  A    between atoms: C9_16  and  O1_1 
REMARK    3  A    between atoms: C1_8  and  N1_6 
REMARK    4  A    between atoms: C3_10  and  N1_6 
REMARK    5  A    between atoms: C6_13  and  N2_7 
REMARK    6  A    between atoms: C3_10  and  C5_12 
REMARK    7  A    between atoms: C12_19  and  C8_15 
ROOT
HETATM    1  O2  UNK     1      17.911   1.905  34.561  1.00  0.00    -0.273 OA
HETATM    2  O3  UNK     1      18.322   1.834  32.318  1.00  0.00    -0.257 OA
HETATM    3  C1  UNK     1      18.692  -0.850  34.713  1.00  0.00     0.081 A 
HETATM    4  C2  UNK     1      18.253  -0.107  35.922  1.00  0.00     0.027 A 
HETATM    5  C4  UNK     1      17.883   1.236  35.802  1.00  0.00     0.092 A 
HETATM    6  C6  UNK     1      18.691  -0.150  33.566  1.00  0.00     0.205 A 
HETATM    7  C7  UNK     1      18.180  -0.669  37.208  1.00  0.00     0.017 A 
HETATM    8  C10 UNK     1      18.303   1.259  33.401  1.00  0.00     0.324 A 
HETATM    9  C11 UNK     1      17.459   2.003  36.892  1.00  0.00     0.038 A 
HETATM   10  C13 UNK     1      17.757   0.087  38.310  1.00  0.00     0.001 A 
HETATM   11  C14 UNK     1      17.398   1.422  38.152  1.00  0.00     0.003 A 
ENDROOT
BRANCH   3  12
HETATM   12  N1  UNK     1      19.057  -2.164  34.859  1.00  0.00    -0.385 N 
HETATM   13  H3  UNK     1      18.524  -2.877  34.378  1.00  0.00     0.159 HD
BRANCH  12  14
HETATM   14  C3  UNK     1      20.270  -2.575  35.512  1.00  0.00     0.146 C 
BRANCH  14  15
HETATM   15  C5  UNK     1      19.975  -3.692  36.498  1.00  0.00     0.195 C 
BRANCH  15  16
HETATM   16  O1  UNK     1      20.602  -4.890  36.059  1.00  0.00    -0.350 OA
BRANCH  16  17
HETATM   17  C9  UNK     1      20.455  -5.993  36.859  1.00  0.00     0.068 A 
HETATM   18  C17 UNK     1      20.125  -7.217  36.287  1.00  0.00     0.037 A 
HETATM   19  C15 UNK     1      19.974  -8.340  37.101  1.00  0.00     0.010 A 
HETATM   20  C8  UNK     1      20.154  -8.232  38.480  1.00  0.00    -0.058 A 
HETATM   21  C16 UNK     1      20.484  -7.001  39.046  1.00  0.00     0.010 A 
HETATM   22  C18 UNK     1      20.635  -5.877  38.232  1.00  0.00     0.037 A 
BRANCH  20  23
HETATM   23  C12 UNK     1      19.993  -9.432  39.350  1.00  0.00     0.034 C 
HETATM   24  C19 UNK     1      19.374 -10.611  38.605  1.00  0.00     0.010 C 
ENDBRANCH  20  23
ENDBRANCH  16  17
ENDBRANCH  15  16
ENDBRANCH  14  15
ENDBRANCH  12  14
ENDBRANCH   3  12
BRANCH   6  25
HETATM   25  N2  UNK     1      19.106  -0.830  32.381  1.00  0.00    -0.107 N 
HETATM   26  O4  UNK     1      20.237  -0.576  31.954  1.00  0.00    -0.531 OA
HETATM   27  O5  UNK     1      18.300  -1.620  31.876  1.00  0.00    -0.531 OA
ENDBRANCH   6  25
TORSDOF 7
ENDMDL
MODEL 9
REMARK VINA RESULT:      -7.9     11.692     14.330
REMARK  7 active torsions:
REMARK  status: ('A' for Active; 'I' for Inactive)
REMARK    1  A    between atoms: C5_12  and  O1_1 
REMARK    2  A    between atoms: C9_16  and  O1_1 
REMARK    3  A    between atoms: C1_8  and  N1_6 
REMARK    4  A    between atoms: C3_10  and  N1_6 
REMARK    5  A    between atoms: C6_13  and  N2_7 
REMARK    6  A    between atoms: C3_10  and  C5_12 
REMARK    7  A    between atoms: C12_19  and  C8_15 
ROOT
HETATM    1  O2  UNK     1      33.171  -8.631  34.857  1.00  0.00    -0.273 OA
HETATM    2  O3  UNK     1      34.570  -7.272  33.672  1.00  0.00    -0.257 OA
HETATM    3  C1  UNK     1      33.421  -6.827  37.072  1.00  0.00     0.081 A 
HETATM    4  C2  UNK     1      32.586  -8.052  37.168  1.00  0.00     0.027 A 
HETATM    5  C4  UNK     1      32.491  -8.903  36.061  1.00  0.00     0.092 A 
HETATM    6  C6  UNK     1      34.041  -6.635  35.896  1.00  0.00     0.205 A 
HETATM    7  C7  UNK     1      31.868  -8.428  38.316  1.00  0.00     0.017 A 
HETATM    8  C10 UNK     1      33.970  -7.509  34.716  1.00  0.00     0.324 A 
HETATM    9  C11 UNK     1      31.726 -10.073  36.072  1.00  0.00     0.038 A 
HETATM   10  C13 UNK     1      31.097  -9.598  38.342  1.00  0.00     0.001 A 
HETATM   11  C14 UNK     1      31.025 -10.420  37.220  1.00  0.00     0.003 A 
ENDROOT
BRANCH   3  12
HETATM   12  N1  UNK     1      33.491  -6.006  38.168  1.00  0.00    -0.385 N 
HETATM   13  H3  UNK     1      34.365  -5.939  38.676  1.00  0.00     0.159 HD
BRANCH  12  14
HETATM   14  C3  UNK     1      32.445  -5.091  38.533  1.00  0.00     0.146 C 
BRANCH  14  15
HETATM   15  C5  UNK     1      31.648  -4.695  37.303  1.00  0.00     0.195 C 
BRANCH  15  16
HETATM   16  O1  UNK     1      30.282  -4.521  37.658  1.00  0.00    -0.350 OA
BRANCH  16  17
HETATM   17  C9  UNK     1      29.520  -5.656  37.757  1.00  0.00     0.068 A 
HETATM   18  C17 UNK     1      29.246  -6.401  36.615  1.00  0.00     0.037 A 
HETATM   19  C15 UNK     1      28.469  -7.555  36.714  1.00  0.00     0.010 A 
HETATM   20  C8  UNK     1      27.972  -7.957  37.954  1.00  0.00    -0.058 A 
HETATM   21  C16 UNK     1      28.251  -7.204  39.095  1.00  0.00     0.010 A 
HETATM   22  C18 UNK     1      29.027  -6.050  38.996  1.00  0.00     0.037 A 
BRANCH  20  23
HETATM   23  C12 UNK     1      27.142  -9.191  38.061  1.00  0.00     0.034 C 
HETATM   24  C19 UNK     1      27.400  -9.954  39.357  1.00  0.00     0.010 C 
ENDBRANCH  20  23
ENDBRANCH  16  17
ENDBRANCH  15  16
ENDBRANCH  14  15
ENDBRANCH  12  14
ENDBRANCH   3  12
BRANCH   6  25
HETATM   25  N2  UNK     1      34.855  -5.469  35.766  1.00  0.00    -0.107 N 
HETATM   26  O4  UNK     1      34.343  -4.485  35.220  1.00  0.00    -0.531 OA
HETATM   27  O5  UNK     1      36.007  -5.535  36.210  1.00  0.00    -0.531 OA
ENDBRANCH   6  25
TORSDOF 7
ENDMDL
MODEL 10
REMARK VINA RESULT:      -7.9     10.226     12.457
REMARK  7 active torsions:
REMARK  status: ('A' for Active; 'I' for Inactive)
REMARK    1  A    between atoms: C5_12  and  O1_1 
REMARK    2  A    between atoms: C9_16  and  O1_1 
REMARK    3  A    between atoms: C1_8  and  N1_6 
REMARK    4  A    between atoms: C3_10  and  N1_6 
REMARK    5  A    between atoms: C6_13  and  N2_7 
REMARK    6  A    between atoms: C3_10  and  C5_12 
REMARK    7  A    between atoms: C12_19  and  C8_15 
ROOT
HETATM    1  O2  UNK     1      31.480  -5.533  36.720  1.00  0.00    -0.273 OA
HETATM    2  O3  UNK     1      30.808  -3.412  37.227  1.00  0.00    -0.257 OA
HETATM    3  C1  UNK     1      29.628  -6.506  38.681  1.00  0.00     0.081 A 
HETATM    4  C2  UNK     1      30.484  -7.438  37.903  1.00  0.00     0.027 A 
HETATM    5  C4  UNK     1      31.373  -6.919  36.955  1.00  0.00     0.092 A 
HETATM    6  C6  UNK     1      29.787  -5.201  38.406  1.00  0.00     0.205 A 
HETATM    7  C7  UNK     1      30.468  -8.835  38.054  1.00  0.00     0.017 A 
HETATM    8  C10 UNK     1      30.713  -4.620  37.423  1.00  0.00     0.324 A 
HETATM    9  C11 UNK     1      32.211  -7.729  36.183  1.00  0.00     0.038 A 
HETATM   10  C13 UNK     1      31.303  -9.660  37.287  1.00  0.00     0.001 A 
HETATM   11  C14 UNK     1      32.173  -9.107  36.352  1.00  0.00     0.003 A 
ENDROOT
BRANCH   3  12
HETATM   12  N1  UNK     1      28.760  -7.041  39.598  1.00  0.00    -0.385 N 
HETATM   13  H3  UNK     1      28.802  -6.720  40.558  1.00  0.00     0.159 HD
BRANCH  12  14
HETATM   14  C3  UNK     1      27.667  -7.901  39.239  1.00  0.00     0.146 C 
BRANCH  14  15
HETATM   15  C5  UNK     1      26.725  -7.176  38.293  1.00  0.00     0.195 C 
BRANCH  15  16
HETATM   16  O1  UNK     1      26.320  -8.060  37.256  1.00  0.00    -0.350 OA
BRANCH  16  17
HETATM   17  C9  UNK     1      27.234  -8.309  36.265  1.00  0.00     0.068 A 
HETATM   18  C17 UNK     1      27.812  -7.245  35.582  1.00  0.00     0.037 A 
HETATM   19  C15 UNK     1      28.741  -7.497  34.572  1.00  0.00     0.010 A 
HETATM   20  C8  UNK     1      29.085  -8.810  34.252  1.00  0.00    -0.058 A 
HETATM   21  C16 UNK     1      28.499  -9.872  34.941  1.00  0.00     0.010 A 
HETATM   22  C18 UNK     1      27.570  -9.620  35.951  1.00  0.00     0.037 A 
BRANCH  20  23
HETATM   23  C12 UNK     1      30.078  -9.080  33.173  1.00  0.00     0.034 C 
HETATM   24  C19 UNK     1      29.710 -10.303  32.338  1.00  0.00     0.010 C 
ENDBRANCH  20  23
ENDBRANCH  16  17
ENDBRANCH  15  16
ENDBRANCH  14  15
ENDBRANCH  12  14
ENDBRANCH   3  12
BRANCH   6  25
HETATM   25  N2  UNK     1      28.981  -4.273  39.135  1.00  0.00    -0.107 N 
HETATM   26  O4  UNK     1      29.520  -3.679  40.074  1.00  0.00    -0.531 OA
HETATM   27  O5  UNK     1      27.809  -4.139  38.767  1.00  0.00    -0.531 OA
ENDBRANCH   6  25
TORSDOF 7
ENDMDL
