MODEL 1
REMARK VINA RESULT:     -11.2      0.000      0.000
REMARK  5 active torsions:
REMARK  status: ('A' for Active; 'I' for Inactive)
REMARK       I    between atoms: C10_18  and  N1_6 
REMARK    1  A    between atoms: C3_11  and  N1_6 
REMARK       I    between atoms: C5_13  and  N2_7 
REMARK    2  A    between atoms: C8_16  and  N2_7 
REMARK    3  A    between atoms: C1_9  and  C5_13 
REMARK    4  A    between atoms: C14_22  and  C8_16 
REMARK    5  A    between atoms: C10_18  and  C9_17 
ROOT
HETATM    1  S1  UNK     1      17.738  -1.811  37.743  1.00  0.00    -0.076 SA
HETATM    2  C1  UNK     1      19.247  -1.504  35.687  1.00  0.00     0.072 A 
HETATM    3  C2  UNK     1      18.739  -0.210  36.000  1.00  0.00    -0.031 A 
HETATM    4  C3  UNK     1      18.778  -2.438  36.554  1.00  0.00     0.093 A 
HETATM    5  C4  UNK     1      17.904  -0.234  37.096  1.00  0.00    -0.012 A 
HETATM    6  C6  UNK     1      19.066   1.020  35.237  1.00  0.00     0.050 C 
HETATM    7  C7  UNK     1      17.179   0.886  37.738  1.00  0.00     0.057 C 
ENDROOT
BRANCH   4   8
HETATM    8  N1  UNK     1      19.013  -3.815  36.619  1.00  0.00    -0.316 N 
HETATM    9  C10 UNK     1      20.126  -4.429  37.175  1.00  0.00     0.262 C 
HETATM   10  O3  UNK     1      21.104  -3.908  37.709  1.00  0.00    -0.267 OA
HETATM   11  H4  UNK     1      18.379  -4.378  36.059  1.00  0.00     0.169 HD
BRANCH   9  12
HETATM   12  C9  UNK     1      20.052  -5.891  37.074  1.00  0.00     0.108 A 
HETATM   13  C12 UNK     1      19.923  -6.557  38.227  1.00  0.00     0.037 A 
HETATM   14  C11 UNK     1      19.842  -8.010  38.229  1.00  0.00    -0.001 A 
HETATM   15  C13 UNK     1      19.901  -8.689  37.016  1.00  0.00     0.089 A 
HETATM   16  C16 UNK     1      19.706  -8.747  39.409  1.00  0.00     0.014 A 
HETATM   17  O1  UNK     1      20.037  -7.982  35.806  1.00  0.00    -0.274 OA
HETATM   18  C17 UNK     1      19.828 -10.079  36.950  1.00  0.00     0.038 A 
HETATM   19  C15 UNK     1      20.117  -6.593  35.772  1.00  0.00     0.304 A 
HETATM   20  O4  UNK     1      20.236  -5.986  34.714  1.00  0.00    -0.259 OA
HETATM   21  C20 UNK     1      19.693 -10.806  38.130  1.00  0.00     0.003 A 
HETATM   22  C19 UNK     1      19.632 -10.142  39.357  1.00  0.00     0.001 A 
ENDBRANCH   9  12
ENDBRANCH   4   8
BRANCH   2  23
HETATM   23  C5  UNK     1      20.142  -1.809  34.599  1.00  0.00     0.255 C 
HETATM   24  N2  UNK     1      19.586  -1.807  33.312  1.00  0.00    -0.352 N 
HETATM   25  H8  UNK     1      18.580  -1.716  33.207  1.00  0.00     0.163 HD
HETATM   26  O2  UNK     1      21.342  -2.089  34.779  1.00  0.00    -0.268 OA
BRANCH  24  27
HETATM   27  C8  UNK     1      20.345  -2.123  32.122  1.00  0.00     0.162 C 
BRANCH  27  28
HETATM   28  C14 UNK     1      20.041  -1.173  30.995  1.00  0.00    -0.023 A 
HETATM   29  C18 UNK     1      20.340  -1.516  29.691  1.00  0.00     0.012 A 
HETATM   30  C22 UNK     1      20.047  -0.618  28.672  1.00  0.00     0.020 A 
HETATM   31  C23 UNK     1      19.462   0.590  29.018  1.00  0.00     0.116 A 
HETATM   32  N3  UNK     1      19.159   0.947  30.286  1.00  0.00    -0.273 NA
HETATM   33  C21 UNK     1      19.459   0.049  31.251  1.00  0.00     0.124 A 
ENDBRANCH  27  28
ENDBRANCH  24  27
ENDBRANCH   2  23
TORSDOF 5
ENDMDL
MODEL 2
REMARK VINA RESULT:     -10.3      1.774      2.381
REMARK  5 active torsions:
REMARK  status: ('A' for Active; 'I' for Inactive)
REMARK       I    between atoms: C10_18  and  N1_6 
REMARK    1  A    between atoms: C3_11  and  N1_6 
REMARK       I    between atoms: C5_13  and  N2_7 
REMARK    2  A    between atoms: C8_16  and  N2_7 
REMARK    3  A    between atoms: C1_9  and  C5_13 
REMARK    4  A    between atoms: C14_22  and  C8_16 
REMARK    5  A    between atoms: C10_18  and  C9_17 
ROOT
HETATM    1  S1  UNK     1      18.494  -2.374  37.610  1.00  0.00    -0.076 SA
HETATM    2  C1  UNK     1      19.612  -1.860  35.354  1.00  0.00     0.072 A 
HETATM    3  C2  UNK     1      18.759  -0.753  35.633  1.00  0.00    -0.031 A 
HETATM    4  C3  UNK     1      19.550  -2.789  36.344  1.00  0.00     0.093 A 
HETATM    5  C4  UNK     1      18.092  -0.904  36.830  1.00  0.00    -0.012 A 
HETATM    6  C6  UNK     1      18.605   0.424  34.743  1.00  0.00     0.050 C 
HETATM    7  C7  UNK     1      17.123   0.011  37.476  1.00  0.00     0.057 C 
ENDROOT
BRANCH   4   8
HETATM    8  N1  UNK     1      20.209  -4.014  36.480  1.00  0.00    -0.316 N 
HETATM    9  C10 UNK     1      19.608  -5.263  36.547  1.00  0.00     0.262 C 
HETATM   10  O3  UNK     1      18.412  -5.543  36.501  1.00  0.00    -0.267 OA
HETATM   11  H4  UNK     1      21.197  -3.939  36.712  1.00  0.00     0.169 HD
BRANCH   9  12
HETATM   12  C9  UNK     1      20.597  -6.338  36.691  1.00  0.00     0.108 A 
HETATM   13  C12 UNK     1      20.479  -7.366  35.843  1.00  0.00     0.037 A 
HETATM   14  C11 UNK     1      21.412  -8.481  35.908  1.00  0.00    -0.001 A 
HETATM   15  C13 UNK     1      22.423  -8.458  36.864  1.00  0.00     0.089 A 
HETATM   16  C16 UNK     1      21.327  -9.575  35.043  1.00  0.00     0.014 A 
HETATM   17  O1  UNK     1      22.542  -7.372  37.754  1.00  0.00    -0.274 OA
HETATM   18  C17 UNK     1      23.348  -9.494  36.978  1.00  0.00     0.038 A 
HETATM   19  C15 UNK     1      21.664  -6.292  37.715  1.00  0.00     0.304 A 
HETATM   20  O4  UNK     1      21.775  -5.353  38.495  1.00  0.00    -0.259 OA
HETATM   21  C20 UNK     1      23.256 -10.580  36.112  1.00  0.00     0.003 A 
HETATM   22  C19 UNK     1      22.249 -10.622  35.146  1.00  0.00     0.001 A 
ENDBRANCH   9  12
ENDBRANCH   4   8
BRANCH   2  23
HETATM   23  C5  UNK     1      20.439  -2.003  34.183  1.00  0.00     0.255 C 
HETATM   24  N2  UNK     1      19.778  -2.019  32.946  1.00  0.00    -0.352 N 
HETATM   25  H8  UNK     1      18.764  -2.054  32.928  1.00  0.00     0.163 HD
HETATM   26  O2  UNK     1      21.677  -2.133  34.251  1.00  0.00    -0.268 OA
BRANCH  24  27
HETATM   27  C8  UNK     1      20.464  -2.185  31.685  1.00  0.00     0.162 C 
BRANCH  27  28
HETATM   28  C14 UNK     1      20.052  -1.142  30.681  1.00  0.00    -0.023 A 
HETATM   29  C18 UNK     1      19.524   0.063  31.102  1.00  0.00     0.012 A 
HETATM   30  C22 UNK     1      19.154   1.007  30.152  1.00  0.00     0.020 A 
HETATM   31  C23 UNK     1      19.336   0.690  28.815  1.00  0.00     0.116 A 
HETATM   32  N3  UNK     1      19.852  -0.481  28.380  1.00  0.00    -0.273 NA
HETATM   33  C21 UNK     1      20.200  -1.376  29.332  1.00  0.00     0.124 A 
ENDBRANCH  27  28
ENDBRANCH  24  27
ENDBRANCH   2  23
TORSDOF 5
ENDMDL
MODEL 3
REMARK VINA RESULT:      -9.7      6.204     12.098
REMARK  5 active torsions:
REMARK  status: ('A' for Active; 'I' for Inactive)
REMARK       I    between atoms: C10_18  and  N1_6 
REMARK    1  A    between atoms: C3_11  and  N1_6 
REMARK       I    between atoms: C5_13  and  N2_7 
REMARK    2  A    between atoms: C8_16  and  N2_7 
REMARK    3  A    between atoms: C1_9  and  C5_13 
REMARK    4  A    between atoms: C14_22  and  C8_16 
REMARK    5  A    between atoms: C10_18  and  C9_17 
ROOT
HETATM    1  S1  UNK     1      18.825   2.633  29.920  1.00  0.00    -0.076 SA
HETATM    2  C1  UNK     1      18.370   1.900  32.340  1.00  0.00     0.072 A 
HETATM    3  C2  UNK     1      18.975   0.783  31.697  1.00  0.00    -0.031 A 
HETATM    4  C3  UNK     1      18.240   2.948  31.485  1.00  0.00     0.093 A 
HETATM    5  C4  UNK     1      19.273   1.045  30.377  1.00  0.00    -0.012 A 
HETATM    6  C6  UNK     1      19.252  -0.513  32.365  1.00  0.00     0.050 C 
HETATM    7  C7  UNK     1      19.900   0.158  29.371  1.00  0.00     0.057 C 
ENDROOT
BRANCH   4   8
HETATM    8  N1  UNK     1      17.707   4.224  31.688  1.00  0.00    -0.316 N 
HETATM    9  C10 UNK     1      18.393   5.329  32.171  1.00  0.00     0.262 C 
HETATM   10  O3  UNK     1      19.573   5.413  32.508  1.00  0.00    -0.267 OA
HETATM   11  H4  UNK     1      16.693   4.273  31.625  1.00  0.00     0.169 HD
BRANCH   9  12
HETATM   12  C9  UNK     1      17.529   6.512  32.261  1.00  0.00     0.108 A 
HETATM   13  C12 UNK     1      17.161   6.882  33.494  1.00  0.00     0.037 A 
HETATM   14  C11 UNK     1      16.304   8.042  33.686  1.00  0.00    -0.001 A 
HETATM   15  C13 UNK     1      15.877   8.755  32.570  1.00  0.00     0.089 A 
HETATM   16  C16 UNK     1      15.895   8.465  34.953  1.00  0.00     0.014 A 
HETATM   17  O1  UNK     1      16.268   8.361  31.275  1.00  0.00    -0.274 OA
HETATM   18  C17 UNK     1      15.055   9.875  32.686  1.00  0.00     0.038 A 
HETATM   19  C15 UNK     1      17.087   7.255  31.061  1.00  0.00     0.304 A 
HETATM   20  O4  UNK     1      17.421   6.919  29.930  1.00  0.00    -0.259 OA
HETATM   21  C20 UNK     1      14.653  10.290  33.953  1.00  0.00     0.003 A 
HETATM   22  C19 UNK     1      15.071   9.587  35.084  1.00  0.00     0.001 A 
ENDBRANCH   9  12
ENDBRANCH   4   8
BRANCH   2  23
HETATM   23  C5  UNK     1      17.941   1.941  33.716  1.00  0.00     0.255 C 
HETATM   24  N2  UNK     1      16.928   1.045  34.083  1.00  0.00    -0.352 N 
HETATM   25  H8  UNK     1      16.460   0.504  33.362  1.00  0.00     0.163 HD
HETATM   26  O2  UNK     1      18.418   2.744  34.541  1.00  0.00    -0.268 OA
BRANCH  24  27
HETATM   27  C8  UNK     1      16.369   0.985  35.416  1.00  0.00     0.162 C 
BRANCH  27  28
HETATM   28  C14 UNK     1      17.121   0.022  36.295  1.00  0.00    -0.023 A 
HETATM   29  C18 UNK     1      17.309  -1.287  35.896  1.00  0.00     0.012 A 
HETATM   30  C22 UNK     1      18.008  -2.153  36.730  1.00  0.00     0.020 A 
HETATM   31  C23 UNK     1      18.488  -1.654  37.930  1.00  0.00     0.116 A 
HETATM   32  N3  UNK     1      18.317  -0.377  38.340  1.00  0.00    -0.273 NA
HETATM   33  C21 UNK     1      17.632   0.436  37.504  1.00  0.00     0.124 A 
ENDBRANCH  27  28
ENDBRANCH  24  27
ENDBRANCH   2  23
TORSDOF 5
ENDMDL
MODEL 4
REMARK VINA RESULT:      -9.4      5.608     11.591
REMARK  5 active torsions:
REMARK  status: ('A' for Active; 'I' for Inactive)
REMARK       I    between atoms: C10_18  and  N1_6 
REMARK    1  A    between atoms: C3_11  and  N1_6 
REMARK       I    between atoms: C5_13  and  N2_7 
REMARK    2  A    between atoms: C8_16  and  N2_7 
REMARK    3  A    between atoms: C1_9  and  C5_13 
REMARK    4  A    between atoms: C14_22  and  C8_16 
REMARK    5  A    between atoms: C10_18  and  C9_17 
ROOT
HETATM    1  S1  UNK     1      18.674   2.517  29.936  1.00  0.00    -0.076 SA
HETATM    2  C1  UNK     1      18.649   1.291  32.194  1.00  0.00     0.072 A 
HETATM    3  C2  UNK     1      19.076   0.333  31.230  1.00  0.00    -0.031 A 
HETATM    4  C3  UNK     1      18.405   2.496  31.615  1.00  0.00     0.093 A 
HETATM    5  C4  UNK     1      19.134   0.868  29.961  1.00  0.00    -0.012 A 
HETATM    6  C6  UNK     1      19.419  -1.074  31.550  1.00  0.00     0.050 C 
HETATM    7  C7  UNK     1      19.525   0.212  28.692  1.00  0.00     0.057 C 
ENDROOT
BRANCH   4   8
HETATM    8  N1  UNK     1      17.974   3.701  32.175  1.00  0.00    -0.316 N 
HETATM    9  C10 UNK     1      18.600   4.933  32.048  1.00  0.00     0.262 C 
HETATM   10  O3  UNK     1      19.629   5.211  31.436  1.00  0.00    -0.267 OA
HETATM   11  H4  UNK     1      17.230   3.605  32.862  1.00  0.00     0.169 HD
BRANCH   9  12
HETATM   12  C9  UNK     1      17.878   5.990  32.766  1.00  0.00     0.108 A 
HETATM   13  C12 UNK     1      16.660   6.293  32.302  1.00  0.00     0.037 A 
HETATM   14  C11 UNK     1      15.866   7.328  32.946  1.00  0.00    -0.001 A 
HETATM   15  C13 UNK     1      16.395   7.994  34.048  1.00  0.00     0.089 A 
HETATM   16  C16 UNK     1      14.590   7.677  32.497  1.00  0.00     0.014 A 
HETATM   17  O1  UNK     1      17.679   7.670  34.531  1.00  0.00    -0.274 OA
HETATM   18  C17 UNK     1      15.687   8.995  34.710  1.00  0.00     0.038 A 
HETATM   19  C15 UNK     1      18.461   6.685  33.935  1.00  0.00     0.304 A 
HETATM   20  O4  UNK     1      19.577   6.411  34.363  1.00  0.00    -0.259 OA
HETATM   21  C20 UNK     1      14.415   9.336  34.255  1.00  0.00     0.003 A 
HETATM   22  C19 UNK     1      13.868   8.679  33.152  1.00  0.00     0.001 A 
ENDBRANCH   9  12
ENDBRANCH   4   8
BRANCH   2  23
HETATM   23  C5  UNK     1      18.487   1.042  33.604  1.00  0.00     0.255 C 
HETATM   24  N2  UNK     1      17.805  -0.131  33.959  1.00  0.00    -0.352 N 
HETATM   25  H8  UNK     1      17.356  -0.681  33.233  1.00  0.00     0.163 HD
HETATM   26  O2  UNK     1      18.901   1.831  34.475  1.00  0.00    -0.268 OA
BRANCH  24  27
HETATM   27  C8  UNK     1      17.536  -0.505  35.329  1.00  0.00     0.162 C 
BRANCH  27  28
HETATM   28  C14 UNK     1      18.571  -1.458  35.863  1.00  0.00    -0.023 A 
HETATM   29  C18 UNK     1      18.510  -1.896  37.172  1.00  0.00     0.012 A 
HETATM   30  C22 UNK     1      19.480  -2.777  37.636  1.00  0.00     0.020 A 
HETATM   31  C23 UNK     1      20.470  -3.177  36.753  1.00  0.00     0.116 A 
HETATM   32  N3  UNK     1      20.549  -2.763  35.469  1.00  0.00    -0.273 NA
HETATM   33  C21 UNK     1      19.590  -1.907  35.052  1.00  0.00     0.124 A 
ENDBRANCH  27  28
ENDBRANCH  24  27
ENDBRANCH   2  23
TORSDOF 5
ENDMDL
MODEL 5
REMARK VINA RESULT:      -9.2      4.064      6.631
REMARK  5 active torsions:
REMARK  status: ('A' for Active; 'I' for Inactive)
REMARK       I    between atoms: C10_18  and  N1_6 
REMARK    1  A    between atoms: C3_11  and  N1_6 
REMARK       I    between atoms: C5_13  and  N2_7 
REMARK    2  A    between atoms: C8_16  and  N2_7 
REMARK    3  A    between atoms: C1_9  and  C5_13 
REMARK    4  A    between atoms: C14_22  and  C8_16 
REMARK    5  A    between atoms: C10_18  and  C9_17 
ROOT
HETATM    1  S1  UNK     1      18.434   5.336  34.276  1.00  0.00    -0.076 SA
HETATM    2  C1  UNK     1      18.237   4.146  32.008  1.00  0.00     0.072 A 
HETATM    3  C2  UNK     1      18.332   5.537  31.716  1.00  0.00    -0.031 A 
HETATM    4  C3  UNK     1      18.280   3.921  33.347  1.00  0.00     0.093 A 
HETATM    5  C4  UNK     1      18.443   6.298  32.860  1.00  0.00    -0.012 A 
HETATM    6  C6  UNK     1      18.313   6.103  30.345  1.00  0.00     0.050 C 
HETATM    7  C7  UNK     1      18.563   7.768  32.990  1.00  0.00     0.057 C 
ENDROOT
BRANCH   4   8
HETATM    8  N1  UNK     1      18.219   2.725  34.068  1.00  0.00    -0.316 N 
HETATM    9  C10 UNK     1      18.939   2.424  35.216  1.00  0.00     0.262 C 
HETATM   10  O3  UNK     1      19.753   3.124  35.817  1.00  0.00    -0.267 OA
HETATM   11  H4  UNK     1      17.722   1.973  33.598  1.00  0.00     0.169 HD
BRANCH   9  12
HETATM   12  C9  UNK     1      18.634   1.079  35.716  1.00  0.00     0.108 A 
HETATM   13  C12 UNK     1      19.496   0.113  35.378  1.00  0.00     0.037 A 
HETATM   14  C11 UNK     1      19.278  -1.254  35.825  1.00  0.00    -0.001 A 
HETATM   15  C13 UNK     1      18.162  -1.537  36.606  1.00  0.00     0.089 A 
HETATM   16  C16 UNK     1      20.152  -2.294  35.497  1.00  0.00     0.014 A 
HETATM   17  O1  UNK     1      17.257  -0.516  36.958  1.00  0.00    -0.274 OA
HETATM   18  C17 UNK     1      17.896  -2.825  37.067  1.00  0.00     0.038 A 
HETATM   19  C15 UNK     1      17.440   0.801  36.545  1.00  0.00     0.304 A 
HETATM   20  O4  UNK     1      16.646   1.683  36.856  1.00  0.00    -0.259 OA
HETATM   21  C20 UNK     1      18.772  -3.855  36.735  1.00  0.00     0.003 A 
HETATM   22  C19 UNK     1      19.898  -3.591  35.952  1.00  0.00     0.001 A 
ENDBRANCH   9  12
ENDBRANCH   4   8
BRANCH   2  23
HETATM   23  C5  UNK     1      18.109   3.094  31.031  1.00  0.00     0.255 C 
HETATM   24  N2  UNK     1      19.301   2.600  30.482  1.00  0.00    -0.352 N 
HETATM   25  H8  UNK     1      20.175   3.071  30.692  1.00  0.00     0.163 HD
HETATM   26  O2  UNK     1      17.002   2.655  30.663  1.00  0.00    -0.268 OA
BRANCH  24  27
HETATM   27  C8  UNK     1      19.337   1.569  29.469  1.00  0.00     0.162 C 
BRANCH  27  28
HETATM   28  C14 UNK     1      19.736   0.235  30.043  1.00  0.00    -0.023 A 
HETATM   29  C18 UNK     1      20.203  -0.769  29.218  1.00  0.00     0.012 A 
HETATM   30  C22 UNK     1      20.565  -1.989  29.777  1.00  0.00     0.020 A 
HETATM   31  C23 UNK     1      20.439  -2.138  31.149  1.00  0.00     0.116 A 
HETATM   32  N3  UNK     1      19.986  -1.170  31.975  1.00  0.00    -0.273 NA
HETATM   33  C21 UNK     1      19.643   0.003  31.397  1.00  0.00     0.124 A 
ENDBRANCH  27  28
ENDBRANCH  24  27
ENDBRANCH   2  23
TORSDOF 5
ENDMDL
MODEL 6
REMARK VINA RESULT:      -9.1      2.263      5.243
REMARK  5 active torsions:
REMARK  status: ('A' for Active; 'I' for Inactive)
REMARK       I    between atoms: C10_18  and  N1_6 
REMARK    1  A    between atoms: C3_11  and  N1_6 
REMARK       I    between atoms: C5_13  and  N2_7 
REMARK    2  A    between atoms: C8_16  and  N2_7 
REMARK    3  A    between atoms: C1_9  and  C5_13 
REMARK    4  A    between atoms: C14_22  and  C8_16 
REMARK    5  A    between atoms: C10_18  and  C9_17 
ROOT
HETATM    1  S1  UNK     1      20.756  -2.521  31.317  1.00  0.00    -0.076 SA
HETATM    2  C1  UNK     1      19.244  -0.819  32.508  1.00  0.00     0.072 A 
HETATM    3  C2  UNK     1      19.548  -0.255  31.235  1.00  0.00    -0.031 A 
HETATM    4  C3  UNK     1      19.837  -2.032  32.661  1.00  0.00     0.093 A 
HETATM    5  C4  UNK     1      20.363  -1.076  30.487  1.00  0.00    -0.012 A 
HETATM    6  C6  UNK     1      19.050   1.063  30.769  1.00  0.00     0.050 C 
HETATM    7  C7  UNK     1      20.903  -0.860  29.125  1.00  0.00     0.057 C 
ENDROOT
BRANCH   4   8
HETATM    8  N1  UNK     1      19.810  -2.925  33.735  1.00  0.00    -0.316 N 
HETATM    9  C10 UNK     1      20.530  -2.807  34.916  1.00  0.00     0.262 C 
HETATM   10  O3  UNK     1      21.314  -1.920  35.251  1.00  0.00    -0.267 OA
HETATM   11  H4  UNK     1      19.344  -3.808  33.540  1.00  0.00     0.169 HD
BRANCH   9  12
HETATM   12  C9  UNK     1      20.267  -3.923  35.831  1.00  0.00     0.108 A 
HETATM   13  C12 UNK     1      19.813  -5.051  35.272  1.00  0.00     0.037 A 
HETATM   14  C11 UNK     1      19.521  -6.213  36.098  1.00  0.00    -0.001 A 
HETATM   15  C13 UNK     1      19.721  -6.129  37.473  1.00  0.00     0.089 A 
HETATM   16  C16 UNK     1      19.046  -7.411  35.558  1.00  0.00     0.014 A 
HETATM   17  O1  UNK     1      20.199  -4.938  38.055  1.00  0.00    -0.274 OA
HETATM   18  C17 UNK     1      19.461  -7.205  38.319  1.00  0.00     0.038 A 
HETATM   19  C15 UNK     1      20.487  -3.811  37.291  1.00  0.00     0.304 A 
HETATM   20  O4  UNK     1      20.901  -2.779  37.807  1.00  0.00    -0.259 OA
HETATM   21  C20 UNK     1      18.989  -8.396  37.772  1.00  0.00     0.003 A 
HETATM   22  C19 UNK     1      18.781  -8.499  36.395  1.00  0.00     0.001 A 
ENDBRANCH   9  12
ENDBRANCH   4   8
BRANCH   2  23
HETATM   23  C5  UNK     1      18.420  -0.206  33.519  1.00  0.00     0.255 C 
HETATM   24  N2  UNK     1      17.202  -0.840  33.803  1.00  0.00    -0.352 N 
HETATM   25  H8  UNK     1      16.897  -1.612  33.219  1.00  0.00     0.163 HD
HETATM   26  O2  UNK     1      18.746   0.847  34.099  1.00  0.00    -0.268 OA
BRANCH  24  27
HETATM   27  C8  UNK     1      16.253  -0.332  34.769  1.00  0.00     0.162 C 
BRANCH  27  28
HETATM   28  C14 UNK     1      16.862  -0.204  36.139  1.00  0.00    -0.023 A 
HETATM   29  C18 UNK     1      17.491  -1.283  36.728  1.00  0.00     0.012 A 
HETATM   30  C22 UNK     1      18.045  -1.134  37.994  1.00  0.00     0.020 A 
HETATM   31  C23 UNK     1      17.939   0.104  38.608  1.00  0.00     0.116 A 
HETATM   32  N3  UNK     1      17.330   1.174  38.051  1.00  0.00    -0.273 NA
HETATM   33  C21 UNK     1      16.802   0.992  36.819  1.00  0.00     0.124 A 
ENDBRANCH  27  28
ENDBRANCH  24  27
ENDBRANCH   2  23
TORSDOF 5
ENDMDL
MODEL 7
REMARK VINA RESULT:      -9.1      1.735      2.218
REMARK  5 active torsions:
REMARK  status: ('A' for Active; 'I' for Inactive)
REMARK       I    between atoms: C10_18  and  N1_6 
REMARK    1  A    between atoms: C3_11  and  N1_6 
REMARK       I    between atoms: C5_13  and  N2_7 
REMARK    2  A    between atoms: C8_16  and  N2_7 
REMARK    3  A    between atoms: C1_9  and  C5_13 
REMARK    4  A    between atoms: C14_22  and  C8_16 
REMARK    5  A    between atoms: C10_18  and  C9_17 
ROOT
HETATM    1  S1  UNK     1      17.851  -1.307  37.889  1.00  0.00    -0.076 SA
HETATM    2  C1  UNK     1      19.169  -1.299  35.684  1.00  0.00     0.072 A 
HETATM    3  C2  UNK     1      18.389  -0.107  35.682  1.00  0.00    -0.031 A 
HETATM    4  C3  UNK     1      18.961  -2.019  36.817  1.00  0.00     0.093 A 
HETATM    5  C4  UNK     1      17.624   0.013  36.822  1.00  0.00    -0.012 A 
HETATM    6  C6  UNK     1      18.394   0.889  34.582  1.00  0.00     0.050 C 
HETATM    7  C7  UNK     1      16.686   1.093  37.203  1.00  0.00     0.057 C 
ENDROOT
BRANCH   4   8
HETATM    8  N1  UNK     1      19.510  -3.236  37.232  1.00  0.00    -0.316 N 
HETATM    9  C10 UNK     1      18.983  -4.496  36.987  1.00  0.00     0.262 C 
HETATM   10  O3  UNK     1      17.959  -4.794  36.375  1.00  0.00    -0.267 OA
HETATM   11  H4  UNK     1      20.267  -3.150  37.905  1.00  0.00     0.169 HD
BRANCH   9  12
HETATM   12  C9  UNK     1      19.814  -5.558  37.567  1.00  0.00     0.108 A 
HETATM   13  C12 UNK     1      21.082  -5.231  37.841  1.00  0.00     0.037 A 
HETATM   14  C11 UNK     1      21.985  -6.217  38.417  1.00  0.00    -0.001 A 
HETATM   15  C13 UNK     1      21.507  -7.498  38.674  1.00  0.00     0.089 A 
HETATM   16  C16 UNK     1      23.316  -5.921  38.719  1.00  0.00     0.014 A 
HETATM   17  O1  UNK     1      20.170  -7.835  38.383  1.00  0.00    -0.274 OA
HETATM   18  C17 UNK     1      22.319  -8.488  39.224  1.00  0.00     0.038 A 
HETATM   19  C15 UNK     1      19.284  -6.914  37.832  1.00  0.00     0.304 A 
HETATM   20  O4  UNK     1      18.123  -7.217  37.581  1.00  0.00    -0.259 OA
HETATM   21  C20 UNK     1      23.645  -8.184  39.524  1.00  0.00     0.003 A 
HETATM   22  C19 UNK     1      24.143  -6.904  39.272  1.00  0.00     0.001 A 
ENDBRANCH   9  12
ENDBRANCH   4   8
BRANCH   2  23
HETATM   23  C5  UNK     1      20.068  -1.711  34.636  1.00  0.00     0.255 C 
HETATM   24  N2  UNK     1      19.545  -1.732  33.335  1.00  0.00    -0.352 N 
HETATM   25  H8  UNK     1      18.550  -1.580  33.198  1.00  0.00     0.163 HD
HETATM   26  O2  UNK     1      21.242  -2.061  34.861  1.00  0.00    -0.268 OA
BRANCH  24  27
HETATM   27  C8  UNK     1      20.310  -2.151  32.182  1.00  0.00     0.162 C 
BRANCH  27  28
HETATM   28  C14 UNK     1      20.065  -1.260  30.993  1.00  0.00    -0.023 A 
HETATM   29  C18 UNK     1      20.365  -1.698  29.718  1.00  0.00     0.012 A 
HETATM   30  C22 UNK     1      20.127  -0.853  28.640  1.00  0.00     0.020 A 
HETATM   31  C23 UNK     1      19.593   0.400  28.902  1.00  0.00     0.116 A 
HETATM   32  N3  UNK     1      19.291   0.848  30.140  1.00  0.00    -0.273 NA
HETATM   33  C21 UNK     1      19.537   0.000  31.164  1.00  0.00     0.124 A 
ENDBRANCH  27  28
ENDBRANCH  24  27
ENDBRANCH   2  23
TORSDOF 5
ENDMDL
MODEL 8
REMARK VINA RESULT:      -8.9     17.590     20.925
REMARK  5 active torsions:
REMARK  status: ('A' for Active; 'I' for Inactive)
REMARK       I    between atoms: C10_18  and  N1_6 
REMARK    1  A    between atoms: C3_11  and  N1_6 
REMARK       I    between atoms: C5_13  and  N2_7 
REMARK    2  A    between atoms: C8_16  and  N2_7 
REMARK    3  A    between atoms: C1_9  and  C5_13 
REMARK    4  A    between atoms: C14_22  and  C8_16 
REMARK    5  A    between atoms: C10_18  and  C9_17 
ROOT
HETATM    1  S1  UNK     1      19.175  -3.353  11.873  1.00  0.00    -0.076 SA
HETATM    2  C1  UNK     1      20.031  -4.937  13.706  1.00  0.00     0.072 A 
HETATM    3  C2  UNK     1      19.954  -5.716  12.515  1.00  0.00    -0.031 A 
HETATM    4  C3  UNK     1      19.637  -3.657  13.481  1.00  0.00     0.093 A 
HETATM    5  C4  UNK     1      19.503  -4.978  11.443  1.00  0.00    -0.012 A 
HETATM    6  C6  UNK     1      20.315  -7.153  12.437  1.00  0.00     0.050 C 
HETATM    7  C7  UNK     1      19.284  -5.409  10.044  1.00  0.00     0.057 C 
ENDROOT
BRANCH   4   8
HETATM    8  N1  UNK     1      19.554  -2.567  14.352  1.00  0.00    -0.316 N 
HETATM    9  C10 UNK     1      18.627  -2.403  15.371  1.00  0.00     0.262 C 
HETATM   10  O3  UNK     1      17.716  -3.157  15.708  1.00  0.00    -0.267 OA
HETATM   11  H4  UNK     1      20.129  -1.770  14.088  1.00  0.00     0.169 HD
BRANCH   9  12
HETATM   12  C9  UNK     1      18.825  -1.141  16.093  1.00  0.00     0.108 A 
HETATM   13  C12 UNK     1      18.626  -1.179  17.416  1.00  0.00     0.037 A 
HETATM   14  C11 UNK     1      18.797   0.022  18.219  1.00  0.00    -0.001 A 
HETATM   15  C13 UNK     1      19.169   1.205  17.588  1.00  0.00     0.089 A 
HETATM   16  C16 UNK     1      18.599   0.028  19.602  1.00  0.00     0.014 A 
HETATM   17  O1  UNK     1      19.378   1.239  16.195  1.00  0.00    -0.274 OA
HETATM   18  C17 UNK     1      19.350   2.390  18.299  1.00  0.00     0.038 A 
HETATM   19  C15 UNK     1      19.221   0.106  15.401  1.00  0.00     0.304 A 
HETATM   20  O4  UNK     1      19.404   0.146  14.190  1.00  0.00    -0.259 OA
HETATM   21  C20 UNK     1      19.152   2.387  19.678  1.00  0.00     0.003 A 
HETATM   22  C19 UNK     1      18.777   1.210  20.328  1.00  0.00     0.001 A 
ENDBRANCH   9  12
ENDBRANCH   4   8
BRANCH   2  23
HETATM   23  C5  UNK     1      20.463  -5.419  14.994  1.00  0.00     0.255 C 
HETATM   24  N2  UNK     1      21.800  -5.174  15.338  1.00  0.00    -0.352 N 
HETATM   25  H8  UNK     1      22.428  -4.789  14.640  1.00  0.00     0.163 HD
HETATM   26  O2  UNK     1      19.707  -6.047  15.760  1.00  0.00    -0.268 OA
BRANCH  24  27
HETATM   27  C8  UNK     1      22.391  -5.620  16.580  1.00  0.00     0.162 C 
BRANCH  27  28
HETATM   28  C14 UNK     1      23.276  -4.566  17.189  1.00  0.00    -0.023 A 
HETATM   29  C18 UNK     1      22.746  -3.617  18.041  1.00  0.00     0.012 A 
HETATM   30  C22 UNK     1      23.589  -2.657  18.590  1.00  0.00     0.020 A 
HETATM   31  C23 UNK     1      24.932  -2.702  18.252  1.00  0.00     0.116 A 
HETATM   32  N3  UNK     1      25.472  -3.622  17.423  1.00  0.00    -0.273 NA
HETATM   33  C21 UNK     1      24.623  -4.539  16.908  1.00  0.00     0.124 A 
ENDBRANCH  27  28
ENDBRANCH  24  27
ENDBRANCH   2  23
TORSDOF 5
ENDMDL
MODEL 9
REMARK VINA RESULT:      -8.9      5.617     11.461
REMARK  5 active torsions:
REMARK  status: ('A' for Active; 'I' for Inactive)
REMARK       I    between atoms: C10_18  and  N1_6 
REMARK    1  A    between atoms: C3_11  and  N1_6 
REMARK       I    between atoms: C5_13  and  N2_7 
REMARK    2  A    between atoms: C8_16  and  N2_7 
REMARK    3  A    between atoms: C1_9  and  C5_13 
REMARK    4  A    between atoms: C14_22  and  C8_16 
REMARK    5  A    between atoms: C10_18  and  C9_17 
ROOT
HETATM    1  S1  UNK     1      18.680   2.110  29.649  1.00  0.00    -0.076 SA
HETATM    2  C1  UNK     1      18.879   0.917  31.917  1.00  0.00     0.072 A 
HETATM    3  C2  UNK     1      19.278  -0.034  30.934  1.00  0.00    -0.031 A 
HETATM    4  C3  UNK     1      18.538   2.101  31.343  1.00  0.00     0.093 A 
HETATM    5  C4  UNK     1      19.216   0.483  29.658  1.00  0.00    -0.012 A 
HETATM    6  C6  UNK     1      19.707  -1.420  31.244  1.00  0.00     0.050 C 
HETATM    7  C7  UNK     1      19.542  -0.173  28.372  1.00  0.00     0.057 C 
ENDROOT
BRANCH   4   8
HETATM    8  N1  UNK     1      18.094   3.294  31.921  1.00  0.00    -0.316 N 
HETATM    9  C10 UNK     1      18.654   4.550  31.737  1.00  0.00     0.262 C 
HETATM   10  O3  UNK     1      19.625   4.864  31.051  1.00  0.00    -0.267 OA
HETATM   11  H4  UNK     1      17.404   3.175  32.659  1.00  0.00     0.169 HD
BRANCH   9  12
HETATM   12  C9  UNK     1      17.938   5.584  32.494  1.00  0.00     0.108 A 
HETATM   13  C12 UNK     1      16.739   5.939  32.019  1.00  0.00     0.037 A 
HETATM   14  C11 UNK     1      15.952   6.957  32.699  1.00  0.00    -0.001 A 
HETATM   15  C13 UNK     1      16.469   7.551  33.846  1.00  0.00     0.089 A 
HETATM   16  C16 UNK     1      14.696   7.359  32.239  1.00  0.00     0.014 A 
HETATM   17  O1  UNK     1      17.733   7.173  34.341  1.00  0.00    -0.274 OA
HETATM   18  C17 UNK     1      15.767   8.532  34.544  1.00  0.00     0.038 A 
HETATM   19  C15 UNK     1      18.508   6.202  33.712  1.00  0.00     0.304 A 
HETATM   20  O4  UNK     1      19.607   5.881  34.149  1.00  0.00    -0.259 OA
HETATM   21  C20 UNK     1      14.515   8.926  34.079  1.00  0.00     0.003 A 
HETATM   22  C19 UNK     1      13.980   8.341  32.930  1.00  0.00     0.001 A 
ENDBRANCH   9  12
ENDBRANCH   4   8
BRANCH   2  23
HETATM   23  C5  UNK     1      18.834   0.682  33.338  1.00  0.00     0.255 C 
HETATM   24  N2  UNK     1      18.598  -0.638  33.747  1.00  0.00    -0.352 N 
HETATM   25  H8  UNK     1      18.352  -1.335  33.051  1.00  0.00     0.163 HD
HETATM   26  O2  UNK     1      18.968   1.598  34.171  1.00  0.00    -0.268 OA
BRANCH  24  27
HETATM   27  C8  UNK     1      18.494  -1.029  35.135  1.00  0.00     0.162 C 
BRANCH  27  28
HETATM   28  C14 UNK     1      17.429  -0.249  35.858  1.00  0.00    -0.023 A 
HETATM   29  C18 UNK     1      17.726   0.417  37.031  1.00  0.00     0.012 A 
HETATM   30  C22 UNK     1      16.722   1.131  37.676  1.00  0.00     0.020 A 
HETATM   31  C23 UNK     1      15.460   1.139  37.102  1.00  0.00     0.116 A 
HETATM   32  N3  UNK     1      15.147   0.497  35.955  1.00  0.00    -0.273 NA
HETATM   33  C21 UNK     1      16.148  -0.187  35.356  1.00  0.00     0.124 A 
ENDBRANCH  27  28
ENDBRANCH  24  27
ENDBRANCH   2  23
TORSDOF 5
ENDMDL
MODEL 10
REMARK VINA RESULT:      -8.8      6.174      9.126
REMARK  5 active torsions:
REMARK  status: ('A' for Active; 'I' for Inactive)
REMARK       I    between atoms: C10_18  and  N1_6 
REMARK    1  A    between atoms: C3_11  and  N1_6 
REMARK       I    between atoms: C5_13  and  N2_7 
REMARK    2  A    between atoms: C8_16  and  N2_7 
REMARK    3  A    between atoms: C1_9  and  C5_13 
REMARK    4  A    between atoms: C14_22  and  C8_16 
REMARK    5  A    between atoms: C10_18  and  C9_17 
ROOT
HETATM    1  S1  UNK     1      17.831   6.405  31.360  1.00  0.00    -0.076 SA
HETATM    2  C1  UNK     1      18.822   5.556  33.574  1.00  0.00     0.072 A 
HETATM    3  C2  UNK     1      18.386   6.889  33.822  1.00  0.00    -0.031 A 
HETATM    4  C3  UNK     1      18.576   5.191  32.288  1.00  0.00     0.093 A 
HETATM    5  C4  UNK     1      17.829   7.468  32.702  1.00  0.00    -0.012 A 
HETATM    6  C6  UNK     1      18.517   7.577  35.130  1.00  0.00     0.050 C 
HETATM    7  C7  UNK     1      17.261   8.826  32.542  1.00  0.00     0.057 C 
ENDROOT
BRANCH   4   8
HETATM    8  N1  UNK     1      18.836   3.990  31.621  1.00  0.00    -0.316 N 
HETATM    9  C10 UNK     1      17.887   3.125  31.095  1.00  0.00     0.262 C 
HETATM   10  O3  UNK     1      16.662   3.231  31.105  1.00  0.00    -0.267 OA
HETATM   11  H4  UNK     1      19.799   3.670  31.687  1.00  0.00     0.169 HD
BRANCH   9  12
HETATM   12  C9  UNK     1      18.506   1.956  30.460  1.00  0.00     0.108 A 
HETATM   13  C12 UNK     1      19.002   1.027  31.287  1.00  0.00     0.037 A 
HETATM   14  C11 UNK     1      19.636  -0.168  30.752  1.00  0.00    -0.001 A 
HETATM   15  C13 UNK     1      19.718  -0.326  29.372  1.00  0.00     0.089 A 
HETATM   16  C16 UNK     1      20.167  -1.162  31.577  1.00  0.00     0.014 A 
HETATM   17  O1  UNK     1      19.194   0.655  28.507  1.00  0.00    -0.274 OA
HETATM   18  C17 UNK     1      20.313  -1.447  28.796  1.00  0.00     0.038 A 
HETATM   19  C15 UNK     1      18.582   1.808  28.989  1.00  0.00     0.304 A 
HETATM   20  O4  UNK     1      18.131   2.657  28.228  1.00  0.00    -0.259 OA
HETATM   21  C20 UNK     1      20.839  -2.434  29.627  1.00  0.00     0.003 A 
HETATM   22  C19 UNK     1      20.766  -2.293  31.014  1.00  0.00     0.001 A 
ENDBRANCH   9  12
ENDBRANCH   4   8
BRANCH   2  23
HETATM   23  C5  UNK     1      19.447   4.687  34.539  1.00  0.00     0.255 C 
HETATM   24  N2  UNK     1      18.714   3.558  34.933  1.00  0.00    -0.352 N 
HETATM   25  H8  UNK     1      17.751   3.463  34.628  1.00  0.00     0.163 HD
HETATM   26  O2  UNK     1      20.568   4.928  35.028  1.00  0.00    -0.268 OA
BRANCH  24  27
HETATM   27  C8  UNK     1      19.191   2.609  35.914  1.00  0.00     0.162 C 
BRANCH  27  28
HETATM   28  C14 UNK     1      18.441   1.306  35.843  1.00  0.00    -0.023 A 
HETATM   29  C18 UNK     1      18.240   0.681  34.628  1.00  0.00     0.012 A 
HETATM   30  C22 UNK     1      17.544  -0.523  34.595  1.00  0.00     0.020 A 
HETATM   31  C23 UNK     1      17.084  -1.040  35.795  1.00  0.00     0.116 A 
HETATM   32  N3  UNK     1      17.269  -0.447  36.995  1.00  0.00    -0.273 NA
HETATM   33  C21 UNK     1      17.949   0.722  36.989  1.00  0.00     0.124 A 
ENDBRANCH  27  28
ENDBRANCH  24  27
ENDBRANCH   2  23
TORSDOF 5
ENDMDL
