MODEL 1
REMARK VINA RESULT:      -9.4      0.000      0.000
REMARK  7 active torsions:
REMARK  status: ('A' for Active; 'I' for Inactive)
REMARK    1  A    between atoms: C10_17  and  O1_2 
REMARK    2  A    between atoms: C2_9  and  O1_2 
REMARK    3  A    between atoms: C15_22  and  N1_7 
REMARK    4  A    between atoms: C1_8  and  C5_12 
REMARK    5  A    between atoms: C10_17  and  C3_10 
REMARK    6  A    between atoms: C11_18  and  C5_12 
REMARK    7  A    between atoms: C14_21  and  C7_14 
ROOT
HETATM    1  C1  UNK     1      17.818   7.495  32.444  1.00  0.00     0.048 A 
HETATM    2  C2  UNK     1      18.609   6.391  32.189  1.00  0.00     0.093 A 
HETATM    3  C4  UNK     1      18.225   8.505  33.295  1.00  0.00     0.018 A 
HETATM    4  C6  UNK     1      19.855   6.293  32.808  1.00  0.00     0.038 A 
HETATM    5  C8  UNK     1      19.471   8.407  33.914  1.00  0.00     0.001 A 
HETATM    6  C9  UNK     1      20.286   7.301  33.671  1.00  0.00     0.003 A 
ENDROOT
BRANCH   2   7
HETATM    7  O1  UNK     1      18.206   5.396  31.350  1.00  0.00    -0.274 OA
BRANCH   7   8
HETATM    8  C10 UNK     1      18.032   4.158  31.972  1.00  0.00     0.298 C 
HETATM    9  O3  UNK     1      17.628   3.981  33.111  1.00  0.00    -0.259 OA
BRANCH   8  10
HETATM   10  C3  UNK     1      18.424   3.047  31.067  1.00  0.00     0.040 A 
HETATM   11  C12 UNK     1      19.027   1.929  31.607  1.00  0.00     0.020 A 
HETATM   12  C16 UNK     1      19.396   0.885  30.758  1.00  0.00     0.037 A 
HETATM   13  C15 UNK     1      19.156   0.983  29.387  1.00  0.00     0.102 A 
HETATM   14  C17 UNK     1      18.545   2.125  28.866  1.00  0.00     0.037 A 
HETATM   15  C13 UNK     1      18.176   3.167  29.715  1.00  0.00     0.020 A 
BRANCH  13  16
HETATM   16  N1  UNK     1      19.533  -0.077  28.523  1.00  0.00    -0.116 N 
HETATM   17  O4  UNK     1      18.850  -0.295  27.492  1.00  0.00    -0.532 OA
HETATM   18  O5  UNK     1      20.539  -0.769  28.812  1.00  0.00    -0.532 OA
ENDBRANCH  13  16
ENDBRANCH   8  10
ENDBRANCH   7   8
ENDBRANCH   2   7
BRANCH   1  19
HETATM   19  C5  UNK     1      16.490   7.619  31.796  1.00  0.00     0.184 C 
HETATM   20  O2  UNK     1      16.354   8.352  30.823  1.00  0.00    -0.287 OA
BRANCH  19  21
HETATM   21  C11 UNK     1      15.357   6.854  32.390  1.00  0.00     0.056 C 
HETATM   22  C14 UNK     1      14.480   7.466  33.218  1.00  0.00     0.015 C 
BRANCH  22  23
HETATM   23  C7  UNK     1      14.533   8.865  33.608  1.00  0.00    -0.036 A 
HETATM   24  C18 UNK     1      15.242   9.246  34.748  1.00  0.00     0.013 A 
HETATM   25  C20 UNK     1      15.292  10.588  35.122  1.00  0.00     0.024 A 
HETATM   26  C22 UNK     1      14.634  11.551  34.358  1.00  0.00     0.034 A 
HETATM   27  C21 UNK     1      13.925  11.171  33.217  1.00  0.00     0.024 A 
HETATM   28 Cl1  UNK     1      14.696  13.208  34.820  1.00  0.00    -0.084 Cl
HETATM   29  C19 UNK     1      13.874   9.829  32.843  1.00  0.00     0.013 A 
ENDBRANCH  22  23
ENDBRANCH  19  21
ENDBRANCH   1  19
TORSDOF 7
ENDMDL
MODEL 2
REMARK VINA RESULT:      -9.2      4.486      8.591
REMARK  7 active torsions:
REMARK  status: ('A' for Active; 'I' for Inactive)
REMARK    1  A    between atoms: C10_17  and  O1_2 
REMARK    2  A    between atoms: C2_9  and  O1_2 
REMARK    3  A    between atoms: C15_22  and  N1_7 
REMARK    4  A    between atoms: C1_8  and  C5_12 
REMARK    5  A    between atoms: C10_17  and  C3_10 
REMARK    6  A    between atoms: C11_18  and  C5_12 
REMARK    7  A    between atoms: C14_21  and  C7_14 
ROOT
HETATM    1  C1  UNK     1      19.456  -0.998  31.539  1.00  0.00     0.048 A 
HETATM    2  C2  UNK     1      19.333   0.293  31.063  1.00  0.00     0.093 A 
HETATM    3  C4  UNK     1      20.110  -1.982  30.820  1.00  0.00     0.018 A 
HETATM    4  C6  UNK     1      19.883   0.614  29.822  1.00  0.00     0.038 A 
HETATM    5  C8  UNK     1      20.660  -1.661  29.579  1.00  0.00     0.001 A 
HETATM    6  C9  UNK     1      20.547  -0.364  29.080  1.00  0.00     0.003 A 
ENDROOT
BRANCH   2   7
HETATM    7  O1  UNK     1      18.687   1.262  31.772  1.00  0.00    -0.274 OA
BRANCH   7   8
HETATM    8  C10 UNK     1      18.127   2.270  30.985  1.00  0.00     0.298 C 
HETATM    9  O3  UNK     1      17.481   2.101  29.962  1.00  0.00    -0.259 OA
BRANCH   8  10
HETATM   10  C3  UNK     1      18.428   3.613  31.545  1.00  0.00     0.040 A 
HETATM   11  C12 UNK     1      19.022   4.555  30.731  1.00  0.00     0.020 A 
HETATM   12  C16 UNK     1      19.307   5.816  31.255  1.00  0.00     0.037 A 
HETATM   13  C15 UNK     1      18.992   6.107  32.583  1.00  0.00     0.102 A 
HETATM   14  C17 UNK     1      18.392   5.136  33.385  1.00  0.00     0.037 A 
HETATM   15  C13 UNK     1      18.107   3.876  32.860  1.00  0.00     0.020 A 
BRANCH  13  16
HETATM   16  N1  UNK     1      19.283   7.389  33.117  1.00  0.00    -0.116 N 
HETATM   17  O4  UNK     1      20.445   7.627  33.527  1.00  0.00    -0.532 OA
HETATM   18  O5  UNK     1      18.370   8.249  33.165  1.00  0.00    -0.532 OA
ENDBRANCH  13  16
ENDBRANCH   8  10
ENDBRANCH   7   8
ENDBRANCH   2   7
BRANCH   1  19
HETATM   19  C5  UNK     1      18.879  -1.360  32.856  1.00  0.00     0.184 C 
HETATM   20  O2  UNK     1      17.705  -1.100  33.097  1.00  0.00    -0.287 OA
BRANCH  19  21
HETATM   21  C11 UNK     1      19.779  -2.007  33.851  1.00  0.00     0.056 C 
HETATM   22  C14 UNK     1      19.697  -1.679  35.160  1.00  0.00     0.015 C 
BRANCH  22  23
HETATM   23  C7  UNK     1      18.772  -0.709  35.725  1.00  0.00    -0.036 A 
HETATM   24  C18 UNK     1      17.628  -1.144  36.394  1.00  0.00     0.013 A 
HETATM   25  C20 UNK     1      16.741  -0.214  36.936  1.00  0.00     0.024 A 
HETATM   26  C22 UNK     1      16.996   1.151  36.807  1.00  0.00     0.034 A 
HETATM   27  C21 UNK     1      18.141   1.586  36.138  1.00  0.00     0.024 A 
HETATM   28 Cl1  UNK     1      15.902   2.298  37.476  1.00  0.00    -0.084 Cl
HETATM   29  C19 UNK     1      19.028   0.657  35.597  1.00  0.00     0.013 A 
ENDBRANCH  22  23
ENDBRANCH  19  21
ENDBRANCH   1  19
TORSDOF 7
ENDMDL
MODEL 3
REMARK VINA RESULT:      -8.9      1.553      1.952
REMARK  7 active torsions:
REMARK  status: ('A' for Active; 'I' for Inactive)
REMARK    1  A    between atoms: C10_17  and  O1_2 
REMARK    2  A    between atoms: C2_9  and  O1_2 
REMARK    3  A    between atoms: C15_22  and  N1_7 
REMARK    4  A    between atoms: C1_8  and  C5_12 
REMARK    5  A    between atoms: C10_17  and  C3_10 
REMARK    6  A    between atoms: C11_18  and  C5_12 
REMARK    7  A    between atoms: C14_21  and  C7_14 
ROOT
HETATM    1  C1  UNK     1      17.276   7.724  32.786  1.00  0.00     0.048 A 
HETATM    2  C2  UNK     1      17.848   6.478  32.952  1.00  0.00     0.093 A 
HETATM    3  C4  UNK     1      17.780   8.849  33.411  1.00  0.00     0.018 A 
HETATM    4  C6  UNK     1      18.968   6.350  33.774  1.00  0.00     0.038 A 
HETATM    5  C8  UNK     1      18.900   8.721  34.233  1.00  0.00     0.001 A 
HETATM    6  C9  UNK     1      19.494   7.472  34.415  1.00  0.00     0.003 A 
ENDROOT
BRANCH   2   7
HETATM    7  O1  UNK     1      17.348   5.369  32.336  1.00  0.00    -0.274 OA
BRANCH   7   8
HETATM    8  C10 UNK     1      18.181   4.839  31.348  1.00  0.00     0.298 C 
HETATM    9  O3  UNK     1      18.660   5.458  30.410  1.00  0.00    -0.259 OA
BRANCH   8  10
HETATM   10  C3  UNK     1      18.410   3.388  31.566  1.00  0.00     0.040 A 
HETATM   11  C12 UNK     1      18.837   2.614  30.506  1.00  0.00     0.020 A 
HETATM   12  C16 UNK     1      19.052   1.251  30.709  1.00  0.00     0.037 A 
HETATM   13  C15 UNK     1      18.833   0.691  31.968  1.00  0.00     0.102 A 
HETATM   14  C17 UNK     1      18.401   1.495  33.023  1.00  0.00     0.037 A 
HETATM   15  C13 UNK     1      18.187   2.858  32.820  1.00  0.00     0.020 A 
BRANCH  13  16
HETATM   16  N1  UNK     1      19.050  -0.696  32.175  1.00  0.00    -0.116 N 
HETATM   17  O4  UNK     1      18.074  -1.425  32.482  1.00  0.00    -0.532 OA
HETATM   18  O5  UNK     1      20.210  -1.157  32.045  1.00  0.00    -0.532 OA
ENDBRANCH  13  16
ENDBRANCH   8  10
ENDBRANCH   7   8
ENDBRANCH   2   7
BRANCH   1  19
HETATM   19  C5  UNK     1      16.085   7.882  31.917  1.00  0.00     0.184 C 
HETATM   20  O2  UNK     1      16.182   8.489  30.856  1.00  0.00    -0.287 OA
BRANCH  19  21
HETATM   21  C11 UNK     1      14.796   7.310  32.399  1.00  0.00     0.056 C 
HETATM   22  C14 UNK     1      13.976   8.042  33.184  1.00  0.00     0.015 C 
BRANCH  22  23
HETATM   23  C7  UNK     1      14.235   9.402  33.630  1.00  0.00    -0.036 A 
HETATM   24  C18 UNK     1      14.770   9.631  34.898  1.00  0.00     0.013 A 
HETATM   25  C20 UNK     1      15.019  10.935  35.325  1.00  0.00     0.024 A 
HETATM   26  C22 UNK     1      14.733  12.011  34.485  1.00  0.00     0.034 A 
HETATM   27  C21 UNK     1      14.199  11.783  33.216  1.00  0.00     0.024 A 
HETATM   28 Cl1  UNK     1      15.040  13.620  35.012  1.00  0.00    -0.084 Cl
HETATM   29  C19 UNK     1      13.950  10.479  32.789  1.00  0.00     0.013 A 
ENDBRANCH  22  23
ENDBRANCH  19  21
ENDBRANCH   1  19
TORSDOF 7
ENDMDL
MODEL 4
REMARK VINA RESULT:      -8.7      5.322      9.442
REMARK  7 active torsions:
REMARK  status: ('A' for Active; 'I' for Inactive)
REMARK    1  A    between atoms: C10_17  and  O1_2 
REMARK    2  A    between atoms: C2_9  and  O1_2 
REMARK    3  A    between atoms: C15_22  and  N1_7 
REMARK    4  A    between atoms: C1_8  and  C5_12 
REMARK    5  A    between atoms: C10_17  and  C3_10 
REMARK    6  A    between atoms: C11_18  and  C5_12 
REMARK    7  A    between atoms: C14_21  and  C7_14 
ROOT
HETATM    1  C1  UNK     1      19.184  -0.383  31.568  1.00  0.00     0.048 A 
HETATM    2  C2  UNK     1      19.035   0.574  30.583  1.00  0.00     0.093 A 
HETATM    3  C4  UNK     1      20.148  -1.370  31.488  1.00  0.00     0.018 A 
HETATM    4  C6  UNK     1      19.881   0.543  29.474  1.00  0.00     0.038 A 
HETATM    5  C8  UNK     1      20.994  -1.402  30.379  1.00  0.00     0.001 A 
HETATM    6  C9  UNK     1      20.860  -0.446  29.372  1.00  0.00     0.003 A 
ENDROOT
BRANCH   2   7
HETATM    7  O1  UNK     1      18.084   1.547  30.663  1.00  0.00    -0.274 OA
BRANCH   7   8
HETATM    8  C10 UNK     1      18.329   2.656  29.851  1.00  0.00     0.298 C 
HETATM    9  O3  UNK     1      18.332   2.660  28.629  1.00  0.00    -0.259 OA
BRANCH   8  10
HETATM   10  C3  UNK     1      18.609   3.864  30.668  1.00  0.00     0.040 A 
HETATM   11  C12 UNK     1      19.374   4.875  30.122  1.00  0.00     0.020 A 
HETATM   12  C16 UNK     1      19.639   6.010  30.889  1.00  0.00     0.037 A 
HETATM   13  C15 UNK     1      19.135   6.109  32.186  1.00  0.00     0.102 A 
HETATM   14  C17 UNK     1      18.365   5.072  32.715  1.00  0.00     0.037 A 
HETATM   15  C13 UNK     1      18.099   3.938  31.948  1.00  0.00     0.020 A 
BRANCH  13  16
HETATM   16  N1  UNK     1      19.406   7.262  32.967  1.00  0.00    -0.116 N 
HETATM   17  O4  UNK     1      18.476   8.074  33.195  1.00  0.00    -0.532 OA
HETATM   18  O5  UNK     1      20.567   7.439  33.408  1.00  0.00    -0.532 OA
ENDBRANCH  13  16
ENDBRANCH   8  10
ENDBRANCH   7   8
ENDBRANCH   2   7
BRANCH   1  19
HETATM   19  C5  UNK     1      18.296  -0.367  32.756  1.00  0.00     0.184 C 
HETATM   20  O2  UNK     1      17.456  -1.248  32.898  1.00  0.00    -0.287 OA
BRANCH  19  21
HETATM   21  C11 UNK     1      18.450   0.759  33.720  1.00  0.00     0.056 C 
HETATM   22  C14 UNK     1      18.778   0.514  35.008  1.00  0.00     0.015 C 
BRANCH  22  23
HETATM   23  C7  UNK     1      19.008  -0.804  35.578  1.00  0.00    -0.036 A 
HETATM   24  C18 UNK     1      20.209  -1.470  35.334  1.00  0.00     0.013 A 
HETATM   25  C20 UNK     1      20.429  -2.734  35.880  1.00  0.00     0.024 A 
HETATM   26  C22 UNK     1      19.449  -3.333  36.672  1.00  0.00     0.034 A 
HETATM   27  C21 UNK     1      18.248  -2.666  36.917  1.00  0.00     0.024 A 
HETATM   28 Cl1  UNK     1      19.721  -4.892  37.346  1.00  0.00    -0.084 Cl
HETATM   29  C19 UNK     1      18.028  -1.403  36.371  1.00  0.00     0.013 A 
ENDBRANCH  22  23
ENDBRANCH  19  21
ENDBRANCH   1  19
TORSDOF 7
ENDMDL
MODEL 5
REMARK VINA RESULT:      -8.6     15.018     18.727
REMARK  7 active torsions:
REMARK  status: ('A' for Active; 'I' for Inactive)
REMARK    1  A    between atoms: C10_17  and  O1_2 
REMARK    2  A    between atoms: C2_9  and  O1_2 
REMARK    3  A    between atoms: C15_22  and  N1_7 
REMARK    4  A    between atoms: C1_8  and  C5_12 
REMARK    5  A    between atoms: C10_17  and  C3_10 
REMARK    6  A    between atoms: C11_18  and  C5_12 
REMARK    7  A    between atoms: C14_21  and  C7_14 
ROOT
HETATM    1  C1  UNK     1      25.252  -9.793  36.839  1.00  0.00     0.048 A 
HETATM    2  C2  UNK     1      23.923  -9.576  36.530  1.00  0.00     0.093 A 
HETATM    3  C4  UNK     1      25.860 -11.017  36.630  1.00  0.00     0.018 A 
HETATM    4  C6  UNK     1      23.173 -10.622  35.991  1.00  0.00     0.038 A 
HETATM    5  C8  UNK     1      25.110 -12.062  36.091  1.00  0.00     0.001 A 
HETATM    6  C9  UNK     1      23.767 -11.865  35.772  1.00  0.00     0.003 A 
ENDROOT
BRANCH   2   7
HETATM    7  O1  UNK     1      23.324  -8.370  36.738  1.00  0.00    -0.274 OA
BRANCH   7   8
HETATM    8  C10 UNK     1      22.364  -8.374  37.752  1.00  0.00     0.298 C 
HETATM    9  O3  UNK     1      22.570  -8.627  38.929  1.00  0.00    -0.259 OA
BRANCH   8  10
HETATM   10  C3  UNK     1      21.020  -8.040  37.216  1.00  0.00     0.040 A 
HETATM   11  C12 UNK     1      19.923  -8.165  38.043  1.00  0.00     0.020 A 
HETATM   12  C16 UNK     1      18.660  -7.853  37.541  1.00  0.00     0.037 A 
HETATM   13  C15 UNK     1      18.521  -7.423  36.220  1.00  0.00     0.102 A 
HETATM   14  C17 UNK     1      19.647  -7.305  35.404  1.00  0.00     0.037 A 
HETATM   15  C13 UNK     1      20.909  -7.617  35.907  1.00  0.00     0.020 A 
BRANCH  13  16
HETATM   16  N1  UNK     1      17.236  -7.107  35.708  1.00  0.00    -0.116 N 
HETATM   17  O4  UNK     1      16.521  -6.282  36.327  1.00  0.00    -0.532 OA
HETATM   18  O5  UNK     1      16.850  -7.661  34.650  1.00  0.00    -0.532 OA
ENDBRANCH  13  16
ENDBRANCH   8  10
ENDBRANCH   7   8
ENDBRANCH   2   7
BRANCH   1  19
HETATM   19  C5  UNK     1      26.067  -8.695  37.413  1.00  0.00     0.184 C 
HETATM   20  O2  UNK     1      26.725  -7.975  36.671  1.00  0.00    -0.287 OA
BRANCH  19  21
HETATM   21  C11 UNK     1      26.071  -8.538  38.894  1.00  0.00     0.056 C 
HETATM   22  C14 UNK     1      27.237  -8.411  39.565  1.00  0.00     0.015 C 
BRANCH  22  23
HETATM   23  C7  UNK     1      28.558  -8.412  38.956  1.00  0.00    -0.036 A 
HETATM   24  C18 UNK     1      29.196  -7.204  38.672  1.00  0.00     0.013 A 
HETATM   25  C20 UNK     1      30.462  -7.205  38.088  1.00  0.00     0.024 A 
HETATM   26  C22 UNK     1      31.092  -8.413  37.787  1.00  0.00     0.034 A 
HETATM   27  C21 UNK     1      30.454  -9.621  38.072  1.00  0.00     0.024 A 
HETATM   28 Cl1  UNK     1      32.654  -8.413  37.067  1.00  0.00    -0.084 Cl
HETATM   29  C19 UNK     1      29.188  -9.620  38.656  1.00  0.00     0.013 A 
ENDBRANCH  22  23
ENDBRANCH  19  21
ENDBRANCH   1  19
TORSDOF 7
ENDMDL
MODEL 6
REMARK VINA RESULT:      -8.4     17.422     19.732
REMARK  7 active torsions:
REMARK  status: ('A' for Active; 'I' for Inactive)
REMARK    1  A    between atoms: C10_17  and  O1_2 
REMARK    2  A    between atoms: C2_9  and  O1_2 
REMARK    3  A    between atoms: C15_22  and  N1_7 
REMARK    4  A    between atoms: C1_8  and  C5_12 
REMARK    5  A    between atoms: C10_17  and  C3_10 
REMARK    6  A    between atoms: C11_18  and  C5_12 
REMARK    7  A    between atoms: C14_21  and  C7_14 
ROOT
HETATM    1  C1  UNK     1      31.854  -6.758  33.403  1.00  0.00     0.048 A 
HETATM    2  C2  UNK     1      33.099  -6.274  33.757  1.00  0.00     0.093 A 
HETATM    3  C4  UNK     1      31.689  -8.011  32.844  1.00  0.00     0.018 A 
HETATM    4  C6  UNK     1      34.222  -7.074  33.544  1.00  0.00     0.038 A 
HETATM    5  C8  UNK     1      32.812  -8.811  32.631  1.00  0.00     0.001 A 
HETATM    6  C9  UNK     1      34.078  -8.342  32.980  1.00  0.00     0.003 A 
ENDROOT
BRANCH   2   7
HETATM    7  O1  UNK     1      33.260  -5.038  34.307  1.00  0.00    -0.274 OA
BRANCH   7   8
HETATM    8  C10 UNK     1      33.710  -5.054  35.629  1.00  0.00     0.298 C 
HETATM    9  O3  UNK     1      34.868  -5.200  35.988  1.00  0.00    -0.259 OA
BRANCH   8  10
HETATM   10  C3  UNK     1      32.580  -4.884  36.578  1.00  0.00     0.040 A 
HETATM   11  C12 UNK     1      32.355  -5.860  37.528  1.00  0.00     0.020 A 
HETATM   12  C16 UNK     1      31.293  -5.703  38.419  1.00  0.00     0.037 A 
HETATM   13  C15 UNK     1      30.478  -4.573  38.340  1.00  0.00     0.102 A 
HETATM   14  C17 UNK     1      30.726  -3.602  37.370  1.00  0.00     0.037 A 
HETATM   15  C13 UNK     1      31.788  -3.759  36.480  1.00  0.00     0.020 A 
BRANCH  13  16
HETATM   16  N1  UNK     1      29.397  -4.414  39.245  1.00  0.00    -0.116 N 
HETATM   17  O4  UNK     1      29.506  -3.587  40.183  1.00  0.00    -0.532 OA
HETATM   18  O5  UNK     1      28.361  -5.103  39.083  1.00  0.00    -0.532 OA
ENDBRANCH  13  16
ENDBRANCH   8  10
ENDBRANCH   7   8
ENDBRANCH   2   7
BRANCH   1  19
HETATM   19  C5  UNK     1      30.647  -5.925  33.621  1.00  0.00     0.184 C 
HETATM   20  O2  UNK     1      29.792  -6.290  34.420  1.00  0.00    -0.287 OA
BRANCH  19  21
HETATM   21  C11 UNK     1      30.516  -4.675  32.820  1.00  0.00     0.056 C 
HETATM   22  C14 UNK     1      29.946  -4.706  31.595  1.00  0.00     0.015 C 
BRANCH  22  23
HETATM   23  C7  UNK     1      29.419  -5.895  30.946  1.00  0.00    -0.036 A 
HETATM   24  C18 UNK     1      30.196  -6.583  30.012  1.00  0.00     0.013 A 
HETATM   25  C20 UNK     1      29.691  -7.724  29.389  1.00  0.00     0.024 A 
HETATM   26  C22 UNK     1      28.409  -8.178  29.698  1.00  0.00     0.034 A 
HETATM   27  C21 UNK     1      27.632  -7.492  30.632  1.00  0.00     0.024 A 
HETATM   28 Cl1  UNK     1      27.786  -9.586  28.930  1.00  0.00    -0.084 Cl
HETATM   29  C19 UNK     1      28.137  -6.351  31.255  1.00  0.00     0.013 A 
ENDBRANCH  22  23
ENDBRANCH  19  21
ENDBRANCH   1  19
TORSDOF 7
ENDMDL
MODEL 7
REMARK VINA RESULT:      -8.3     17.774     20.100
REMARK  7 active torsions:
REMARK  status: ('A' for Active; 'I' for Inactive)
REMARK    1  A    between atoms: C10_17  and  O1_2 
REMARK    2  A    between atoms: C2_9  and  O1_2 
REMARK    3  A    between atoms: C15_22  and  N1_7 
REMARK    4  A    between atoms: C1_8  and  C5_12 
REMARK    5  A    between atoms: C10_17  and  C3_10 
REMARK    6  A    between atoms: C11_18  and  C5_12 
REMARK    7  A    between atoms: C14_21  and  C7_14 
ROOT
HETATM    1  C1  UNK     1      32.768  -7.097  32.975  1.00  0.00     0.048 A 
HETATM    2  C2  UNK     1      33.815  -6.953  33.865  1.00  0.00     0.093 A 
HETATM    3  C4  UNK     1      32.980  -7.333  31.630  1.00  0.00     0.018 A 
HETATM    4  C6  UNK     1      35.124  -7.049  33.392  1.00  0.00     0.038 A 
HETATM    5  C8  UNK     1      34.289  -7.429  31.157  1.00  0.00     0.001 A 
HETATM    6  C9  UNK     1      35.361  -7.287  32.038  1.00  0.00     0.003 A 
ENDROOT
BRANCH   2   7
HETATM    7  O1  UNK     1      33.605  -6.719  35.191  1.00  0.00    -0.274 OA
BRANCH   7   8
HETATM    8  C10 UNK     1      33.563  -5.366  35.535  1.00  0.00     0.298 C 
HETATM    9  O3  UNK     1      34.333  -4.504  35.139  1.00  0.00    -0.259 OA
BRANCH   8  10
HETATM   10  C3  UNK     1      32.449  -5.090  36.478  1.00  0.00     0.040 A 
HETATM   11  C12 UNK     1      31.900  -3.824  36.508  1.00  0.00     0.020 A 
HETATM   12  C16 UNK     1      30.855  -3.562  37.394  1.00  0.00     0.037 A 
HETATM   13  C15 UNK     1      30.382  -4.573  38.232  1.00  0.00     0.102 A 
HETATM   14  C17 UNK     1      30.955  -5.844  38.182  1.00  0.00     0.037 A 
HETATM   15  C13 UNK     1      31.999  -6.105  37.296  1.00  0.00     0.020 A 
BRANCH  13  16
HETATM   16  N1  UNK     1      29.320  -4.307  39.135  1.00  0.00    -0.116 N 
HETATM   17  O4  UNK     1      29.532  -3.559  40.120  1.00  0.00    -0.532 OA
HETATM   18  O5  UNK     1      28.198  -4.828  38.924  1.00  0.00    -0.532 OA
ENDBRANCH  13  16
ENDBRANCH   8  10
ENDBRANCH   7   8
ENDBRANCH   2   7
BRANCH   1  19
HETATM   19  C5  UNK     1      31.369  -6.998  33.457  1.00  0.00     0.184 C 
HETATM   20  O2  UNK     1      30.826  -7.980  33.951  1.00  0.00    -0.287 OA
BRANCH  19  21
HETATM   21  C11 UNK     1      30.669  -5.694  33.286  1.00  0.00     0.056 C 
HETATM   22  C14 UNK     1      29.722  -5.548  32.332  1.00  0.00     0.015 C 
BRANCH  22  23
HETATM   23  C7  UNK     1      29.295  -6.587  31.409  1.00  0.00    -0.036 A 
HETATM   24  C18 UNK     1      28.258  -7.451  31.762  1.00  0.00     0.013 A 
HETATM   25  C20 UNK     1      27.848  -8.447  30.877  1.00  0.00     0.024 A 
HETATM   26  C22 UNK     1      28.475  -8.582  29.638  1.00  0.00     0.034 A 
HETATM   27  C21 UNK     1      29.512  -7.718  29.284  1.00  0.00     0.024 A 
HETATM   28 Cl1  UNK     1      27.969  -9.812  28.546  1.00  0.00    -0.084 Cl
HETATM   29  C19 UNK     1      29.922  -6.722  30.170  1.00  0.00     0.013 A 
ENDBRANCH  22  23
ENDBRANCH  19  21
ENDBRANCH   1  19
TORSDOF 7
ENDMDL
MODEL 8
REMARK VINA RESULT:      -8.2      3.617      5.360
REMARK  7 active torsions:
REMARK  status: ('A' for Active; 'I' for Inactive)
REMARK    1  A    between atoms: C10_17  and  O1_2 
REMARK    2  A    between atoms: C2_9  and  O1_2 
REMARK    3  A    between atoms: C15_22  and  N1_7 
REMARK    4  A    between atoms: C1_8  and  C5_12 
REMARK    5  A    between atoms: C10_17  and  C3_10 
REMARK    6  A    between atoms: C11_18  and  C5_12 
REMARK    7  A    between atoms: C14_21  and  C7_14 
ROOT
HETATM    1  C1  UNK     1      19.457   5.505  32.260  1.00  0.00     0.048 A 
HETATM    2  C2  UNK     1      18.643   4.437  31.936  1.00  0.00     0.093 A 
HETATM    3  C4  UNK     1      20.107   6.248  31.292  1.00  0.00     0.018 A 
HETATM    4  C6  UNK     1      18.471   4.098  30.594  1.00  0.00     0.038 A 
HETATM    5  C8  UNK     1      19.935   5.910  29.950  1.00  0.00     0.001 A 
HETATM    6  C9  UNK     1      19.118   4.835  29.601  1.00  0.00     0.003 A 
ENDROOT
BRANCH   2   7
HETATM    7  O1  UNK     1      18.004   3.704  32.891  1.00  0.00    -0.274 OA
BRANCH   7   8
HETATM    8  C10 UNK     1      18.204   2.327  32.786  1.00  0.00     0.298 C 
HETATM    9  O3  UNK     1      18.384   1.709  31.748  1.00  0.00    -0.259 OA
BRANCH   8  10
HETATM   10  C3  UNK     1      18.156   1.677  34.121  1.00  0.00     0.040 A 
HETATM   11  C12 UNK     1      18.012   0.306  34.190  1.00  0.00     0.020 A 
HETATM   12  C16 UNK     1      17.965  -0.305  35.443  1.00  0.00     0.037 A 
HETATM   13  C15 UNK     1      18.061   0.469  36.600  1.00  0.00     0.102 A 
HETATM   14  C17 UNK     1      18.205   1.853  36.503  1.00  0.00     0.037 A 
HETATM   15  C13 UNK     1      18.253   2.464  35.250  1.00  0.00     0.020 A 
BRANCH  13  16
HETATM   16  N1  UNK     1      18.011  -0.152  37.875  1.00  0.00    -0.116 N 
HETATM   17  O4  UNK     1      17.994   0.569  38.903  1.00  0.00    -0.532 OA
HETATM   18  O5  UNK     1      17.987  -1.405  37.941  1.00  0.00    -0.532 OA
ENDBRANCH  13  16
ENDBRANCH   8  10
ENDBRANCH   7   8
ENDBRANCH   2   7
BRANCH   1  19
HETATM   19  C5  UNK     1      19.653   5.882  33.681  1.00  0.00     0.184 C 
HETATM   20  O2  UNK     1      19.541   5.032  34.556  1.00  0.00    -0.287 OA
BRANCH  19  21
HETATM   21  C11 UNK     1      19.953   7.310  33.982  1.00  0.00     0.056 C 
HETATM   22  C14 UNK     1      18.979   8.244  33.903  1.00  0.00     0.015 C 
BRANCH  22  23
HETATM   23  C7  UNK     1      17.597   7.983  33.535  1.00  0.00    -0.036 A 
HETATM   24  C18 UNK     1      17.194   8.103  32.205  1.00  0.00     0.013 A 
HETATM   25  C20 UNK     1      15.869   7.853  31.852  1.00  0.00     0.024 A 
HETATM   26  C22 UNK     1      14.944   7.484  32.829  1.00  0.00     0.034 A 
HETATM   27  C21 UNK     1      15.346   7.364  34.160  1.00  0.00     0.024 A 
HETATM   28 Cl1  UNK     1      13.308   7.176  32.394  1.00  0.00    -0.084 Cl
HETATM   29  C19 UNK     1      16.672   7.614  34.512  1.00  0.00     0.013 A 
ENDBRANCH  22  23
ENDBRANCH  19  21
ENDBRANCH   1  19
TORSDOF 7
ENDMDL
MODEL 9
REMARK VINA RESULT:      -8.1      1.957      3.549
REMARK  7 active torsions:
REMARK  status: ('A' for Active; 'I' for Inactive)
REMARK    1  A    between atoms: C10_17  and  O1_2 
REMARK    2  A    between atoms: C2_9  and  O1_2 
REMARK    3  A    between atoms: C15_22  and  N1_7 
REMARK    4  A    between atoms: C1_8  and  C5_12 
REMARK    5  A    between atoms: C10_17  and  C3_10 
REMARK    6  A    between atoms: C11_18  and  C5_12 
REMARK    7  A    between atoms: C14_21  and  C7_14 
ROOT
HETATM    1  C1  UNK     1      15.911   8.248  33.655  1.00  0.00     0.048 A 
HETATM    2  C2  UNK     1      16.476   7.637  32.553  1.00  0.00     0.093 A 
HETATM    3  C4  UNK     1      14.550   8.212  33.894  1.00  0.00     0.018 A 
HETATM    4  C6  UNK     1      15.649   6.962  31.654  1.00  0.00     0.038 A 
HETATM    5  C8  UNK     1      13.723   7.537  32.995  1.00  0.00     0.001 A 
HETATM    6  C9  UNK     1      14.272   6.913  31.876  1.00  0.00     0.003 A 
ENDROOT
BRANCH   2   7
HETATM    7  O1  UNK     1      17.818   7.674  32.318  1.00  0.00    -0.274 OA
BRANCH   7   8
HETATM    8  C10 UNK     1      18.523   6.593  32.850  1.00  0.00     0.298 C 
HETATM    9  O3  UNK     1      19.060   6.560  33.947  1.00  0.00    -0.259 OA
BRANCH   8  10
HETATM   10  C3  UNK     1      18.559   5.458  31.893  1.00  0.00     0.040 A 
HETATM   11  C12 UNK     1      19.022   5.681  30.612  1.00  0.00     0.020 A 
HETATM   12  C16 UNK     1      19.056   4.617  29.711  1.00  0.00     0.037 A 
HETATM   13  C15 UNK     1      18.624   3.351  30.111  1.00  0.00     0.102 A 
HETATM   14  C17 UNK     1      18.160   3.152  31.412  1.00  0.00     0.037 A 
HETATM   15  C13 UNK     1      18.127   4.216  32.312  1.00  0.00     0.020 A 
BRANCH  13  16
HETATM   16  N1  UNK     1      18.656   2.268  29.194  1.00  0.00    -0.116 N 
HETATM   17  O4  UNK     1      17.961   2.333  28.151  1.00  0.00    -0.532 OA
HETATM   18  O5  UNK     1      19.379   1.275  29.452  1.00  0.00    -0.532 OA
ENDBRANCH  13  16
ENDBRANCH   8  10
ENDBRANCH   7   8
ENDBRANCH   2   7
BRANCH   1  19
HETATM   19  C5  UNK     1      16.772   8.970  34.623  1.00  0.00     0.184 C 
HETATM   20  O2  UNK     1      16.807   8.609  35.794  1.00  0.00    -0.287 OA
BRANCH  19  21
HETATM   21  C11 UNK     1      17.545  10.142  34.121  1.00  0.00     0.056 C 
HETATM   22  C14 UNK     1      16.983  11.371  34.098  1.00  0.00     0.015 C 
BRANCH  22  23
HETATM   23  C7  UNK     1      15.632  11.683  34.535  1.00  0.00    -0.036 A 
HETATM   24  C18 UNK     1      14.588  11.714  33.610  1.00  0.00     0.013 A 
HETATM   25  C20 UNK     1      13.292  12.013  34.030  1.00  0.00     0.024 A 
HETATM   26  C22 UNK     1      13.039  12.283  35.375  1.00  0.00     0.034 A 
HETATM   27  C21 UNK     1      14.082  12.251  36.301  1.00  0.00     0.024 A 
HETATM   28 Cl1  UNK     1      11.440  12.652  35.892  1.00  0.00    -0.084 Cl
HETATM   29  C19 UNK     1      15.378  11.952  35.881  1.00  0.00     0.013 A 
ENDBRANCH  22  23
ENDBRANCH  19  21
ENDBRANCH   1  19
TORSDOF 7
ENDMDL
MODEL 10
REMARK VINA RESULT:      -8.1     17.210     18.752
REMARK  7 active torsions:
REMARK  status: ('A' for Active; 'I' for Inactive)
REMARK    1  A    between atoms: C10_17  and  O1_2 
REMARK    2  A    between atoms: C2_9  and  O1_2 
REMARK    3  A    between atoms: C15_22  and  N1_7 
REMARK    4  A    between atoms: C1_8  and  C5_12 
REMARK    5  A    between atoms: C10_17  and  C3_10 
REMARK    6  A    between atoms: C11_18  and  C5_12 
REMARK    7  A    between atoms: C14_21  and  C7_14 
ROOT
HETATM    1  C1  UNK     1      27.648  -7.950  38.292  1.00  0.00     0.048 A 
HETATM    2  C2  UNK     1      26.408  -8.554  38.202  1.00  0.00     0.093 A 
HETATM    3  C4  UNK     1      28.704  -8.546  38.955  1.00  0.00     0.018 A 
HETATM    4  C6  UNK     1      26.217  -9.800  38.798  1.00  0.00     0.038 A 
HETATM    5  C8  UNK     1      28.513  -9.793  39.551  1.00  0.00     0.001 A 
HETATM    6  C9  UNK     1      27.270 -10.420  39.473  1.00  0.00     0.003 A 
ENDROOT
BRANCH   2   7
HETATM    7  O1  UNK     1      25.367  -7.965  37.549  1.00  0.00    -0.274 OA
BRANCH   7   8
HETATM    8  C10 UNK     1      24.364  -7.479  38.390  1.00  0.00     0.298 C 
HETATM    9  O3  UNK     1      24.480  -6.551  39.176  1.00  0.00    -0.259 OA
BRANCH   8  10
HETATM   10  C3  UNK     1      23.108  -8.253  38.225  1.00  0.00     0.040 A 
HETATM   11  C12 UNK     1      22.853  -8.858  37.011  1.00  0.00     0.020 A 
HETATM   12  C16 UNK     1      21.673  -9.584  36.853  1.00  0.00     0.037 A 
HETATM   13  C15 UNK     1      20.772  -9.690  37.914  1.00  0.00     0.102 A 
HETATM   14  C17 UNK     1      21.053  -9.068  39.131  1.00  0.00     0.037 A 
HETATM   15  C13 UNK     1      22.233  -8.343  39.288  1.00  0.00     0.020 A 
BRANCH  13  16
HETATM   16  N1  UNK     1      19.570 -10.427  37.754  1.00  0.00    -0.116 N 
HETATM   17  O4  UNK     1      19.470 -11.553  38.301  1.00  0.00    -0.532 OA
HETATM   18  O5  UNK     1      18.641  -9.935  37.069  1.00  0.00    -0.532 OA
ENDBRANCH  13  16
ENDBRANCH   8  10
ENDBRANCH   7   8
ENDBRANCH   2   7
BRANCH   1  19
HETATM   19  C5  UNK     1      27.873  -6.625  37.665  1.00  0.00     0.184 C 
HETATM   20  O2  UNK     1      28.177  -6.557  36.479  1.00  0.00    -0.287 OA
BRANCH  19  21
HETATM   21  C11 UNK     1      27.746  -5.420  38.532  1.00  0.00     0.056 C 
HETATM   22  C14 UNK     1      28.819  -4.634  38.770  1.00  0.00     0.015 C 
BRANCH  22  23
HETATM   23  C7  UNK     1      30.154  -4.856  38.239  1.00  0.00    -0.036 A 
HETATM   24  C18 UNK     1      30.661  -4.013  37.250  1.00  0.00     0.013 A 
HETATM   25  C20 UNK     1      31.941  -4.225  36.740  1.00  0.00     0.024 A 
HETATM   26  C22 UNK     1      32.717  -5.282  37.218  1.00  0.00     0.034 A 
HETATM   27  C21 UNK     1      32.211  -6.125  38.208  1.00  0.00     0.024 A 
HETATM   28 Cl1  UNK     1      34.296  -5.544  36.589  1.00  0.00    -0.084 Cl
HETATM   29  C19 UNK     1      30.930  -5.913  38.717  1.00  0.00     0.013 A 
ENDBRANCH  22  23
ENDBRANCH  19  21
ENDBRANCH   1  19
TORSDOF 7
ENDMDL
