MODEL 1
REMARK VINA RESULT:      -9.1      0.000      0.000
REMARK  1 active torsions:
REMARK  status: ('A' for Active; 'I' for Inactive)
REMARK    1  A    between atoms: C1_4  and  C3_6 
ROOT
HETATM    1  O2  UNK     1      20.985  -2.398  30.901  1.00  0.00    -0.275 OA
HETATM    2  O3  UNK     1      21.441  -3.982  32.485  1.00  0.00    -0.260 OA
HETATM    3  C1  UNK     1      19.332  -1.107  32.819  1.00  0.00     0.017 A 
HETATM    4  C2  UNK     1      19.492  -0.552  31.463  1.00  0.00     0.012 A 
HETATM    5  C4  UNK     1      20.312  -1.213  30.550  1.00  0.00     0.090 A 
HETATM    6  C8  UNK     1      18.854   0.623  31.041  1.00  0.00     0.022 A 
HETATM    7  C9  UNK     1      19.041   1.107  29.742  1.00  0.00    -0.061 A 
HETATM    8  C10 UNK     1      19.989  -2.240  33.120  1.00  0.00     0.097 A 
HETATM    9  C11 UNK     1      20.507  -0.741  29.251  1.00  0.00     0.039 A 
HETATM   10  C12 UNK     1      19.867   0.426  28.849  1.00  0.00     0.009 A 
HETATM   11  C14 UNK     1      20.860  -2.951  32.166  1.00  0.00     0.289 A 
HETATM   12  C16 UNK     1      18.354   2.359  29.310  1.00  0.00     0.048 C 
ENDROOT
BRANCH   3  13
HETATM   13  C3  UNK     1      18.539  -0.551  33.845  1.00  0.00     0.088 A 
HETATM   14  O1  UNK     1      19.053   0.289  34.783  1.00  0.00    -0.309 OA
HETATM   15  C7  UNK     1      18.030   0.634  35.613  1.00  0.00     0.086 A 
HETATM   16  C15 UNK     1      18.127   1.485  36.714  1.00  0.00     0.038 A 
HETATM   17  C5  UNK     1      16.852   0.014  35.209  1.00  0.00     0.000 A 
HETATM   18  C18 UNK     1      16.949   1.705  37.435  1.00  0.00     0.003 A 
HETATM   19  C17 UNK     1      15.746   1.101  37.061  1.00  0.00     0.001 A 
HETATM   20  C13 UNK     1      15.680   0.250  35.948  1.00  0.00     0.014 A 
HETATM   21  C6  UNK     1      17.193  -0.752  34.063  1.00  0.00     0.052 A 
ENDBRANCH   3  13
TORSDOF 1
ENDMDL
MODEL 2
REMARK VINA RESULT:      -9.1     24.186     26.162
REMARK  1 active torsions:
REMARK  status: ('A' for Active; 'I' for Inactive)
REMARK    1  A    between atoms: C1_4  and  C3_6 
ROOT
HETATM    1  O2  UNK     1      16.371   5.887  10.035  1.00  0.00    -0.275 OA
HETATM    2  O3  UNK     1      15.960   3.643   9.890  1.00  0.00    -0.260 OA
HETATM    3  C1  UNK     1      13.746   6.327   9.039  1.00  0.00     0.017 A 
HETATM    4  C2  UNK     1      14.629   7.459   9.368  1.00  0.00     0.012 A 
HETATM    5  C4  UNK     1      15.910   7.204   9.854  1.00  0.00     0.090 A 
HETATM    6  C8  UNK     1      14.240   8.797   9.215  1.00  0.00     0.022 A 
HETATM    7  C9  UNK     1      15.118   9.836   9.542  1.00  0.00    -0.061 A 
HETATM    8  C10 UNK     1      14.219   5.082   9.223  1.00  0.00     0.097 A 
HETATM    9  C11 UNK     1      16.797   8.231  10.185  1.00  0.00     0.039 A 
HETATM   10  C12 UNK     1      16.394   9.553  10.027  1.00  0.00     0.009 A 
HETATM   11  C14 UNK     1      15.571   4.795   9.737  1.00  0.00     0.289 A 
HETATM   12  C16 UNK     1      14.687  11.254   9.373  1.00  0.00     0.048 C 
ENDROOT
BRANCH   3  13
HETATM   13  C3  UNK     1      12.431   6.428   8.540  1.00  0.00     0.088 A 
HETATM   14  O1  UNK     1      11.389   6.825   9.319  1.00  0.00    -0.309 OA
HETATM   15  C7  UNK     1      10.276   6.813   8.533  1.00  0.00     0.086 A 
HETATM   16  C15 UNK     1       8.988   7.155   8.943  1.00  0.00     0.038 A 
HETATM   17  C5  UNK     1      10.602   6.406   7.244  1.00  0.00     0.000 A 
HETATM   18  C18 UNK     1       7.984   7.072   7.972  1.00  0.00     0.003 A 
HETATM   19  C17 UNK     1       8.271   6.667   6.666  1.00  0.00     0.001 A 
HETATM   20  C13 UNK     1       9.577   6.330   6.284  1.00  0.00     0.014 A 
HETATM   21  C6  UNK     1      11.999   6.159   7.258  1.00  0.00     0.052 A 
ENDBRANCH   3  13
TORSDOF 1
ENDMDL
MODEL 3
REMARK VINA RESULT:      -9.0      3.402      4.833
REMARK  1 active torsions:
REMARK  status: ('A' for Active; 'I' for Inactive)
REMARK    1  A    between atoms: C1_4  and  C3_6 
ROOT
HETATM    1  O2  UNK     1      18.859   3.638  29.581  1.00  0.00    -0.275 OA
HETATM    2  O3  UNK     1      18.942   1.436  28.975  1.00  0.00    -0.260 OA
HETATM    3  C1  UNK     1      18.324   2.780  32.237  1.00  0.00     0.017 A 
HETATM    4  C2  UNK     1      18.411   4.213  31.910  1.00  0.00     0.012 A 
HETATM    5  C4  UNK     1      18.675   4.596  30.596  1.00  0.00     0.090 A 
HETATM    6  C8  UNK     1      18.240   5.224  32.866  1.00  0.00     0.022 A 
HETATM    7  C9  UNK     1      18.334   6.572  32.502  1.00  0.00    -0.061 A 
HETATM    8  C10 UNK     1      18.504   1.892  31.244  1.00  0.00     0.097 A 
HETATM    9  C11 UNK     1      18.771   5.937  30.219  1.00  0.00     0.039 A 
HETATM   10  C12 UNK     1      18.599   6.927  31.180  1.00  0.00     0.009 A 
HETATM   11  C14 UNK     1      18.784   2.281  29.850  1.00  0.00     0.289 A 
HETATM   12  C16 UNK     1      18.149   7.634  33.533  1.00  0.00     0.048 C 
ENDROOT
BRANCH   3  13
HETATM   13  C3  UNK     1      18.064   2.243  33.516  1.00  0.00     0.088 A 
HETATM   14  O1  UNK     1      17.206   1.204  33.705  1.00  0.00    -0.309 OA
HETATM   15  C7  UNK     1      17.188   0.941  35.041  1.00  0.00     0.086 A 
HETATM   16  C15 UNK     1      16.435  -0.055  35.663  1.00  0.00     0.038 A 
HETATM   17  C5  UNK     1      18.036   1.813  35.715  1.00  0.00     0.000 A 
HETATM   18  C18 UNK     1      16.563  -0.154  37.052  1.00  0.00     0.003 A 
HETATM   19  C17 UNK     1      17.405   0.703  37.766  1.00  0.00     0.001 A 
HETATM   20  C13 UNK     1      18.150   1.695  37.112  1.00  0.00     0.014 A 
HETATM   21  C6  UNK     1      18.599   2.652  34.719  1.00  0.00     0.052 A 
ENDBRANCH   3  13
TORSDOF 1
ENDMDL
MODEL 4
REMARK VINA RESULT:      -8.9      2.088      3.734
REMARK  1 active torsions:
REMARK  status: ('A' for Active; 'I' for Inactive)
REMARK    1  A    between atoms: C1_4  and  C3_6 
ROOT
HETATM    1  O2  UNK     1      19.292   1.611  29.035  1.00  0.00    -0.275 OA
HETATM    2  O3  UNK     1      18.297   3.667  29.134  1.00  0.00    -0.260 OA
HETATM    3  C1  UNK     1      18.665   1.290  31.789  1.00  0.00     0.017 A 
HETATM    4  C2  UNK     1      19.372   0.232  31.046  1.00  0.00     0.012 A 
HETATM    5  C4  UNK     1      19.662   0.426  29.697  1.00  0.00     0.090 A 
HETATM    6  C8  UNK     1      19.772  -0.974  31.637  1.00  0.00     0.022 A 
HETATM    7  C9  UNK     1      20.441  -1.947  30.887  1.00  0.00    -0.061 A 
HETATM    8  C10 UNK     1      18.327   2.410  31.126  1.00  0.00     0.097 A 
HETATM    9  C11 UNK     1      20.329  -0.537  28.936  1.00  0.00     0.039 A 
HETATM   10  C12 UNK     1      20.719  -1.728  29.538  1.00  0.00     0.009 A 
HETATM   11  C14 UNK     1      18.626   2.629  29.699  1.00  0.00     0.289 A 
HETATM   12  C16 UNK     1      20.860  -3.226  31.532  1.00  0.00     0.048 C 
ENDROOT
BRANCH   3  13
HETATM   13  C3  UNK     1      18.305   1.238  33.152  1.00  0.00     0.088 A 
HETATM   14  O1  UNK     1      17.508   0.257  33.653  1.00  0.00    -0.309 OA
HETATM   15  C7  UNK     1      17.362   0.504  34.985  1.00  0.00     0.086 A 
HETATM   16  C15 UNK     1      16.618  -0.267  35.878  1.00  0.00     0.038 A 
HETATM   17  C5  UNK     1      18.067   1.648  35.342  1.00  0.00     0.000 A 
HETATM   18  C18 UNK     1      16.600   0.167  37.207  1.00  0.00     0.003 A 
HETATM   19  C17 UNK     1      17.295   1.312  37.606  1.00  0.00     0.001 A 
HETATM   20  C13 UNK     1      18.036   2.066  36.685  1.00  0.00     0.014 A 
HETATM   21  C6  UNK     1      18.674   2.116  34.148  1.00  0.00     0.052 A 
ENDBRANCH   3  13
TORSDOF 1
ENDMDL
MODEL 5
REMARK VINA RESULT:      -8.7      4.584      6.327
REMARK  1 active torsions:
REMARK  status: ('A' for Active; 'I' for Inactive)
REMARK    1  A    between atoms: C1_4  and  C3_6 
ROOT
HETATM    1  O2  UNK     1      18.702   0.759  31.283  1.00  0.00    -0.275 OA
HETATM    2  O3  UNK     1      18.879   1.605  29.167  1.00  0.00    -0.260 OA
HETATM    3  C1  UNK     1      18.326   3.422  32.205  1.00  0.00     0.017 A 
HETATM    4  C2  UNK     1      18.321   2.289  33.146  1.00  0.00     0.012 A 
HETATM    5  C4  UNK     1      18.509   0.997  32.657  1.00  0.00     0.090 A 
HETATM    6  C8  UNK     1      18.136   2.447  34.527  1.00  0.00     0.022 A 
HETATM    7  C9  UNK     1      18.140   1.336  35.378  1.00  0.00    -0.061 A 
HETATM    8  C10 UNK     1      18.513   3.159  30.900  1.00  0.00     0.097 A 
HETATM    9  C11 UNK     1      18.516  -0.120  33.495  1.00  0.00     0.039 A 
HETATM   10  C12 UNK     1      18.330   0.055  34.862  1.00  0.00     0.009 A 
HETATM   11  C14 UNK     1      18.712   1.799  30.367  1.00  0.00     0.289 A 
HETATM   12  C16 UNK     1      17.941   1.524  36.844  1.00  0.00     0.048 C 
ENDROOT
BRANCH   3  13
HETATM   13  C3  UNK     1      18.150   4.778  32.550  1.00  0.00     0.088 A 
HETATM   14  O1  UNK     1      16.954   5.411  32.415  1.00  0.00    -0.309 OA
HETATM   15  C7  UNK     1      17.133   6.695  32.834  1.00  0.00     0.086 A 
HETATM   16  C15 UNK     1      16.152   7.686  32.859  1.00  0.00     0.038 A 
HETATM   17  C5  UNK     1      18.449   6.890  33.240  1.00  0.00     0.000 A 
HETATM   18  C18 UNK     1      16.550   8.942  33.327  1.00  0.00     0.003 A 
HETATM   19  C17 UNK     1      17.862   9.178  33.744  1.00  0.00     0.001 A 
HETATM   20  C13 UNK     1      18.827   8.161  33.707  1.00  0.00     0.014 A 
HETATM   21  C6  UNK     1      19.099   5.643  33.052  1.00  0.00     0.052 A 
ENDBRANCH   3  13
TORSDOF 1
ENDMDL
MODEL 6
REMARK VINA RESULT:      -8.6      2.065      6.084
REMARK  1 active torsions:
REMARK  status: ('A' for Active; 'I' for Inactive)
REMARK    1  A    between atoms: C1_4  and  C3_6 
ROOT
HETATM    1  O2  UNK     1      19.499  -3.158  37.187  1.00  0.00    -0.275 OA
HETATM    2  O3  UNK     1      20.599  -5.003  36.407  1.00  0.00    -0.260 OA
HETATM    3  C1  UNK     1      19.632  -2.093  34.556  1.00  0.00     0.017 A 
HETATM    4  C2  UNK     1      18.989  -1.337  35.644  1.00  0.00     0.012 A 
HETATM    5  C4  UNK     1      18.943  -1.893  36.922  1.00  0.00     0.090 A 
HETATM    6  C8  UNK     1      18.415  -0.073  35.457  1.00  0.00     0.022 A 
HETATM    7  C9  UNK     1      17.816   0.603  36.526  1.00  0.00    -0.061 A 
HETATM    8  C10 UNK     1      20.153  -3.298  34.843  1.00  0.00     0.097 A 
HETATM    9  C11 UNK     1      18.349  -1.230  37.998  1.00  0.00     0.039 A 
HETATM   10  C12 UNK     1      17.783   0.025  37.795  1.00  0.00     0.009 A 
HETATM   11  C14 UNK     1      20.111  -3.899  36.189  1.00  0.00     0.289 A 
HETATM   12  C16 UNK     1      17.209   1.948  36.309  1.00  0.00     0.048 C 
ENDROOT
BRANCH   3  13
HETATM   13  C3  UNK     1      19.755  -1.662  33.218  1.00  0.00     0.088 A 
HETATM   14  O1  UNK     1      19.263  -0.468  32.793  1.00  0.00    -0.309 OA
HETATM   15  C7  UNK     1      19.549  -0.368  31.465  1.00  0.00     0.086 A 
HETATM   16  C15 UNK     1      19.219   0.707  30.640  1.00  0.00     0.038 A 
HETATM   17  C5  UNK     1      20.227  -1.503  31.032  1.00  0.00     0.000 A 
HETATM   18  C18 UNK     1      19.607   0.605  29.301  1.00  0.00     0.003 A 
HETATM   19  C17 UNK     1      20.290  -0.518  28.827  1.00  0.00     0.001 A 
HETATM   20  C13 UNK     1      20.609  -1.584  29.681  1.00  0.00     0.014 A 
HETATM   21  C6  UNK     1      20.356  -2.335  32.175  1.00  0.00     0.052 A 
ENDBRANCH   3  13
TORSDOF 1
ENDMDL
MODEL 7
REMARK VINA RESULT:      -8.3      3.259      5.295
REMARK  1 active torsions:
REMARK  status: ('A' for Active; 'I' for Inactive)
REMARK    1  A    between atoms: C1_4  and  C3_6 
ROOT
HETATM    1  O2  UNK     1      18.869   6.294  32.046  1.00  0.00    -0.275 OA
HETATM    2  O3  UNK     1      18.862   7.322  34.087  1.00  0.00    -0.260 OA
HETATM    3  C1  UNK     1      18.377   3.841  33.395  1.00  0.00     0.017 A 
HETATM    4  C2  UNK     1      18.503   3.885  31.928  1.00  0.00     0.012 A 
HETATM    5  C4  UNK     1      18.744   5.107  31.301  1.00  0.00     0.090 A 
HETATM    6  C8  UNK     1      18.391   2.744  31.120  1.00  0.00     0.022 A 
HETATM    7  C9  UNK     1      18.519   2.841  29.730  1.00  0.00    -0.061 A 
HETATM    8  C10 UNK     1      18.501   4.994  34.075  1.00  0.00     0.097 A 
HETATM    9  C11 UNK     1      18.874   5.217  29.916  1.00  0.00     0.039 A 
HETATM   10  C12 UNK     1      18.760   4.076  29.129  1.00  0.00     0.009 A 
HETATM   11  C14 UNK     1      18.756   6.294  33.427  1.00  0.00     0.289 A 
HETATM   12  C16 UNK     1      18.396   1.617  28.886  1.00  0.00     0.048 C 
ENDROOT
BRANCH   3  13
HETATM   13  C3  UNK     1      18.134   2.684  34.165  1.00  0.00     0.088 A 
HETATM   14  O1  UNK     1      17.306   1.692  33.741  1.00  0.00    -0.309 OA
HETATM   15  C7  UNK     1      17.297   0.738  34.712  1.00  0.00     0.086 A 
HETATM   16  C15 UNK     1      16.573  -0.454  34.675  1.00  0.00     0.038 A 
HETATM   17  C5  UNK     1      18.122   1.116  35.766  1.00  0.00     0.000 A 
HETATM   18  C18 UNK     1      16.706  -1.296  35.783  1.00  0.00     0.003 A 
HETATM   19  C17 UNK     1      17.525  -0.952  36.862  1.00  0.00     0.001 A 
HETATM   20  C13 UNK     1      18.241   0.253  36.870  1.00  0.00     0.014 A 
HETATM   21  C6  UNK     1      18.659   2.378  35.402  1.00  0.00     0.052 A 
ENDBRANCH   3  13
TORSDOF 1
ENDMDL
MODEL 8
REMARK VINA RESULT:      -8.3      2.763      4.972
REMARK  1 active torsions:
REMARK  status: ('A' for Active; 'I' for Inactive)
REMARK    1  A    between atoms: C1_4  and  C3_6 
ROOT
HETATM    1  O2  UNK     1      18.554  -1.259  33.961  1.00  0.00    -0.275 OA
HETATM    2  O3  UNK     1      17.508  -0.404  35.804  1.00  0.00    -0.260 OA
HETATM    3  C1  UNK     1      18.475   1.349  32.834  1.00  0.00     0.017 A 
HETATM    4  C2  UNK     1      19.075   0.225  32.095  1.00  0.00     0.012 A 
HETATM    5  C4  UNK     1      19.095  -1.040  32.680  1.00  0.00     0.090 A 
HETATM    6  C8  UNK     1      19.632   0.366  30.817  1.00  0.00     0.022 A 
HETATM    7  C9  UNK     1      20.190  -0.735  30.158  1.00  0.00    -0.061 A 
HETATM    8  C10 UNK     1      17.967   1.105  34.055  1.00  0.00     0.097 A 
HETATM    9  C11 UNK     1      19.648  -2.147  32.034  1.00  0.00     0.039 A 
HETATM   10  C12 UNK     1      20.198  -1.990  30.766  1.00  0.00     0.009 A 
HETATM   11  C14 UNK     1      17.982  -0.227  34.688  1.00  0.00     0.289 A 
HETATM   12  C16 UNK     1      20.779  -0.566  28.798  1.00  0.00     0.048 C 
ENDROOT
BRANCH   3  13
HETATM   13  C3  UNK     1      18.381   2.680  32.374  1.00  0.00     0.088 A 
HETATM   14  O1  UNK     1      17.849   3.674  33.134  1.00  0.00    -0.309 OA
HETATM   15  C7  UNK     1      17.911   4.817  32.395  1.00  0.00     0.086 A 
HETATM   16  C15 UNK     1      17.469   6.075  32.804  1.00  0.00     0.038 A 
HETATM   17  C5  UNK     1      18.486   4.558  31.155  1.00  0.00     0.000 A 
HETATM   18  C18 UNK     1      17.627   7.118  31.887  1.00  0.00     0.003 A 
HETATM   19  C17 UNK     1      18.199   6.899  30.631  1.00  0.00     0.001 A 
HETATM   20  C13 UNK     1      18.635   5.622  30.248  1.00  0.00     0.014 A 
HETATM   21  C6  UNK     1      18.786   3.171  31.151  1.00  0.00     0.052 A 
ENDBRANCH   3  13
TORSDOF 1
ENDMDL
MODEL 9
REMARK VINA RESULT:      -8.1     15.120     18.115
REMARK  1 active torsions:
REMARK  status: ('A' for Active; 'I' for Inactive)
REMARK    1  A    between atoms: C1_4  and  C3_6 
ROOT
HETATM    1  O2  UNK     1      18.148  -4.774  13.995  1.00  0.00    -0.275 OA
HETATM    2  O3  UNK     1      16.923  -5.399  15.821  1.00  0.00    -0.260 OA
HETATM    3  C1  UNK     1      18.630  -2.294  15.297  1.00  0.00     0.017 A 
HETATM    4  C2  UNK     1      19.188  -2.567  13.961  1.00  0.00     0.012 A 
HETATM    5  C4  UNK     1      18.930  -3.795  13.354  1.00  0.00     0.090 A 
HETATM    6  C8  UNK     1      19.975  -1.642  13.261  1.00  0.00     0.022 A 
HETATM    7  C9  UNK     1      20.481  -1.952  11.994  1.00  0.00    -0.061 A 
HETATM    8  C10 UNK     1      17.887  -3.251  15.880  1.00  0.00     0.097 A 
HETATM    9  C11 UNK     1      19.428  -4.118  12.090  1.00  0.00     0.039 A 
HETATM   10  C12 UNK     1      20.208  -3.188  11.410  1.00  0.00     0.009 A 
HETATM   11  C14 UNK     1      17.606  -4.555  15.252  1.00  0.00     0.289 A 
HETATM   12  C16 UNK     1      21.317  -0.955  11.264  1.00  0.00     0.048 C 
ENDROOT
BRANCH   3  13
HETATM   13  C3  UNK     1      18.804  -1.103  16.032  1.00  0.00     0.088 A 
HETATM   14  O1  UNK     1      19.054   0.091  15.430  1.00  0.00    -0.309 OA
HETATM   15  C7  UNK     1      19.167   1.021  16.419  1.00  0.00     0.086 A 
HETATM   16  C15 UNK     1      19.423   2.379  16.233  1.00  0.00     0.038 A 
HETATM   17  C5  UNK     1      18.990   0.424  17.663  1.00  0.00     0.000 A 
HETATM   18  C18 UNK     1      19.502   3.160  17.389  1.00  0.00     0.003 A 
HETATM   19  C17 UNK     1      19.330   2.599  18.657  1.00  0.00     0.001 A 
HETATM   20  C13 UNK     1      19.072   1.229  18.812  1.00  0.00     0.014 A 
HETATM   21  C6  UNK     1      18.755  -0.951  17.402  1.00  0.00     0.052 A 
ENDBRANCH   3  13
TORSDOF 1
ENDMDL
MODEL 10
REMARK VINA RESULT:      -8.1      4.938      6.961
REMARK  1 active torsions:
REMARK  status: ('A' for Active; 'I' for Inactive)
REMARK    1  A    between atoms: C1_4  and  C3_6 
ROOT
HETATM    1  O2  UNK     1      21.808  -6.882  37.936  1.00  0.00    -0.275 OA
HETATM    2  O3  UNK     1      23.403  -5.521  38.847  1.00  0.00    -0.260 OA
HETATM    3  C1  UNK     1      20.395  -4.539  37.169  1.00  0.00     0.017 A 
HETATM    4  C2  UNK     1      19.865  -5.877  36.856  1.00  0.00     0.012 A 
HETATM    5  C4  UNK     1      20.587  -7.003  37.248  1.00  0.00     0.090 A 
HETATM    6  C8  UNK     1      18.656  -6.077  36.174  1.00  0.00     0.022 A 
HETATM    7  C9  UNK     1      18.198  -7.370  35.901  1.00  0.00    -0.061 A 
HETATM    8  C10 UNK     1      21.564  -4.459  37.827  1.00  0.00     0.097 A 
HETATM    9  C11 UNK     1      20.141  -8.300  36.983  1.00  0.00     0.039 A 
HETATM   10  C12 UNK     1      18.940  -8.480  36.305  1.00  0.00     0.009 A 
HETATM   11  C14 UNK     1      22.339  -5.640  38.249  1.00  0.00     0.289 A 
HETATM   12  C16 UNK     1      16.910  -7.564  35.175  1.00  0.00     0.048 C 
ENDROOT
BRANCH   3  13
HETATM   13  C3  UNK     1      19.779  -3.313  36.838  1.00  0.00     0.088 A 
HETATM   14  O1  UNK     1      19.037  -2.609  37.735  1.00  0.00    -0.309 OA
HETATM   15  C7  UNK     1      18.596  -1.490  37.095  1.00  0.00     0.086 A 
HETATM   16  C15 UNK     1      17.799  -0.494  37.658  1.00  0.00     0.038 A 
HETATM   17  C5  UNK     1      19.053  -1.474  35.782  1.00  0.00     0.000 A 
HETATM   18  C18 UNK     1      17.456   0.573  36.822  1.00  0.00     0.003 A 
HETATM   19  C17 UNK     1      17.896   0.627  35.497  1.00  0.00     0.001 A 
HETATM   20  C13 UNK     1      18.697  -0.390  34.960  1.00  0.00     0.014 A 
HETATM   21  C6  UNK     1      19.819  -2.658  35.625  1.00  0.00     0.052 A 
ENDBRANCH   3  13
TORSDOF 1
ENDMDL
