MODEL 1
REMARK VINA RESULT:      -8.2      0.000      0.000
REMARK  3 active torsions:
REMARK  status: ('A' for Active; 'I' for Inactive)
REMARK    1  A    between atoms: C9_13  and  O2_2 
REMARK    2  A    between atoms: C4_8  and  O3_3 
REMARK    3  A    between atoms: C3_7  and  C6_10 
ROOT
HETATM    1  O1  UNK     1      13.312   7.535   8.458  1.00  0.00    -0.306 OA
HETATM    2  O4  UNK     1      15.398   4.268   9.711  1.00  0.00    -0.287 OA
HETATM    3  C1  UNK     1      15.315   6.618   9.482  1.00  0.00     0.051 A 
HETATM    4  C2  UNK     1      14.547   7.692   9.033  1.00  0.00     0.126 A 
HETATM    5  C3  UNK     1      12.809   6.251   8.313  1.00  0.00     0.090 A 
HETATM    6  C4  UNK     1      15.029   8.995   9.162  1.00  0.00     0.134 A 
HETATM    7  C5  UNK     1      14.781   5.256   9.337  1.00  0.00     0.187 A 
HETATM    8  C7  UNK     1      13.449   5.140   8.711  1.00  0.00     0.093 A 
HETATM    9  C8  UNK     1      16.567   6.837  10.061  1.00  0.00     0.021 A 
HETATM   10  C9  UNK     1      16.280   9.218   9.738  1.00  0.00     0.104 A 
HETATM   11  C10 UNK     1      17.046   8.142  10.187  1.00  0.00     0.041 A 
ENDROOT
BRANCH   5  12
HETATM   12  C6  UNK     1      11.472   6.197   7.690  1.00  0.00    -0.002 A 
HETATM   13  C11 UNK     1      10.327   6.155   8.490  1.00  0.00     0.014 A 
HETATM   14  C13 UNK     1       9.062   6.104   7.903  1.00  0.00     0.001 A 
HETATM   15  C15 UNK     1       8.938   6.094   6.514  1.00  0.00     0.000 A 
HETATM   16  C14 UNK     1      10.079   6.137   5.711  1.00  0.00     0.001 A 
HETATM   17  C12 UNK     1      11.343   6.188   6.299  1.00  0.00     0.014 A 
ENDBRANCH   5  12
BRANCH   6  18
HETATM   18  O3  UNK     1      14.286  10.051   8.725  1.00  0.00    -0.356 OA
HETATM   19  H9  UNK     1      14.845  10.847   8.739  1.00  0.00     0.218 HD
ENDBRANCH   6  18
BRANCH  10  20
HETATM   20  O2  UNK     1      16.766  10.485   9.871  1.00  0.00    -0.353 OA
HETATM   21  C16 UNK     1      17.772  10.892   8.946  1.00  0.00     0.210 C 
ENDBRANCH  10  20
TORSDOF 3
ENDMDL
MODEL 2
REMARK VINA RESULT:      -8.2     24.420     26.561
REMARK  3 active torsions:
REMARK  status: ('A' for Active; 'I' for Inactive)
REMARK    1  A    between atoms: C9_13  and  O2_2 
REMARK    2  A    between atoms: C4_8  and  O3_3 
REMARK    3  A    between atoms: C3_7  and  C6_10 
ROOT
HETATM    1  O1  UNK     1      18.974  -0.134  33.219  1.00  0.00    -0.306 OA
HETATM    2  O4  UNK     1      21.163  -3.471  32.397  1.00  0.00    -0.287 OA
HETATM    3  C1  UNK     1      20.178  -1.479  31.593  1.00  0.00     0.051 A 
HETATM    4  C2  UNK     1      19.426  -0.358  31.944  1.00  0.00     0.126 A 
HETATM    5  C3  UNK     1      19.273  -1.067  34.199  1.00  0.00     0.090 A 
HETATM    6  C4  UNK     1      19.106   0.595  30.977  1.00  0.00     0.134 A 
HETATM    7  C5  UNK     1      20.505  -2.467  32.632  1.00  0.00     0.187 A 
HETATM    8  C7  UNK     1      19.994  -2.181  33.988  1.00  0.00     0.093 A 
HETATM    9  C8  UNK     1      20.614  -1.654  30.278  1.00  0.00     0.021 A 
HETATM   10  C9  UNK     1      19.537   0.423  29.661  1.00  0.00     0.104 A 
HETATM   11  C10 UNK     1      20.290  -0.699  29.314  1.00  0.00     0.041 A 
ENDROOT
BRANCH   5  12
HETATM   12  C6  UNK     1      18.745  -0.726  35.535  1.00  0.00    -0.002 A 
HETATM   13  C11 UNK     1      18.428   0.599  35.846  1.00  0.00     0.014 A 
HETATM   14  C13 UNK     1      17.929   0.923  37.107  1.00  0.00     0.001 A 
HETATM   15  C15 UNK     1      17.744  -0.077  38.063  1.00  0.00     0.000 A 
HETATM   16  C14 UNK     1      18.059  -1.401  37.756  1.00  0.00     0.001 A 
HETATM   17  C12 UNK     1      18.558  -1.725  36.494  1.00  0.00     0.014 A 
ENDBRANCH   5  12
BRANCH   6  18
HETATM   18  O3  UNK     1      18.371   1.694  31.311  1.00  0.00    -0.356 OA
HETATM   19  H9  UNK     1      17.481   1.401  31.574  1.00  0.00     0.218 HD
ENDBRANCH   6  18
BRANCH  10  20
HETATM   20  O2  UNK     1      19.232   1.345  28.705  1.00  0.00    -0.353 OA
HETATM   21  C16 UNK     1      17.856   1.486  28.358  1.00  0.00     0.210 C 
ENDBRANCH  10  20
TORSDOF 3
ENDMDL
MODEL 3
REMARK VINA RESULT:      -8.1     25.192     27.223
REMARK  3 active torsions:
REMARK  status: ('A' for Active; 'I' for Inactive)
REMARK    1  A    between atoms: C9_13  and  O2_2 
REMARK    2  A    between atoms: C4_8  and  O3_3 
REMARK    3  A    between atoms: C3_7  and  C6_10 
ROOT
HETATM    1  O1  UNK     1      18.528  -0.596  33.314  1.00  0.00    -0.306 OA
HETATM    2  O4  UNK     1      20.636  -3.205  35.626  1.00  0.00    -0.287 OA
HETATM    3  C1  UNK     1      18.902  -1.606  35.491  1.00  0.00     0.051 A 
HETATM    4  C2  UNK     1      18.220  -0.733  34.643  1.00  0.00     0.126 A 
HETATM    5  C3  UNK     1      19.566  -1.353  32.794  1.00  0.00     0.090 A 
HETATM    6  C4  UNK     1      17.175   0.046  35.139  1.00  0.00     0.134 A 
HETATM    7  C5  UNK     1      19.998  -2.417  34.942  1.00  0.00     0.187 A 
HETATM    8  C7  UNK     1      20.291  -2.231  33.506  1.00  0.00     0.093 A 
HETATM    9  C8  UNK     1      18.544  -1.705  36.837  1.00  0.00     0.021 A 
HETATM   10  C9  UNK     1      16.815  -0.050  36.484  1.00  0.00     0.104 A 
HETATM   11  C10 UNK     1      17.499  -0.924  37.330  1.00  0.00     0.041 A 
ENDROOT
BRANCH   5  12
HETATM   12  C6  UNK     1      19.808  -1.133  31.354  1.00  0.00    -0.002 A 
HETATM   13  C11 UNK     1      20.267  -2.182  30.552  1.00  0.00     0.014 A 
HETATM   14  C13 UNK     1      20.496  -1.975  29.192  1.00  0.00     0.001 A 
HETATM   15  C15 UNK     1      20.267  -0.719  28.628  1.00  0.00     0.000 A 
HETATM   16  C14 UNK     1      19.809   0.330  29.426  1.00  0.00     0.001 A 
HETATM   17  C12 UNK     1      19.580   0.123  30.786  1.00  0.00     0.014 A 
ENDBRANCH   5  12
BRANCH   6  18
HETATM   18  O3  UNK     1      16.504   0.901  34.317  1.00  0.00    -0.356 OA
HETATM   19  H9  UNK     1      15.549   0.777  34.458  1.00  0.00     0.218 HD
ENDBRANCH   6  18
BRANCH  10  20
HETATM   20  O2  UNK     1      15.797   0.705  36.984  1.00  0.00    -0.353 OA
HETATM   21  C16 UNK     1      16.147   1.950  37.584  1.00  0.00     0.210 C 
ENDBRANCH  10  20
TORSDOF 3
ENDMDL
MODEL 4
REMARK VINA RESULT:      -7.8     11.230     13.511
REMARK  3 active torsions:
REMARK  status: ('A' for Active; 'I' for Inactive)
REMARK    1  A    between atoms: C9_13  and  O2_2 
REMARK    2  A    between atoms: C4_8  and  O3_3 
REMARK    3  A    between atoms: C3_7  and  C6_10 
ROOT
HETATM    1  O1  UNK     1      19.035  -0.903  17.665  1.00  0.00    -0.306 OA
HETATM    2  O4  UNK     1      19.336   2.330  15.204  1.00  0.00    -0.287 OA
HETATM    3  C1  UNK     1      19.157   1.510  17.413  1.00  0.00     0.051 A 
HETATM    4  C2  UNK     1      19.058   0.361  18.197  1.00  0.00     0.126 A 
HETATM    5  C3  UNK     1      19.108  -1.042  16.287  1.00  0.00     0.090 A 
HETATM    6  C4  UNK     1      18.977   0.470  19.585  1.00  0.00     0.134 A 
HETATM    7  C5  UNK     1      19.243   1.366  15.952  1.00  0.00     0.187 A 
HETATM    8  C7  UNK     1      19.214  -0.015  15.429  1.00  0.00     0.093 A 
HETATM    9  C8  UNK     1      19.176   2.772  18.009  1.00  0.00     0.021 A 
HETATM   10  C9  UNK     1      18.995   1.729  20.185  1.00  0.00     0.104 A 
HETATM   11  C10 UNK     1      19.095   2.878  19.398  1.00  0.00     0.041 A 
ENDROOT
BRANCH   5  12
HETATM   12  C6  UNK     1      19.083  -2.443  15.823  1.00  0.00    -0.002 A 
HETATM   13  C11 UNK     1      20.256  -3.203  15.822  1.00  0.00     0.014 A 
HETATM   14  C13 UNK     1      20.234  -4.526  15.383  1.00  0.00     0.001 A 
HETATM   15  C15 UNK     1      19.038  -5.096  14.943  1.00  0.00     0.000 A 
HETATM   16  C14 UNK     1      17.865  -4.341  14.943  1.00  0.00     0.001 A 
HETATM   17  C12 UNK     1      17.888  -3.017  15.382  1.00  0.00     0.014 A 
ENDBRANCH   5  12
BRANCH   6  18
HETATM   18  O3  UNK     1      18.879  -0.648  20.359  1.00  0.00    -0.356 OA
HETATM   19  H9  UNK     1      18.002  -0.655  20.780  1.00  0.00     0.218 HD
ENDBRANCH   6  18
BRANCH  10  20
HETATM   20  O2  UNK     1      18.916   1.853  21.540  1.00  0.00    -0.353 OA
HETATM   21  C16 UNK     1      20.092   2.287  22.219  1.00  0.00     0.210 C 
ENDBRANCH  10  20
TORSDOF 3
ENDMDL
MODEL 5
REMARK VINA RESULT:      -7.8     23.471     25.437
REMARK  3 active torsions:
REMARK  status: ('A' for Active; 'I' for Inactive)
REMARK    1  A    between atoms: C9_13  and  O2_2 
REMARK    2  A    between atoms: C4_8  and  O3_3 
REMARK    3  A    between atoms: C3_7  and  C6_10 
ROOT
HETATM    1  O1  UNK     1      17.659   8.950  33.097  1.00  0.00    -0.306 OA
HETATM    2  O4  UNK     1      14.095   7.224  34.054  1.00  0.00    -0.287 OA
HETATM    3  C1  UNK     1      15.472   9.142  34.138  1.00  0.00     0.051 A 
HETATM    4  C2  UNK     1      16.712   9.671  33.777  1.00  0.00     0.126 A 
HETATM    5  C3  UNK     1      17.373   7.636  32.758  1.00  0.00     0.090 A 
HETATM    6  C4  UNK     1      17.029  10.988  34.109  1.00  0.00     0.134 A 
HETATM    7  C5  UNK     1      15.162   7.752  33.773  1.00  0.00     0.187 A 
HETATM    8  C7  UNK     1      16.215   7.018  33.043  1.00  0.00     0.093 A 
HETATM    9  C8  UNK     1      14.545   9.923  34.830  1.00  0.00     0.021 A 
HETATM   10  C9  UNK     1      16.106  11.772  34.802  1.00  0.00     0.104 A 
HETATM   11  C10 UNK     1      14.866  11.240  35.161  1.00  0.00     0.041 A 
ENDROOT
BRANCH   5  12
HETATM   12  C6  UNK     1      18.457   6.956  32.023  1.00  0.00    -0.002 A 
HETATM   13  C11 UNK     1      19.683   6.712  32.648  1.00  0.00     0.014 A 
HETATM   14  C13 UNK     1      20.708   6.069  31.955  1.00  0.00     0.001 A 
HETATM   15  C15 UNK     1      20.512   5.668  30.633  1.00  0.00     0.000 A 
HETATM   16  C14 UNK     1      19.289   5.910  30.005  1.00  0.00     0.001 A 
HETATM   17  C12 UNK     1      18.264   6.552  30.699  1.00  0.00     0.014 A 
ENDBRANCH   5  12
BRANCH   6  18
HETATM   18  O3  UNK     1      18.238  11.513  33.761  1.00  0.00    -0.356 OA
HETATM   19  H9  UNK     1      18.155  12.482  33.732  1.00  0.00     0.218 HD
ENDBRANCH   6  18
BRANCH  10  20
HETATM   20  O2  UNK     1      16.401  13.060  35.134  1.00  0.00    -0.353 OA
HETATM   21  C16 UNK     1      16.076  13.478  36.458  1.00  0.00     0.210 C 
ENDBRANCH  10  20
TORSDOF 3
ENDMDL
MODEL 6
REMARK VINA RESULT:      -7.8      3.071      5.468
REMARK  3 active torsions:
REMARK  status: ('A' for Active; 'I' for Inactive)
REMARK    1  A    between atoms: C9_13  and  O2_2 
REMARK    2  A    between atoms: C4_8  and  O3_3 
REMARK    3  A    between atoms: C3_7  and  C6_10 
ROOT
HETATM    1  O1  UNK     1       9.775   5.346   9.526  1.00  0.00    -0.306 OA
HETATM    2  O4  UNK     1       8.999   6.682   5.756  1.00  0.00    -0.287 OA
HETATM    3  C1  UNK     1      10.615   6.192   7.409  1.00  0.00     0.051 A 
HETATM    4  C2  UNK     1      10.809   5.724   8.708  1.00  0.00     0.126 A 
HETATM    5  C3  UNK     1       8.480   5.439   9.040  1.00  0.00     0.090 A 
HETATM    6  C4  UNK     1      12.101   5.624   9.226  1.00  0.00     0.134 A 
HETATM    7  C5  UNK     1       9.244   6.284   6.887  1.00  0.00     0.187 A 
HETATM    8  C7  UNK     1       8.166   5.866   7.806  1.00  0.00     0.093 A 
HETATM    9  C8  UNK     1      11.706   6.562   6.620  1.00  0.00     0.021 A 
HETATM   10  C9  UNK     1      13.194   5.994   8.442  1.00  0.00     0.104 A 
HETATM   11  C10 UNK     1      12.996   6.462   7.142  1.00  0.00     0.041 A 
ENDROOT
BRANCH   5  12
HETATM   12  C6  UNK     1       7.446   5.000   9.997  1.00  0.00    -0.002 A 
HETATM   13  C11 UNK     1       7.044   5.850  11.032  1.00  0.00     0.014 A 
HETATM   14  C13 UNK     1       6.067   5.436  11.938  1.00  0.00     0.001 A 
HETATM   15  C15 UNK     1       5.488   4.173  11.812  1.00  0.00     0.000 A 
HETATM   16  C14 UNK     1       5.888   3.323  10.781  1.00  0.00     0.001 A 
HETATM   17  C12 UNK     1       6.865   3.736   9.875  1.00  0.00     0.014 A 
ENDBRANCH   5  12
BRANCH   6  18
HETATM   18  O3  UNK     1      12.301   5.168  10.495  1.00  0.00    -0.356 OA
HETATM   19  H9  UNK     1      13.062   5.640  10.875  1.00  0.00     0.218 HD
ENDBRANCH   6  18
BRANCH  10  20
HETATM   20  O2  UNK     1      14.462   5.903   8.933  1.00  0.00    -0.353 OA
HETATM   21  C16 UNK     1      15.031   7.091   9.480  1.00  0.00     0.210 C 
ENDBRANCH  10  20
TORSDOF 3
ENDMDL
MODEL 7
REMARK VINA RESULT:      -7.7     23.987     26.203
REMARK  3 active torsions:
REMARK  status: ('A' for Active; 'I' for Inactive)
REMARK    1  A    between atoms: C9_13  and  O2_2 
REMARK    2  A    between atoms: C4_8  and  O3_3 
REMARK    3  A    between atoms: C3_7  and  C6_10 
ROOT
HETATM    1  O1  UNK     1      18.541   0.825  33.268  1.00  0.00    -0.306 OA
HETATM    2  O4  UNK     1      17.987   4.812  32.640  1.00  0.00    -0.287 OA
HETATM    3  C1  UNK     1      18.494   2.696  31.719  1.00  0.00     0.051 A 
HETATM    4  C2  UNK     1      18.668   1.342  32.004  1.00  0.00     0.126 A 
HETATM    5  C3  UNK     1      18.231   1.689  34.308  1.00  0.00     0.090 A 
HETATM    6  C4  UNK     1      18.986   0.450  30.980  1.00  0.00     0.134 A 
HETATM    7  C5  UNK     1      18.157   3.614  32.817  1.00  0.00     0.187 A 
HETATM    8  C7  UNK     1      18.032   3.008  34.159  1.00  0.00     0.093 A 
HETATM    9  C8  UNK     1      18.635   3.167  30.413  1.00  0.00     0.021 A 
HETATM   10  C9  UNK     1      19.129   0.917  29.673  1.00  0.00     0.104 A 
HETATM   11  C10 UNK     1      18.954   2.272  29.390  1.00  0.00     0.041 A 
ENDROOT
BRANCH   5  12
HETATM   12  C6  UNK     1      18.111   1.028  35.622  1.00  0.00    -0.002 A 
HETATM   13  C11 UNK     1      18.431  -0.326  35.758  1.00  0.00     0.014 A 
HETATM   14  C13 UNK     1      18.318  -0.951  37.000  1.00  0.00     0.001 A 
HETATM   15  C15 UNK     1      17.884  -0.226  38.110  1.00  0.00     0.000 A 
HETATM   16  C14 UNK     1      17.564   1.126  37.978  1.00  0.00     0.001 A 
HETATM   17  C12 UNK     1      17.677   1.751  36.736  1.00  0.00     0.014 A 
ENDBRANCH   5  12
BRANCH   6  18
HETATM   18  O3  UNK     1      19.159  -0.875  31.249  1.00  0.00    -0.356 OA
HETATM   19  H9  UNK     1      19.670  -1.272  30.523  1.00  0.00     0.218 HD
ENDBRANCH   6  18
BRANCH  10  20
HETATM   20  O2  UNK     1      19.440   0.058  28.661  1.00  0.00    -0.353 OA
HETATM   21  C16 UNK     1      20.693  -0.616  28.745  1.00  0.00     0.210 C 
ENDBRANCH  10  20
TORSDOF 3
ENDMDL
MODEL 8
REMARK VINA RESULT:      -7.7     26.049     28.165
REMARK  3 active torsions:
REMARK  status: ('A' for Active; 'I' for Inactive)
REMARK    1  A    between atoms: C9_13  and  O2_2 
REMARK    2  A    between atoms: C4_8  and  O3_3 
REMARK    3  A    between atoms: C3_7  and  C6_10 
ROOT
HETATM    1  O1  UNK     1      18.890   0.432  34.438  1.00  0.00    -0.306 OA
HETATM    2  O4  UNK     1      17.317   1.078  38.140  1.00  0.00    -0.287 OA
HETATM    3  C1  UNK     1      18.431  -0.402  36.673  1.00  0.00     0.051 A 
HETATM    4  C2  UNK     1      18.950  -0.555  35.387  1.00  0.00     0.126 A 
HETATM    5  C3  UNK     1      18.280   1.632  34.769  1.00  0.00     0.090 A 
HETATM    6  C4  UNK     1      19.565  -1.754  35.023  1.00  0.00     0.134 A 
HETATM    7  C5  UNK     1      17.791   0.872  37.031  1.00  0.00     0.187 A 
HETATM    8  C7  UNK     1      17.750   1.902  35.973  1.00  0.00     0.093 A 
HETATM    9  C8  UNK     1      18.521  -1.442  37.600  1.00  0.00     0.021 A 
HETATM   10  C9  UNK     1      19.656  -2.796  35.947  1.00  0.00     0.104 A 
HETATM   11  C10 UNK     1      19.136  -2.639  37.232  1.00  0.00     0.041 A 
ENDROOT
BRANCH   5  12
HETATM   12  C6  UNK     1      18.277   2.626  33.678  1.00  0.00    -0.002 A 
HETATM   13  C11 UNK     1      18.268   3.992  33.973  1.00  0.00     0.014 A 
HETATM   14  C13 UNK     1      18.264   4.932  32.943  1.00  0.00     0.001 A 
HETATM   15  C15 UNK     1      18.269   4.510  31.613  1.00  0.00     0.000 A 
HETATM   16  C14 UNK     1      18.279   3.147  31.314  1.00  0.00     0.001 A 
HETATM   17  C12 UNK     1      18.282   2.207  32.345  1.00  0.00     0.014 A 
ENDBRANCH   5  12
BRANCH   6  18
HETATM   18  O3  UNK     1      20.075  -1.913  33.769  1.00  0.00    -0.356 OA
HETATM   19  H9  UNK     1      20.839  -1.318  33.670  1.00  0.00     0.218 HD
ENDBRANCH   6  18
BRANCH  10  20
HETATM   20  O2  UNK     1      20.253  -3.973  35.606  1.00  0.00    -0.353 OA
HETATM   21  C16 UNK     1      19.870  -5.130  36.346  1.00  0.00     0.210 C 
ENDBRANCH  10  20
TORSDOF 3
ENDMDL
MODEL 9
REMARK VINA RESULT:      -7.6     24.046     26.125
REMARK  3 active torsions:
REMARK  status: ('A' for Active; 'I' for Inactive)
REMARK    1  A    between atoms: C9_13  and  O2_2 
REMARK    2  A    between atoms: C4_8  and  O3_3 
REMARK    3  A    between atoms: C3_7  and  C6_10 
ROOT
HETATM    1  O1  UNK     1      18.687   0.150  33.089  1.00  0.00    -0.306 OA
HETATM    2  O4  UNK     1      20.754  -2.590  30.894  1.00  0.00    -0.287 OA
HETATM    3  C1  UNK     1      19.676  -0.488  30.964  1.00  0.00     0.051 A 
HETATM    4  C2  UNK     1      18.975   0.406  31.773  1.00  0.00     0.126 A 
HETATM    5  C3  UNK     1      19.108  -1.052  33.636  1.00  0.00     0.090 A 
HETATM    6  C4  UNK     1      18.534   1.621  31.248  1.00  0.00     0.134 A 
HETATM    7  C5  UNK     1      20.132  -1.761  31.543  1.00  0.00     0.187 A 
HETATM    8  C7  UNK     1      19.796  -1.988  32.963  1.00  0.00     0.093 A 
HETATM    9  C8  UNK     1      19.942  -0.175  29.630  1.00  0.00     0.021 A 
HETATM   10  C9  UNK     1      18.796   1.937  29.914  1.00  0.00     0.104 A 
HETATM   11  C10 UNK     1      19.499   1.041  29.108  1.00  0.00     0.041 A 
ENDROOT
BRANCH   5  12
HETATM   12  C6  UNK     1      18.752  -1.221  35.059  1.00  0.00    -0.002 A 
HETATM   13  C11 UNK     1      17.683  -0.505  35.605  1.00  0.00     0.014 A 
HETATM   14  C13 UNK     1      17.346  -0.664  36.949  1.00  0.00     0.001 A 
HETATM   15  C15 UNK     1      18.077  -1.540  37.752  1.00  0.00     0.000 A 
HETATM   16  C14 UNK     1      19.145  -2.256  37.211  1.00  0.00     0.001 A 
HETATM   17  C12 UNK     1      19.482  -2.097  35.867  1.00  0.00     0.014 A 
ENDBRANCH   5  12
BRANCH   6  18
HETATM   18  O3  UNK     1      17.847   2.500  32.030  1.00  0.00    -0.356 OA
HETATM   19  H9  UNK     1      17.173   2.938  31.482  1.00  0.00     0.218 HD
ENDBRANCH   6  18
BRANCH  10  20
HETATM   20  O2  UNK     1      18.372   3.120  29.386  1.00  0.00    -0.353 OA
HETATM   21  C16 UNK     1      19.040   4.301  29.825  1.00  0.00     0.210 C 
ENDBRANCH  10  20
TORSDOF 3
ENDMDL
MODEL 10
REMARK VINA RESULT:      -7.6     24.485     26.643
REMARK  3 active torsions:
REMARK  status: ('A' for Active; 'I' for Inactive)
REMARK    1  A    between atoms: C9_13  and  O2_2 
REMARK    2  A    between atoms: C4_8  and  O3_3 
REMARK    3  A    between atoms: C3_7  and  C6_10 
ROOT
HETATM    1  O1  UNK     1      18.290   3.666  34.379  1.00  0.00    -0.306 OA
HETATM    2  O4  UNK     1      18.326   1.628  30.851  1.00  0.00    -0.287 OA
HETATM    3  C1  UNK     1      18.332   1.535  33.212  1.00  0.00     0.051 A 
HETATM    4  C2  UNK     1      18.316   2.295  34.382  1.00  0.00     0.126 A 
HETATM    5  C3  UNK     1      18.284   4.324  33.159  1.00  0.00     0.090 A 
HETATM    6  C4  UNK     1      18.327   1.660  35.624  1.00  0.00     0.134 A 
HETATM    7  C5  UNK     1      18.317   2.229  31.916  1.00  0.00     0.187 A 
HETATM    8  C7  UNK     1      18.290   3.705  31.967  1.00  0.00     0.093 A 
HETATM    9  C8  UNK     1      18.357   0.141  33.275  1.00  0.00     0.021 A 
HETATM   10  C9  UNK     1      18.354   0.267  35.692  1.00  0.00     0.104 A 
HETATM   11  C10 UNK     1      18.369  -0.491  34.520  1.00  0.00     0.041 A 
ENDROOT
BRANCH   5  12
HETATM   12  C6  UNK     1      18.248   5.796  33.270  1.00  0.00    -0.002 A 
HETATM   13  C11 UNK     1      19.323   6.482  33.843  1.00  0.00     0.014 A 
HETATM   14  C13 UNK     1      19.290   7.872  33.949  1.00  0.00     0.001 A 
HETATM   15  C15 UNK     1      18.183   8.582  33.482  1.00  0.00     0.000 A 
HETATM   16  C14 UNK     1      17.109   7.900  32.909  1.00  0.00     0.001 A 
HETATM   17  C12 UNK     1      17.141   6.510  32.804  1.00  0.00     0.014 A 
ENDBRANCH   5  12
BRANCH   6  18
HETATM   18  O3  UNK     1      18.313   2.394  36.772  1.00  0.00    -0.356 OA
HETATM   19  H9  UNK     1      18.924   3.144  36.666  1.00  0.00     0.218 HD
ENDBRANCH   6  18
BRANCH  10  20
HETATM   20  O2  UNK     1      18.365  -0.369  36.897  1.00  0.00    -0.353 OA
HETATM   21  C16 UNK     1      18.007  -1.749  36.906  1.00  0.00     0.210 C 
ENDBRANCH  10  20
TORSDOF 3
ENDMDL
