MODEL 1
REMARK VINA RESULT:      -7.9      0.000      0.000
REMARK  5 active torsions:
REMARK  status: ('A' for Active; 'I' for Inactive)
REMARK    1  A    between atoms: C9_15  and  O2_2 
REMARK    2  A    between atoms: C10_16  and  O3_3 
REMARK    3  A    between atoms: C13_19  and  O5_5 
REMARK    4  A    between atoms: C14_20  and  O6_6 
REMARK    5  A    between atoms: C2_8  and  C4_10 
ROOT
HETATM    1  O1  UNK     1      19.489   8.142  33.513  1.00  0.00    -0.321 OA
HETATM    2  O4  UNK     1      15.973   6.478  32.281  1.00  0.00    -0.286 OA
HETATM    3  C1  UNK     1      17.096   8.350  33.165  1.00  0.00     0.052 A 
HETATM    4  C2  UNK     1      18.327   6.238  32.554  1.00  0.00     0.048 A 
HETATM    5  C3  UNK     1      18.325   8.862  33.581  1.00  0.00     0.092 A 
HETATM    6  C5  UNK     1      17.035   6.977  32.630  1.00  0.00     0.198 A 
HETATM    7  C6  UNK     1      15.940   9.129  33.258  1.00  0.00     0.058 A 
HETATM    8  C7  UNK     1      18.404  10.158  34.093  1.00  0.00     0.077 A 
HETATM    9  C8  UNK     1      19.424   6.872  32.993  1.00  0.00     0.159 A 
HETATM   10  C9  UNK     1      16.023  10.425  33.770  1.00  0.00     0.102 A 
HETATM   11  C10 UNK     1      17.251  10.938  34.187  1.00  0.00     0.104 A 
ENDROOT
BRANCH   4  12
HETATM   12  C4  UNK     1      18.413   4.875  32.005  1.00  0.00    -0.017 A 
HETATM   13  C11 UNK     1      18.169   3.771  32.826  1.00  0.00     0.052 A 
HETATM   14  C13 UNK     1      18.250   2.480  32.305  1.00  0.00     0.102 A 
HETATM   15  C14 UNK     1      18.574   2.289  30.962  1.00  0.00     0.101 A 
HETATM   16  C15 UNK     1      18.818   3.388  30.139  1.00  0.00     0.040 A 
HETATM   17  C12 UNK     1      18.738   4.680  30.660  1.00  0.00     0.015 A 
BRANCH  14  18
HETATM   18  O5  UNK     1      18.009   1.414  33.118  1.00  0.00    -0.353 OA
HETATM   19  C18 UNK     1      18.027   1.655  34.524  1.00  0.00     0.210 C 
ENDBRANCH  14  18
BRANCH  15  20
HETATM   20  O6  UNK     1      18.655   1.033  30.442  1.00  0.00    -0.353 OA
HETATM   21  C19 UNK     1      19.208   0.907  29.133  1.00  0.00     0.210 C 
ENDBRANCH  15  20
ENDBRANCH   4  12
BRANCH  10  22
HETATM   22  O2  UNK     1      14.892  11.181  33.860  1.00  0.00    -0.353 OA
HETATM   23  C16 UNK     1      13.807  10.827  33.004  1.00  0.00     0.210 C 
ENDBRANCH  10  22
BRANCH  11  24
HETATM   24  O3  UNK     1      17.338  12.202  34.687  1.00  0.00    -0.353 OA
HETATM   25  C17 UNK     1      18.190  13.114  33.999  1.00  0.00     0.210 C 
ENDBRANCH  11  24
TORSDOF 5
ENDMDL
MODEL 2
REMARK VINA RESULT:      -7.8      1.597      8.444
REMARK  5 active torsions:
REMARK  status: ('A' for Active; 'I' for Inactive)
REMARK    1  A    between atoms: C9_15  and  O2_2 
REMARK    2  A    between atoms: C10_16  and  O3_3 
REMARK    3  A    between atoms: C13_19  and  O5_5 
REMARK    4  A    between atoms: C14_20  and  O6_6 
REMARK    5  A    between atoms: C2_8  and  C4_10 
ROOT
HETATM    1  O1  UNK     1      18.871   4.525  29.652  1.00  0.00    -0.321 OA
HETATM    2  O4  UNK     1      17.904   4.258  33.607  1.00  0.00    -0.286 OA
HETATM    3  C1  UNK     1      18.510   3.150  31.619  1.00  0.00     0.052 A 
HETATM    4  C2  UNK     1      18.296   5.658  31.721  1.00  0.00     0.048 A 
HETATM    5  C3  UNK     1      18.824   3.302  30.269  1.00  0.00     0.092 A 
HETATM    6  C5  UNK     1      18.213   4.348  32.426  1.00  0.00     0.198 A 
HETATM    7  C6  UNK     1      18.475   1.878  32.196  1.00  0.00     0.058 A 
HETATM    8  C7  UNK     1      19.105   2.181  29.487  1.00  0.00     0.077 A 
HETATM    9  C8  UNK     1      18.614   5.636  30.418  1.00  0.00     0.159 A 
HETATM   10  C9  UNK     1      18.758   0.759  31.411  1.00  0.00     0.102 A 
HETATM   11  C10 UNK     1      19.071   0.909  30.060  1.00  0.00     0.104 A 
ENDROOT
BRANCH   4  12
HETATM   12  C4  UNK     1      18.062   6.934  32.418  1.00  0.00    -0.017 A 
HETATM   13  C11 UNK     1      16.882   7.648  32.196  1.00  0.00     0.052 A 
HETATM   14  C13 UNK     1      16.660   8.856  32.857  1.00  0.00     0.102 A 
HETATM   15  C14 UNK     1      17.616   9.352  33.743  1.00  0.00     0.101 A 
HETATM   16  C15 UNK     1      18.795   8.642  33.967  1.00  0.00     0.040 A 
HETATM   17  C12 UNK     1      19.018   7.434  33.306  1.00  0.00     0.015 A 
BRANCH  14  18
HETATM   18  O5  UNK     1      15.505   9.541  32.629  1.00  0.00    -0.353 OA
HETATM   19  C18 UNK     1      14.333   9.074  33.295  1.00  0.00     0.210 C 
ENDBRANCH  14  18
BRANCH  15  20
HETATM   20  O6  UNK     1      17.410  10.530  34.394  1.00  0.00    -0.353 OA
HETATM   21  C19 UNK     1      18.215  11.640  33.998  1.00  0.00     0.210 C 
ENDBRANCH  15  20
ENDBRANCH   4  12
BRANCH  10  22
HETATM   22  O2  UNK     1      18.722  -0.481  31.977  1.00  0.00    -0.353 OA
HETATM   23  C16 UNK     1      18.515  -0.542  33.387  1.00  0.00     0.210 C 
ENDBRANCH  10  22
BRANCH  11  24
HETATM   24  O3  UNK     1      19.348  -0.179  29.289  1.00  0.00    -0.353 OA
HETATM   25  C17 UNK     1      20.721  -0.529  29.131  1.00  0.00     0.210 C 
ENDBRANCH  11  24
TORSDOF 5
ENDMDL
MODEL 3
REMARK VINA RESULT:      -7.8     14.331     18.691
REMARK  5 active torsions:
REMARK  status: ('A' for Active; 'I' for Inactive)
REMARK    1  A    between atoms: C9_15  and  O2_2 
REMARK    2  A    between atoms: C10_16  and  O3_3 
REMARK    3  A    between atoms: C13_19  and  O5_5 
REMARK    4  A    between atoms: C14_20  and  O6_6 
REMARK    5  A    between atoms: C2_8  and  C4_10 
ROOT
HETATM    1  O1  UNK     1      18.339  -1.264  17.865  1.00  0.00    -0.321 OA
HETATM    2  O4  UNK     1      19.854   1.063  14.875  1.00  0.00    -0.286 OA
HETATM    3  C1  UNK     1      19.205   0.882  17.131  1.00  0.00     0.052 A 
HETATM    4  C2  UNK     1      19.059  -1.077  15.554  1.00  0.00     0.048 A 
HETATM    5  C3  UNK     1      18.674   0.043  18.111  1.00  0.00     0.092 A 
HETATM    6  C5  UNK     1      19.417   0.353  15.772  1.00  0.00     0.198 A 
HETATM    7  C6  UNK     1      19.528   2.206  17.438  1.00  0.00     0.058 A 
HETATM    8  C7  UNK     1      18.462   0.524  19.403  1.00  0.00     0.077 A 
HETATM    9  C8  UNK     1      18.560  -1.752  16.600  1.00  0.00     0.159 A 
HETATM   10  C9  UNK     1      19.315   2.685  18.732  1.00  0.00     0.102 A 
HETATM   11  C10 UNK     1      18.783   1.846  19.713  1.00  0.00     0.104 A 
ENDROOT
BRANCH   4  12
HETATM   12  C4  UNK     1      19.257  -1.740  14.255  1.00  0.00    -0.017 A 
HETATM   13  C11 UNK     1      19.853  -3.002  14.195  1.00  0.00     0.052 A 
HETATM   14  C13 UNK     1      20.040  -3.630  12.964  1.00  0.00     0.102 A 
HETATM   15  C14 UNK     1      19.632  -2.998  11.789  1.00  0.00     0.101 A 
HETATM   16  C15 UNK     1      19.037  -1.738  11.845  1.00  0.00     0.040 A 
HETATM   17  C12 UNK     1      18.850  -1.109  13.076  1.00  0.00     0.015 A 
BRANCH  14  18
HETATM   18  O5  UNK     1      20.622  -4.861  12.922  1.00  0.00    -0.353 OA
HETATM   19  C18 UNK     1      19.920  -5.931  13.552  1.00  0.00     0.210 C 
ENDBRANCH  14  18
BRANCH  15  20
HETATM   20  O6  UNK     1      19.809  -3.601  10.581  1.00  0.00    -0.353 OA
HETATM   21  C19 UNK     1      18.674  -4.247  10.006  1.00  0.00     0.210 C 
ENDBRANCH  15  20
ENDBRANCH   4  12
BRANCH  10  22
HETATM   22  O2  UNK     1      19.631   3.978  19.026  1.00  0.00    -0.353 OA
HETATM   23  C16 UNK     1      20.850   4.485  18.487  1.00  0.00     0.210 C 
ENDBRANCH  10  22
BRANCH  11  24
HETATM   24  O3  UNK     1      18.574   2.307  20.977  1.00  0.00    -0.353 OA
HETATM   25  C17 UNK     1      19.645   2.156  21.907  1.00  0.00     0.210 C 
ENDBRANCH  11  24
TORSDOF 5
ENDMDL
MODEL 4
REMARK VINA RESULT:      -7.7      1.933      8.743
REMARK  5 active torsions:
REMARK  status: ('A' for Active; 'I' for Inactive)
REMARK    1  A    between atoms: C9_15  and  O2_2 
REMARK    2  A    between atoms: C10_16  and  O3_3 
REMARK    3  A    between atoms: C13_19  and  O5_5 
REMARK    4  A    between atoms: C14_20  and  O6_6 
REMARK    5  A    between atoms: C2_8  and  C4_10 
ROOT
HETATM    1  O1  UNK     1      18.356   2.070  33.535  1.00  0.00    -0.321 OA
HETATM    2  O4  UNK     1      18.793   4.358  30.184  1.00  0.00    -0.286 OA
HETATM    3  C1  UNK     1      18.899   2.224  31.174  1.00  0.00     0.052 A 
HETATM    4  C2  UNK     1      18.201   4.256  32.489  1.00  0.00     0.048 A 
HETATM    5  C3  UNK     1      18.744   1.495  32.353  1.00  0.00     0.092 A 
HETATM    6  C5  UNK     1      18.640   3.675  31.189  1.00  0.00     0.198 A 
HETATM    7  C6  UNK     1      19.299   1.584  29.998  1.00  0.00     0.058 A 
HETATM    8  C7  UNK     1      18.988   0.121  32.362  1.00  0.00     0.077 A 
HETATM    9  C8  UNK     1      18.097   3.420  33.532  1.00  0.00     0.159 A 
HETATM   10  C9  UNK     1      19.541   0.210  30.010  1.00  0.00     0.102 A 
HETATM   11  C10 UNK     1      19.386  -0.521  31.189  1.00  0.00     0.104 A 
ENDROOT
BRANCH   4  12
HETATM   12  C4  UNK     1      17.872   5.684  32.631  1.00  0.00    -0.017 A 
HETATM   13  C11 UNK     1      16.627   6.162  32.215  1.00  0.00     0.052 A 
HETATM   14  C13 UNK     1      16.315   7.515  32.351  1.00  0.00     0.102 A 
HETATM   15  C14 UNK     1      17.247   8.393  32.904  1.00  0.00     0.101 A 
HETATM   16  C15 UNK     1      18.491   7.919  33.321  1.00  0.00     0.040 A 
HETATM   17  C12 UNK     1      18.803   6.566  33.185  1.00  0.00     0.015 A 
BRANCH  14  18
HETATM   18  O5  UNK     1      15.097   7.965  31.939  1.00  0.00    -0.353 OA
HETATM   19  C18 UNK     1      13.950   7.376  32.547  1.00  0.00     0.210 C 
ENDBRANCH  14  18
BRANCH  15  20
HETATM   20  O6  UNK     1      16.954   9.715  33.042  1.00  0.00    -0.353 OA
HETATM   21  C19 UNK     1      16.509  10.151  34.325  1.00  0.00     0.210 C 
ENDBRANCH  15  20
ENDBRANCH   4  12
BRANCH  10  22
HETATM   22  O2  UNK     1      19.931  -0.410  28.860  1.00  0.00    -0.353 OA
HETATM   23  C16 UNK     1      18.975  -0.475  27.804  1.00  0.00     0.210 C 
ENDBRANCH  10  22
BRANCH  11  24
HETATM   24  O3  UNK     1      19.621  -1.862  31.207  1.00  0.00    -0.353 OA
HETATM   25  C17 UNK     1      20.722  -2.318  31.990  1.00  0.00     0.210 C 
ENDBRANCH  11  24
TORSDOF 5
ENDMDL
MODEL 5
REMARK VINA RESULT:      -7.6      6.748     11.118
REMARK  5 active torsions:
REMARK  status: ('A' for Active; 'I' for Inactive)
REMARK    1  A    between atoms: C9_15  and  O2_2 
REMARK    2  A    between atoms: C10_16  and  O3_3 
REMARK    3  A    between atoms: C13_19  and  O5_5 
REMARK    4  A    between atoms: C14_20  and  O6_6 
REMARK    5  A    between atoms: C2_8  and  C4_10 
ROOT
HETATM    1  O1  UNK     1      18.546  -1.392  36.779  1.00  0.00    -0.321 OA
HETATM    2  O4  UNK     1      20.521  -3.693  34.049  1.00  0.00    -0.286 OA
HETATM    3  C1  UNK     1      19.327  -1.715  34.504  1.00  0.00     0.052 A 
HETATM    4  C2  UNK     1      19.822  -3.403  36.307  1.00  0.00     0.048 A 
HETATM    5  C3  UNK     1      18.655  -0.976  35.477  1.00  0.00     0.092 A 
HETATM    6  C5  UNK     1      19.947  -2.999  34.879  1.00  0.00     0.198 A 
HETATM    7  C6  UNK     1      19.406  -1.242  33.191  1.00  0.00     0.058 A 
HETATM    8  C7  UNK     1      18.058   0.240  35.143  1.00  0.00     0.077 A 
HETATM    9  C8  UNK     1      19.146  -2.579  37.122  1.00  0.00     0.159 A 
HETATM   10  C9  UNK     1      18.809  -0.026  32.860  1.00  0.00     0.102 A 
HETATM   11  C10 UNK     1      18.136   0.714  33.833  1.00  0.00     0.104 A 
ENDROOT
BRANCH   4  12
HETATM   12  C4  UNK     1      20.429  -4.642  36.822  1.00  0.00    -0.017 A 
HETATM   13  C11 UNK     1      20.028  -5.881  36.318  1.00  0.00     0.052 A 
HETATM   14  C13 UNK     1      20.603  -7.054  36.805  1.00  0.00     0.102 A 
HETATM   15  C14 UNK     1      21.580  -6.992  37.798  1.00  0.00     0.101 A 
HETATM   16  C15 UNK     1      21.983  -5.756  38.304  1.00  0.00     0.040 A 
HETATM   17  C12 UNK     1      21.408  -4.582  37.817  1.00  0.00     0.015 A 
BRANCH  14  18
HETATM   18  O5  UNK     1      20.201  -8.255  36.303  1.00  0.00    -0.353 OA
HETATM   19  C18 UNK     1      18.987  -8.798  36.817  1.00  0.00     0.210 C 
ENDBRANCH  14  18
BRANCH  15  20
HETATM   20  O6  UNK     1      22.149  -8.130  38.281  1.00  0.00    -0.353 OA
HETATM   21  C19 UNK     1      21.907  -8.446  39.651  1.00  0.00     0.210 C 
ENDBRANCH  15  20
ENDBRANCH   4  12
BRANCH  10  22
HETATM   22  O2  UNK     1      18.888   0.431  31.578  1.00  0.00    -0.353 OA
HETATM   23  C16 UNK     1      20.054   0.078  30.837  1.00  0.00     0.210 C 
ENDBRANCH  10  22
BRANCH  11  24
HETATM   24  O3  UNK     1      17.551   1.903  33.517  1.00  0.00    -0.353 OA
HETATM   25  C17 UNK     1      18.232   3.088  33.921  1.00  0.00     0.210 C 
ENDBRANCH  11  24
TORSDOF 5
ENDMDL
MODEL 6
REMARK VINA RESULT:      -7.3     15.604     18.101
REMARK  5 active torsions:
REMARK  status: ('A' for Active; 'I' for Inactive)
REMARK    1  A    between atoms: C9_15  and  O2_2 
REMARK    2  A    between atoms: C10_16  and  O3_3 
REMARK    3  A    between atoms: C13_19  and  O5_5 
REMARK    4  A    between atoms: C14_20  and  O6_6 
REMARK    5  A    between atoms: C2_8  and  C4_10 
ROOT
HETATM    1  O1  UNK     1      27.412  -9.058  38.511  1.00  0.00    -0.321 OA
HETATM    2  O4  UNK     1      25.360  -5.537  38.732  1.00  0.00    -0.286 OA
HETATM    3  C1  UNK     1      27.442  -6.633  38.620  1.00  0.00     0.052 A 
HETATM    4  C2  UNK     1      25.272  -7.912  38.575  1.00  0.00     0.048 A 
HETATM    5  C3  UNK     1      28.089  -7.867  38.555  1.00  0.00     0.092 A 
HETATM    6  C5  UNK     1      25.968  -6.597  38.645  1.00  0.00     0.198 A 
HETATM    7  C6  UNK     1      28.184  -5.450  38.665  1.00  0.00     0.058 A 
HETATM    8  C7  UNK     1      29.483  -7.924  38.534  1.00  0.00     0.077 A 
HETATM    9  C8  UNK     1      26.038  -9.011  38.513  1.00  0.00     0.159 A 
HETATM   10  C9  UNK     1      29.578  -5.511  38.642  1.00  0.00     0.102 A 
HETATM   11  C10 UNK     1      30.227  -6.745  38.578  1.00  0.00     0.104 A 
ENDROOT
BRANCH   4  12
HETATM   12  C4  UNK     1      23.803  -8.015  38.553  1.00  0.00    -0.017 A 
HETATM   13  C11 UNK     1      23.156  -8.567  37.445  1.00  0.00     0.052 A 
HETATM   14  C13 UNK     1      21.765  -8.665  37.424  1.00  0.00     0.102 A 
HETATM   15  C14 UNK     1      21.018  -8.212  38.511  1.00  0.00     0.101 A 
HETATM   16  C15 UNK     1      21.661  -7.661  39.619  1.00  0.00     0.040 A 
HETATM   17  C12 UNK     1      23.052  -7.562  39.640  1.00  0.00     0.015 A 
BRANCH  14  18
HETATM   18  O5  UNK     1      21.148  -9.205  36.336  1.00  0.00    -0.353 OA
HETATM   19  C18 UNK     1      21.157  -8.433  35.137  1.00  0.00     0.210 C 
ENDBRANCH  14  18
BRANCH  15  20
HETATM   20  O6  UNK     1      19.659  -8.303  38.503  1.00  0.00    -0.353 OA
HETATM   21  C19 UNK     1      18.936  -7.176  38.011  1.00  0.00     0.210 C 
ENDBRANCH  15  20
ENDBRANCH   4  12
BRANCH  10  22
HETATM   22  O2  UNK     1      30.298  -4.354  38.686  1.00  0.00    -0.353 OA
HETATM   23  C16 UNK     1      30.546  -3.699  37.444  1.00  0.00     0.210 C 
ENDBRANCH  10  22
BRANCH  11  24
HETATM   24  O3  UNK     1      31.587  -6.810  38.555  1.00  0.00    -0.353 OA
HETATM   25  C17 UNK     1      32.170  -8.066  38.216  1.00  0.00     0.210 C 
ENDBRANCH  11  24
TORSDOF 5
ENDMDL
MODEL 7
REMARK VINA RESULT:      -7.3      1.911      8.704
REMARK  5 active torsions:
REMARK  status: ('A' for Active; 'I' for Inactive)
REMARK    1  A    between atoms: C9_15  and  O2_2 
REMARK    2  A    between atoms: C10_16  and  O3_3 
REMARK    3  A    between atoms: C13_19  and  O5_5 
REMARK    4  A    between atoms: C14_20  and  O6_6 
REMARK    5  A    between atoms: C2_8  and  C4_10 
ROOT
HETATM    1  O1  UNK     1      18.320   2.308  33.920  1.00  0.00    -0.321 OA
HETATM    2  O4  UNK     1      18.599   4.517  30.500  1.00  0.00    -0.286 OA
HETATM    3  C1  UNK     1      18.717   2.401  31.527  1.00  0.00     0.052 A 
HETATM    4  C2  UNK     1      18.151   4.476  32.839  1.00  0.00     0.048 A 
HETATM    5  C3  UNK     1      18.619   1.699  32.728  1.00  0.00     0.092 A 
HETATM    6  C5  UNK     1      18.493   3.858  31.527  1.00  0.00     0.198 A 
HETATM    7  C6  UNK     1      19.026   1.728  30.342  1.00  0.00     0.058 A 
HETATM    8  C7  UNK     1      18.830   0.320  32.751  1.00  0.00     0.077 A 
HETATM    9  C8  UNK     1      18.093   3.663  33.904  1.00  0.00     0.159 A 
HETATM   10  C9  UNK     1      19.235   0.349  30.368  1.00  0.00     0.102 A 
HETATM   11  C10 UNK     1      19.138  -0.354  31.569  1.00  0.00     0.104 A 
ENDROOT
BRANCH   4  12
HETATM   12  C4  UNK     1      17.865   5.914  32.971  1.00  0.00    -0.017 A 
HETATM   13  C11 UNK     1      18.647   6.709  33.812  1.00  0.00     0.052 A 
HETATM   14  C13 UNK     1      18.377   8.072  33.937  1.00  0.00     0.102 A 
HETATM   15  C14 UNK     1      17.325   8.643  33.221  1.00  0.00     0.101 A 
HETATM   16  C15 UNK     1      16.542   7.851  32.380  1.00  0.00     0.040 A 
HETATM   17  C12 UNK     1      16.812   6.489  32.255  1.00  0.00     0.015 A 
BRANCH  14  18
HETATM   18  O5  UNK     1      19.148   8.834  34.762  1.00  0.00    -0.353 OA
HETATM   19  C18 UNK     1      20.462   9.152  34.308  1.00  0.00     0.210 C 
ENDBRANCH  14  18
BRANCH  15  20
HETATM   20  O6  UNK     1      17.052   9.972  33.334  1.00  0.00    -0.353 OA
HETATM   21  C19 UNK     1      15.903  10.335  34.098  1.00  0.00     0.210 C 
ENDBRANCH  15  20
ENDBRANCH   4  12
BRANCH  10  22
HETATM   22  O2  UNK     1      19.537  -0.303  29.209  1.00  0.00    -0.353 OA
HETATM   23  C16 UNK     1      20.915  -0.573  28.959  1.00  0.00     0.210 C 
ENDBRANCH  10  22
BRANCH  11  24
HETATM   24  O3  UNK     1      19.341  -1.701  31.601  1.00  0.00    -0.353 OA
HETATM   25  C17 UNK     1      20.470  -2.169  32.336  1.00  0.00     0.210 C 
ENDBRANCH  11  24
TORSDOF 5
ENDMDL
MODEL 8
REMARK VINA RESULT:      -7.3      1.338      8.214
REMARK  5 active torsions:
REMARK  status: ('A' for Active; 'I' for Inactive)
REMARK    1  A    between atoms: C9_15  and  O2_2 
REMARK    2  A    between atoms: C10_16  and  O3_3 
REMARK    3  A    between atoms: C13_19  and  O5_5 
REMARK    4  A    between atoms: C14_20  and  O6_6 
REMARK    5  A    between atoms: C2_8  and  C4_10 
ROOT
HETATM    1  O1  UNK     1      18.114   4.199  34.061  1.00  0.00    -0.321 OA
HETATM    2  O4  UNK     1      18.384   6.712  30.857  1.00  0.00    -0.286 OA
HETATM    3  C1  UNK     1      18.404   4.502  31.670  1.00  0.00     0.052 A 
HETATM    4  C2  UNK     1      18.045   6.469  33.202  1.00  0.00     0.048 A 
HETATM    5  C3  UNK     1      18.314   3.693  32.802  1.00  0.00     0.092 A 
HETATM    6  C5  UNK     1      18.282   5.964  31.821  1.00  0.00     0.198 A 
HETATM    7  C6  UNK     1      18.609   3.931  30.411  1.00  0.00     0.058 A 
HETATM    8  C7  UNK     1      18.430   2.307  32.682  1.00  0.00     0.077 A 
HETATM    9  C8  UNK     1      17.981   5.561  34.187  1.00  0.00     0.159 A 
HETATM   10  C9  UNK     1      18.724   2.545  30.294  1.00  0.00     0.102 A 
HETATM   11  C10 UNK     1      18.635   1.735  31.427  1.00  0.00     0.104 A 
ENDROOT
BRANCH   4  12
HETATM   12  C4  UNK     1      17.867   7.903  33.486  1.00  0.00    -0.017 A 
HETATM   13  C11 UNK     1      16.603   8.487  33.378  1.00  0.00     0.052 A 
HETATM   14  C13 UNK     1      16.434   9.845  33.648  1.00  0.00     0.102 A 
HETATM   15  C14 UNK     1      17.529  10.622  34.027  1.00  0.00     0.101 A 
HETATM   16  C15 UNK     1      18.793  10.042  34.136  1.00  0.00     0.040 A 
HETATM   17  C12 UNK     1      18.962   8.684  33.866  1.00  0.00     0.015 A 
BRANCH  14  18
HETATM   18  O5  UNK     1      15.195  10.400  33.537  1.00  0.00    -0.353 OA
HETATM   19  C18 UNK     1      14.282  10.164  34.607  1.00  0.00     0.210 C 
ENDBRANCH  14  18
BRANCH  15  20
HETATM   20  O6  UNK     1      17.376  11.949  34.293  1.00  0.00    -0.353 OA
HETATM   21  C19 UNK     1      18.301  12.844  33.678  1.00  0.00     0.210 C 
ENDBRANCH  15  20
ENDBRANCH   4  12
BRANCH  10  22
HETATM   22  O2  UNK     1      18.925   1.993  29.064  1.00  0.00    -0.353 OA
HETATM   23  C16 UNK     1      17.767   1.566  28.349  1.00  0.00     0.210 C 
ENDBRANCH  10  22
BRANCH  11  24
HETATM   24  O3  UNK     1      18.745   0.381  31.319  1.00  0.00    -0.353 OA
HETATM   25  C17 UNK     1      20.061  -0.153  31.192  1.00  0.00     0.210 C 
ENDBRANCH  11  24
TORSDOF 5
ENDMDL
MODEL 9
REMARK VINA RESULT:      -7.3      1.107      8.186
REMARK  5 active torsions:
REMARK  status: ('A' for Active; 'I' for Inactive)
REMARK    1  A    between atoms: C9_15  and  O2_2 
REMARK    2  A    between atoms: C10_16  and  O3_3 
REMARK    3  A    between atoms: C13_19  and  O5_5 
REMARK    4  A    between atoms: C14_20  and  O6_6 
REMARK    5  A    between atoms: C2_8  and  C4_10 
ROOT
HETATM    1  O1  UNK     1      18.451   5.527  30.486  1.00  0.00    -0.321 OA
HETATM    2  O4  UNK     1      17.700   5.647  34.495  1.00  0.00    -0.286 OA
HETATM    3  C1  UNK     1      18.191   4.350  32.592  1.00  0.00     0.052 A 
HETATM    4  C2  UNK     1      17.995   6.858  32.465  1.00  0.00     0.048 A 
HETATM    5  C3  UNK     1      18.432   4.369  31.219  1.00  0.00     0.092 A 
HETATM    6  C5  UNK     1      17.944   5.622  33.296  1.00  0.00     0.198 A 
HETATM    7  C6  UNK     1      18.182   3.138  33.289  1.00  0.00     0.058 A 
HETATM    8  C7  UNK     1      18.664   3.176  30.533  1.00  0.00     0.077 A 
HETATM    9  C8  UNK     1      18.240   6.709  31.155  1.00  0.00     0.159 A 
HETATM   10  C9  UNK     1      18.416   1.947  32.600  1.00  0.00     0.102 A 
HETATM   11  C10 UNK     1      18.656   1.965  31.226  1.00  0.00     0.104 A 
ENDROOT
BRANCH   4  12
HETATM   12  C4  UNK     1      17.804   8.196  33.049  1.00  0.00    -0.017 A 
HETATM   13  C11 UNK     1      16.533   8.773  33.080  1.00  0.00     0.052 A 
HETATM   14  C13 UNK     1      16.352  10.041  33.633  1.00  0.00     0.102 A 
HETATM   15  C14 UNK     1      17.443  10.734  34.158  1.00  0.00     0.101 A 
HETATM   16  C15 UNK     1      18.714  10.161  34.129  1.00  0.00     0.040 A 
HETATM   17  C12 UNK     1      18.895   8.893  33.575  1.00  0.00     0.015 A 
BRANCH  14  18
HETATM   18  O5  UNK     1      15.106  10.590  33.656  1.00  0.00    -0.353 OA
HETATM   19  C18 UNK     1      14.024   9.756  33.247  1.00  0.00     0.210 C 
ENDBRANCH  14  18
BRANCH  15  20
HETATM   20  O6  UNK     1      17.280  11.972  34.701  1.00  0.00    -0.353 OA
HETATM   21  C19 UNK     1      17.790  13.078  33.960  1.00  0.00     0.210 C 
ENDBRANCH  15  20
ENDBRANCH   4  12
BRANCH  10  22
HETATM   22  O2  UNK     1      18.406   0.767  33.284  1.00  0.00    -0.353 OA
HETATM   23  C16 UNK     1      17.636   0.722  34.484  1.00  0.00     0.210 C 
ENDBRANCH  10  22
BRANCH  11  24
HETATM   24  O3  UNK     1      18.886   0.806  30.549  1.00  0.00    -0.353 OA
HETATM   25  C17 UNK     1      19.429   0.919  29.236  1.00  0.00     0.210 C 
ENDBRANCH  11  24
TORSDOF 5
ENDMDL
MODEL 10
REMARK VINA RESULT:      -7.2     14.257     18.643
REMARK  5 active torsions:
REMARK  status: ('A' for Active; 'I' for Inactive)
REMARK    1  A    between atoms: C9_15  and  O2_2 
REMARK    2  A    between atoms: C10_16  and  O3_3 
REMARK    3  A    between atoms: C13_19  and  O5_5 
REMARK    4  A    between atoms: C14_20  and  O6_6 
REMARK    5  A    between atoms: C2_8  and  C4_10 
ROOT
HETATM    1  O1  UNK     1      19.505   1.250  15.089  1.00  0.00    -0.321 OA
HETATM    2  O4  UNK     1      18.517  -1.763  17.657  1.00  0.00    -0.286 OA
HETATM    3  C1  UNK     1      19.028   0.515  17.353  1.00  0.00     0.052 A 
HETATM    4  C2  UNK     1      18.927  -1.086  15.411  1.00  0.00     0.048 A 
HETATM    5  C3  UNK     1      19.373   1.502  16.431  1.00  0.00     0.092 A 
HETATM    6  C5  UNK     1      18.794  -0.861  16.878  1.00  0.00     0.198 A 
HETATM    7  C6  UNK     1      18.909   0.830  18.710  1.00  0.00     0.058 A 
HETATM    8  C7  UNK     1      19.602   2.810  16.860  1.00  0.00     0.077 A 
HETATM    9  C8  UNK     1      19.263  -0.031  14.655  1.00  0.00     0.159 A 
HETATM   10  C9  UNK     1      19.138   2.139  19.135  1.00  0.00     0.102 A 
HETATM   11  C10 UNK     1      19.484   3.127  18.213  1.00  0.00     0.104 A 
ENDROOT
BRANCH   4  12
HETATM   12  C4  UNK     1      18.682  -2.403  14.800  1.00  0.00    -0.017 A 
HETATM   13  C11 UNK     1      19.092  -2.656  13.490  1.00  0.00     0.052 A 
HETATM   14  C13 UNK     1      18.861  -3.904  12.912  1.00  0.00     0.102 A 
HETATM   15  C14 UNK     1      18.219  -4.903  13.643  1.00  0.00     0.101 A 
HETATM   16  C15 UNK     1      17.808  -4.654  14.953  1.00  0.00     0.040 A 
HETATM   17  C12 UNK     1      18.039  -3.406  15.531  1.00  0.00     0.015 A 
BRANCH  14  18
HETATM   18  O5  UNK     1      19.268  -4.135  11.632  1.00  0.00    -0.353 OA
HETATM   19  C18 UNK     1      19.238  -3.027  10.734  1.00  0.00     0.210 C 
ENDBRANCH  14  18
BRANCH  15  20
HETATM   20  O6  UNK     1      17.988  -6.125  13.090  1.00  0.00    -0.353 OA
HETATM   21  C19 UNK     1      19.000  -7.117  13.261  1.00  0.00     0.210 C 
ENDBRANCH  15  20
ENDBRANCH   4  12
BRANCH  10  22
HETATM   22  O2  UNK     1      19.022   2.440  20.460  1.00  0.00    -0.353 OA
HETATM   23  C16 UNK     1      19.583   1.512  21.386  1.00  0.00     0.210 C 
ENDBRANCH  10  22
BRANCH  11  24
HETATM   24  O3  UNK     1      19.708   4.406  18.623  1.00  0.00    -0.353 OA
HETATM   25  C17 UNK     1      21.000   4.952  18.365  1.00  0.00     0.210 C 
ENDBRANCH  11  24
TORSDOF 5
ENDMDL
