MODEL 1
REMARK VINA RESULT:      -9.1      0.000      0.000
REMARK  6 active torsions:
REMARK  status: ('A' for Active; 'I' for Inactive)
REMARK    1  A    between atoms: C13_17  and  O2_2 
REMARK    2  A    between atoms: C15_19  and  O2_2 
REMARK    3  A    between atoms: C1_5  and  C2_6 
REMARK    4  A    between atoms: C2_6  and  C3_7 
REMARK    5  A    between atoms: C15_19  and  C16_20 
REMARK    6  A    between atoms: C16_20  and  C17_21 
ROOT
HETATM    1  O1  UNK     1      15.869   6.579  32.950  1.00  0.00    -0.274 OA
HETATM    2  O3  UNK     1      14.269   7.814  33.983  1.00  0.00    -0.259 OA
HETATM    3  C3  UNK     1      16.493   8.659  34.101  1.00  0.00     0.025 A 
HETATM    4  C4  UNK     1      17.796   8.472  33.798  1.00  0.00    -0.037 A 
HETATM    5  C5  UNK     1      18.193   7.299  32.993  1.00  0.00     0.005 A 
HETATM    6  C8  UNK     1      17.214   6.392  32.598  1.00  0.00     0.092 A 
HETATM    7  C9  UNK     1      15.451   7.675  33.686  1.00  0.00     0.295 A 
HETATM    8  C10 UNK     1      18.901   9.395  34.251  1.00  0.00     0.050 C 
HETATM    9  C11 UNK     1      19.510   7.038  32.584  1.00  0.00     0.017 A 
HETATM   10  C12 UNK     1      17.504   5.257  31.836  1.00  0.00     0.075 A 
HETATM   11  C13 UNK     1      18.816   5.015  31.447  1.00  0.00     0.072 A 
HETATM   12  C14 UNK     1      19.818   5.906  31.819  1.00  0.00     0.038 A 
ENDROOT
BRANCH  11  13
HETATM   13  O2  UNK     1      19.119   3.916  30.705  1.00  0.00    -0.344 OA
BRANCH  13  14
HETATM   14  C15 UNK     1      18.111   2.912  30.589  1.00  0.00     0.259 C 
BRANCH  14  15
HETATM   15  C16 UNK     1      18.432   1.987  29.431  1.00  0.00     0.183 C 
HETATM   16  O4  UNK     1      18.106   2.258  28.278  1.00  0.00    -0.290 OA
BRANCH  15  17
HETATM   17  C17 UNK     1      19.161   0.715  29.710  1.00  0.00     0.012 A 
HETATM   18  C18 UNK     1      19.355   0.338  31.020  1.00  0.00     0.015 A 
HETATM   19  C20 UNK     1      20.036  -0.851  31.280  1.00  0.00     0.001 A 
HETATM   20  C22 UNK     1      20.503  -1.633  30.223  1.00  0.00     0.000 A 
HETATM   21  C21 UNK     1      20.290  -1.224  28.906  1.00  0.00     0.001 A 
HETATM   22  C19 UNK     1      19.609  -0.035  28.646  1.00  0.00     0.015 A 
ENDBRANCH  15  17
ENDBRANCH  14  15
ENDBRANCH  13  14
ENDBRANCH  11  13
BRANCH   3  23
HETATM   23  C2  UNK     1      15.946   9.842  34.858  1.00  0.00     0.049 C 
BRANCH  23  24
HETATM   24  C1  UNK     1      15.607  11.023  33.943  1.00  0.00    -0.018 C 
HETATM   25  C6  UNK     1      16.497  12.240  34.210  1.00  0.00     0.010 C 
HETATM   26  C7  UNK     1      14.137  11.407  34.132  1.00  0.00     0.010 C 
ENDBRANCH  23  24
ENDBRANCH   3  23
TORSDOF 6
ENDMDL
MODEL 2
REMARK VINA RESULT:      -8.5      7.135     12.781
REMARK  6 active torsions:
REMARK  status: ('A' for Active; 'I' for Inactive)
REMARK    1  A    between atoms: C13_17  and  O2_2 
REMARK    2  A    between atoms: C15_19  and  O2_2 
REMARK    3  A    between atoms: C1_5  and  C2_6 
REMARK    4  A    between atoms: C2_6  and  C3_7 
REMARK    5  A    between atoms: C15_19  and  C16_20 
REMARK    6  A    between atoms: C16_20  and  C17_21 
ROOT
HETATM    1  O1  UNK     1      20.386  -6.008  34.704  1.00  0.00    -0.274 OA
HETATM    2  O3  UNK     1      20.719  -8.248  34.546  1.00  0.00    -0.259 OA
HETATM    3  C3  UNK     1      20.824  -7.319  36.736  1.00  0.00     0.025 A 
HETATM    4  C4  UNK     1      20.773  -6.207  37.501  1.00  0.00    -0.037 A 
HETATM    5  C5  UNK     1      20.478  -4.904  36.870  1.00  0.00     0.005 A 
HETATM    6  C8  UNK     1      20.296  -4.851  35.492  1.00  0.00     0.092 A 
HETATM    7  C9  UNK     1      20.641  -7.251  35.257  1.00  0.00     0.295 A 
HETATM    8  C10 UNK     1      21.020  -6.203  38.990  1.00  0.00     0.050 C 
HETATM    9  C11 UNK     1      20.356  -3.699  37.580  1.00  0.00     0.017 A 
HETATM   10  C12 UNK     1      20.014  -3.660  34.816  1.00  0.00     0.075 A 
HETATM   11  C13 UNK     1      19.904  -2.477  35.537  1.00  0.00     0.072 A 
HETATM   12  C14 UNK     1      20.073  -2.497  36.918  1.00  0.00     0.038 A 
ENDROOT
BRANCH  11  13
HETATM   13  O2  UNK     1      19.629  -1.308  34.898  1.00  0.00    -0.344 OA
BRANCH  13  14
HETATM   14  C15 UNK     1      18.644  -1.348  33.865  1.00  0.00     0.259 C 
BRANCH  14  15
HETATM   15  C16 UNK     1      18.861  -0.200  32.899  1.00  0.00     0.183 C 
HETATM   16  O4  UNK     1      18.565   0.956  33.191  1.00  0.00    -0.290 OA
BRANCH  15  17
HETATM   17  C17 UNK     1      19.448  -0.493  31.558  1.00  0.00     0.012 A 
HETATM   18  C18 UNK     1      19.472   0.510  30.614  1.00  0.00     0.015 A 
HETATM   19  C20 UNK     1      20.021   0.236  29.362  1.00  0.00     0.001 A 
HETATM   20  C22 UNK     1      20.533  -1.033  29.087  1.00  0.00     0.000 A 
HETATM   21  C21 UNK     1      20.494  -2.027  30.064  1.00  0.00     0.001 A 
HETATM   22  C19 UNK     1      19.944  -1.753  31.317  1.00  0.00     0.015 A 
ENDBRANCH  15  17
ENDBRANCH  14  15
ENDBRANCH  13  14
ENDBRANCH  11  13
BRANCH   3  23
HETATM   23  C2  UNK     1      21.052  -8.714  37.259  1.00  0.00     0.049 C 
BRANCH  23  24
HETATM   24  C1  UNK     1      19.777  -9.349  37.821  1.00  0.00    -0.018 C 
HETATM   25  C6  UNK     1      19.860  -9.583  39.333  1.00  0.00     0.010 C 
HETATM   26  C7  UNK     1      19.513 -10.677  37.107  1.00  0.00     0.010 C 
ENDBRANCH  23  24
ENDBRANCH   3  23
TORSDOF 6
ENDMDL
MODEL 3
REMARK VINA RESULT:      -8.2      2.006      9.134
REMARK  6 active torsions:
REMARK  status: ('A' for Active; 'I' for Inactive)
REMARK    1  A    between atoms: C13_17  and  O2_2 
REMARK    2  A    between atoms: C15_19  and  O2_2 
REMARK    3  A    between atoms: C1_5  and  C2_6 
REMARK    4  A    between atoms: C2_6  and  C3_7 
REMARK    5  A    between atoms: C15_19  and  C16_20 
REMARK    6  A    between atoms: C16_20  and  C17_21 
ROOT
HETATM    1  O1  UNK     1      18.066   1.984  33.202  1.00  0.00    -0.274 OA
HETATM    2  O3  UNK     1      18.069  -0.177  33.899  1.00  0.00    -0.259 OA
HETATM    3  C3  UNK     1      18.790   0.211  31.661  1.00  0.00     0.025 A 
HETATM    4  C4  UNK     1      18.989   1.109  30.673  1.00  0.00    -0.037 A 
HETATM    5  C5  UNK     1      18.759   2.544  30.938  1.00  0.00     0.005 A 
HETATM    6  C8  UNK     1      18.302   2.930  32.194  1.00  0.00     0.092 A 
HETATM    7  C9  UNK     1      18.288   0.632  33.002  1.00  0.00     0.295 A 
HETATM    8  C10 UNK     1      19.427   0.734  29.278  1.00  0.00     0.050 C 
HETATM    9  C11 UNK     1      18.981   3.561  29.996  1.00  0.00     0.017 A 
HETATM   10  C12 UNK     1      18.059   4.266  32.527  1.00  0.00     0.075 A 
HETATM   11  C13 UNK     1      18.281   5.256  31.578  1.00  0.00     0.072 A 
HETATM   12  C14 UNK     1      18.743   4.904  30.314  1.00  0.00     0.038 A 
ENDROOT
BRANCH  11  13
HETATM   13  O2  UNK     1      18.050   6.562  31.883  1.00  0.00    -0.344 OA
BRANCH  13  14
HETATM   14  C15 UNK     1      16.786   6.880  32.465  1.00  0.00     0.259 C 
BRANCH  14  15
HETATM   15  C16 UNK     1      16.985   7.470  33.847  1.00  0.00     0.183 C 
HETATM   16  O4  UNK     1      16.273   7.149  34.796  1.00  0.00    -0.290 OA
BRANCH  15  17
HETATM   17  C17 UNK     1      18.077   8.466  34.051  1.00  0.00     0.012 A 
HETATM   18  C18 UNK     1      19.316   8.017  34.452  1.00  0.00     0.015 A 
HETATM   19  C20 UNK     1      20.336   8.949  34.641  1.00  0.00     0.001 A 
HETATM   20  C22 UNK     1      20.091  10.305  34.423  1.00  0.00     0.000 A 
HETATM   21  C21 UNK     1      18.826  10.729  34.017  1.00  0.00     0.001 A 
HETATM   22  C19 UNK     1      17.805   9.797  33.827  1.00  0.00     0.015 A 
ENDBRANCH  15  17
ENDBRANCH  14  15
ENDBRANCH  13  14
ENDBRANCH  11  13
BRANCH   3  23
HETATM   23  C2  UNK     1      19.047  -1.270  31.545  1.00  0.00     0.049 C 
BRANCH  23  24
HETATM   24  C1  UNK     1      20.533  -1.599  31.373  1.00  0.00    -0.018 C 
HETATM   25  C6  UNK     1      20.801  -2.446  30.126  1.00  0.00     0.010 C 
HETATM   26  C7  UNK     1      21.038  -2.336  32.616  1.00  0.00     0.010 C 
ENDBRANCH  23  24
ENDBRANCH   3  23
TORSDOF 6
ENDMDL
MODEL 4
REMARK VINA RESULT:      -8.2      1.966      3.229
REMARK  6 active torsions:
REMARK  status: ('A' for Active; 'I' for Inactive)
REMARK    1  A    between atoms: C13_17  and  O2_2 
REMARK    2  A    between atoms: C15_19  and  O2_2 
REMARK    3  A    between atoms: C1_5  and  C2_6 
REMARK    4  A    between atoms: C2_6  and  C3_7 
REMARK    5  A    between atoms: C15_19  and  C16_20 
REMARK    6  A    between atoms: C16_20  and  C17_21 
ROOT
HETATM    1  O1  UNK     1      18.489   9.930  33.651  1.00  0.00    -0.274 OA
HETATM    2  O3  UNK     1      18.398  12.123  34.231  1.00  0.00    -0.259 OA
HETATM    3  C3  UNK     1      16.306  11.009  33.983  1.00  0.00     0.025 A 
HETATM    4  C4  UNK     1      15.659   9.869  33.660  1.00  0.00    -0.037 A 
HETATM    5  C5  UNK     1      16.439   8.656  33.343  1.00  0.00     0.005 A 
HETATM    6  C8  UNK     1      17.829   8.730  33.348  1.00  0.00     0.092 A 
HETATM    7  C9  UNK     1      17.796  11.085  33.974  1.00  0.00     0.295 A 
HETATM    8  C10 UNK     1      14.156   9.753  33.584  1.00  0.00     0.050 C 
HETATM    9  C11 UNK     1      15.866   7.410  33.042  1.00  0.00     0.017 A 
HETATM   10  C12 UNK     1      18.642   7.631  33.059  1.00  0.00     0.075 A 
HETATM   11  C13 UNK     1      18.052   6.408  32.758  1.00  0.00     0.072 A 
HETATM   12  C14 UNK     1      16.666   6.298  32.750  1.00  0.00     0.038 A 
ENDROOT
BRANCH  11  13
HETATM   13  O2  UNK     1      18.826   5.326  32.474  1.00  0.00    -0.344 OA
BRANCH  13  14
HETATM   14  C15 UNK     1      18.552   4.631  31.257  1.00  0.00     0.259 C 
BRANCH  14  15
HETATM   15  C16 UNK     1      18.222   3.181  31.551  1.00  0.00     0.183 C 
HETATM   16  O4  UNK     1      17.680   2.841  32.600  1.00  0.00    -0.290 OA
BRANCH  15  17
HETATM   17  C17 UNK     1      18.569   2.146  30.533  1.00  0.00     0.012 A 
HETATM   18  C18 UNK     1      17.969   2.209  29.295  1.00  0.00     0.015 A 
HETATM   19  C20 UNK     1      18.294   1.242  28.345  1.00  0.00     0.001 A 
HETATM   20  C22 UNK     1      19.212   0.239  28.656  1.00  0.00     0.000 A 
HETATM   21  C21 UNK     1      19.804   0.202  29.919  1.00  0.00     0.001 A 
HETATM   22  C19 UNK     1      19.478   1.170  30.870  1.00  0.00     0.015 A 
ENDBRANCH  15  17
ENDBRANCH  14  15
ENDBRANCH  13  14
ENDBRANCH  11  13
BRANCH   3  23
HETATM   23  C2  UNK     1      15.634  12.296  34.389  1.00  0.00     0.049 C 
BRANCH  23  24
HETATM   24  C1  UNK     1      15.328  12.356  35.888  1.00  0.00    -0.018 C 
HETATM   25  C6  UNK     1      13.828  12.466  36.173  1.00  0.00     0.010 C 
HETATM   26  C7  UNK     1      16.060  13.549  36.509  1.00  0.00     0.010 C 
ENDBRANCH  23  24
ENDBRANCH   3  23
TORSDOF 6
ENDMDL
MODEL 5
REMARK VINA RESULT:      -8.2     14.935     18.149
REMARK  6 active torsions:
REMARK  status: ('A' for Active; 'I' for Inactive)
REMARK    1  A    between atoms: C13_17  and  O2_2 
REMARK    2  A    between atoms: C15_19  and  O2_2 
REMARK    3  A    between atoms: C1_5  and  C2_6 
REMARK    4  A    between atoms: C2_6  and  C3_7 
REMARK    5  A    between atoms: C15_19  and  C16_20 
REMARK    6  A    between atoms: C16_20  and  C17_21 
ROOT
HETATM    1  O1  UNK     1      29.003  -4.984  37.720  1.00  0.00    -0.274 OA
HETATM    2  O3  UNK     1      30.645  -3.423  37.583  1.00  0.00    -0.259 OA
HETATM    3  C3  UNK     1      31.354  -5.670  37.933  1.00  0.00     0.025 A 
HETATM    4  C4  UNK     1      30.992  -6.956  38.132  1.00  0.00    -0.037 A 
HETATM    5  C5  UNK     1      29.562  -7.322  38.093  1.00  0.00     0.005 A 
HETATM    6  C8  UNK     1      28.617  -6.322  37.891  1.00  0.00     0.092 A 
HETATM    7  C9  UNK     1      30.334  -4.600  37.730  1.00  0.00     0.295 A 
HETATM    8  C10 UNK     1      31.974  -8.067  38.413  1.00  0.00     0.050 C 
HETATM    9  C11 UNK     1      29.084  -8.634  38.240  1.00  0.00     0.017 A 
HETATM   10  C12 UNK     1      27.245  -6.582  37.841  1.00  0.00     0.075 A 
HETATM   11  C13 UNK     1      26.793  -7.888  37.994  1.00  0.00     0.072 A 
HETATM   12  C14 UNK     1      27.712  -8.913  38.192  1.00  0.00     0.038 A 
ENDROOT
BRANCH  11  13
HETATM   13  O2  UNK     1      25.461  -8.162  37.948  1.00  0.00    -0.344 OA
BRANCH  13  14
HETATM   14  C15 UNK     1      24.728  -8.028  39.165  1.00  0.00     0.259 C 
BRANCH  14  15
HETATM   15  C16 UNK     1      23.663  -6.959  39.013  1.00  0.00     0.183 C 
HETATM   16  O4  UNK     1      23.953  -5.778  38.840  1.00  0.00    -0.290 OA
BRANCH  15  17
HETATM   17  C17 UNK     1      22.228  -7.362  39.079  1.00  0.00     0.012 A 
HETATM   18  C18 UNK     1      21.262  -6.385  38.982  1.00  0.00     0.015 A 
HETATM   19  C20 UNK     1      19.921  -6.763  39.043  1.00  0.00     0.001 A 
HETATM   20  C22 UNK     1      19.580  -8.107  39.198  1.00  0.00     0.000 A 
HETATM   21  C21 UNK     1      20.582  -9.073  39.293  1.00  0.00     0.001 A 
HETATM   22  C19 UNK     1      21.924  -8.696  39.232  1.00  0.00     0.015 A 
ENDBRANCH  15  17
ENDBRANCH  14  15
ENDBRANCH  13  14
ENDBRANCH  11  13
BRANCH   3  23
HETATM   23  C2  UNK     1      32.776  -5.173  37.884  1.00  0.00     0.049 C 
BRANCH  23  24
HETATM   24  C1  UNK     1      33.447  -5.437  36.533  1.00  0.00    -0.018 C 
HETATM   25  C6  UNK     1      34.861  -6.005  36.687  1.00  0.00     0.010 C 
HETATM   26  C7  UNK     1      33.498  -4.137  35.727  1.00  0.00     0.010 C 
ENDBRANCH  23  24
ENDBRANCH   3  23
TORSDOF 6
ENDMDL
MODEL 6
REMARK VINA RESULT:      -8.2      5.261      7.532
REMARK  6 active torsions:
REMARK  status: ('A' for Active; 'I' for Inactive)
REMARK    1  A    between atoms: C13_17  and  O2_2 
REMARK    2  A    between atoms: C15_19  and  O2_2 
REMARK    3  A    between atoms: C1_5  and  C2_6 
REMARK    4  A    between atoms: C2_6  and  C3_7 
REMARK    5  A    between atoms: C15_19  and  C16_20 
REMARK    6  A    between atoms: C16_20  and  C17_21 
ROOT
HETATM    1  O1  UNK     1      18.328   1.161  32.059  1.00  0.00    -0.274 OA
HETATM    2  O3  UNK     1      18.336   2.446  30.188  1.00  0.00    -0.259 OA
HETATM    3  C3  UNK     1      18.331   3.610  32.267  1.00  0.00     0.025 A 
HETATM    4  C4  UNK     1      18.291   3.527  33.614  1.00  0.00    -0.037 A 
HETATM    5  C5  UNK     1      18.305   2.198  34.260  1.00  0.00     0.005 A 
HETATM    6  C8  UNK     1      18.321   1.061  33.459  1.00  0.00     0.092 A 
HETATM    7  C9  UNK     1      18.335   2.386  31.414  1.00  0.00     0.295 A 
HETATM    8  C10 UNK     1      18.214   4.728  34.525  1.00  0.00     0.050 C 
HETATM    9  C11 UNK     1      18.314   2.002  35.650  1.00  0.00     0.017 A 
HETATM   10  C12 UNK     1      18.336  -0.232  33.988  1.00  0.00     0.075 A 
HETATM   11  C13 UNK     1      18.338  -0.403  35.368  1.00  0.00     0.072 A 
HETATM   12  C14 UNK     1      18.329   0.713  36.198  1.00  0.00     0.038 A 
ENDROOT
BRANCH  11  13
HETATM   13  O2  UNK     1      18.352  -1.654  35.903  1.00  0.00    -0.344 OA
BRANCH  13  14
HETATM   14  C15 UNK     1      19.557  -2.073  36.543  1.00  0.00     0.259 C 
BRANCH  14  15
HETATM   15  C16 UNK     1      20.042  -3.374  35.934  1.00  0.00     0.183 C 
HETATM   16  O4  UNK     1      20.439  -3.436  34.773  1.00  0.00    -0.290 OA
BRANCH  15  17
HETATM   17  C17 UNK     1      20.031  -4.608  36.774  1.00  0.00     0.012 A 
HETATM   18  C18 UNK     1      19.005  -5.511  36.608  1.00  0.00     0.015 A 
HETATM   19  C20 UNK     1      18.996  -6.664  37.392  1.00  0.00     0.001 A 
HETATM   20  C22 UNK     1      20.014  -6.884  38.321  1.00  0.00     0.000 A 
HETATM   21  C21 UNK     1      21.040  -5.950  38.465  1.00  0.00     0.001 A 
HETATM   22  C19 UNK     1      21.049  -4.796  37.681  1.00  0.00     0.015 A 
ENDBRANCH  15  17
ENDBRANCH  14  15
ENDBRANCH  13  14
ENDBRANCH  11  13
BRANCH   3  23
HETATM   23  C2  UNK     1      18.386   4.897  31.485  1.00  0.00     0.049 C 
BRANCH  23  24
HETATM   24  C1  UNK     1      19.814   5.421  31.308  1.00  0.00    -0.018 C 
HETATM   25  C6  UNK     1      20.152   6.537  32.300  1.00  0.00     0.010 C 
HETATM   26  C7  UNK     1      19.995   5.930  29.875  1.00  0.00     0.010 C 
ENDBRANCH  23  24
ENDBRANCH   3  23
TORSDOF 6
ENDMDL
MODEL 7
REMARK VINA RESULT:      -8.2     22.679     24.691
REMARK  6 active torsions:
REMARK  status: ('A' for Active; 'I' for Inactive)
REMARK    1  A    between atoms: C13_17  and  O2_2 
REMARK    2  A    between atoms: C15_19  and  O2_2 
REMARK    3  A    between atoms: C1_5  and  C2_6 
REMARK    4  A    between atoms: C2_6  and  C3_7 
REMARK    5  A    between atoms: C15_19  and  C16_20 
REMARK    6  A    between atoms: C16_20  and  C17_21 
ROOT
HETATM    1  O1  UNK     1      17.849   9.789   9.891  1.00  0.00    -0.274 OA
HETATM    2  O3  UNK     1      19.579  11.249   9.735  1.00  0.00    -0.259 OA
HETATM    3  C3  UNK     1      17.613  11.811   8.513  1.00  0.00     0.025 A 
HETATM    4  C4  UNK     1      16.365  11.451   8.144  1.00  0.00    -0.037 A 
HETATM    5  C5  UNK     1      15.775  10.211   8.689  1.00  0.00     0.005 A 
HETATM    6  C8  UNK     1      16.540   9.422   9.543  1.00  0.00     0.092 A 
HETATM    7  C9  UNK     1      18.432  10.953   9.419  1.00  0.00     0.295 A 
HETATM    8  C10 UNK     1      15.518  12.241   7.176  1.00  0.00     0.050 C 
HETATM    9  C11 UNK     1      14.472   9.772   8.407  1.00  0.00     0.017 A 
HETATM   10  C12 UNK     1      16.059   8.235  10.102  1.00  0.00     0.075 A 
HETATM   11  C13 UNK     1      14.767   7.816   9.805  1.00  0.00     0.072 A 
HETATM   12  C14 UNK     1      13.974   8.585   8.959  1.00  0.00     0.038 A 
ENDROOT
BRANCH  11  13
HETATM   13  O2  UNK     1      14.280   6.664  10.340  1.00  0.00    -0.344 OA
BRANCH  13  14
HETATM   14  C15 UNK     1      13.839   5.660   9.426  1.00  0.00     0.259 C 
BRANCH  14  15
HETATM   15  C16 UNK     1      12.335   5.491   9.528  1.00  0.00     0.183 C 
HETATM   16  O4  UNK     1      11.795   5.119  10.568  1.00  0.00    -0.290 OA
BRANCH  15  17
HETATM   17  C17 UNK     1      11.497   5.786   8.329  1.00  0.00     0.012 A 
HETATM   18  C18 UNK     1      10.139   5.938   8.493  1.00  0.00     0.015 A 
HETATM   19  C20 UNK     1       9.357   6.214   7.372  1.00  0.00     0.001 A 
HETATM   20  C22 UNK     1       9.954   6.332   6.117  1.00  0.00     0.000 A 
HETATM   21  C21 UNK     1      11.333   6.173   5.983  1.00  0.00     0.001 A 
HETATM   22  C19 UNK     1      12.116   5.897   7.105  1.00  0.00     0.015 A 
ENDBRANCH  15  17
ENDBRANCH  14  15
ENDBRANCH  13  14
ENDBRANCH  11  13
BRANCH   3  23
HETATM   23  C2  UNK     1      18.307  13.078   8.083  1.00  0.00     0.049 C 
BRANCH  23  24
HETATM   24  C1  UNK     1      19.135  12.894   6.808  1.00  0.00    -0.018 C 
HETATM   25  C6  UNK     1      20.594  13.321   6.995  1.00  0.00     0.010 C 
HETATM   26  C7  UNK     1      18.503  13.700   5.671  1.00  0.00     0.010 C 
ENDBRANCH  23  24
ENDBRANCH   3  23
TORSDOF 6
ENDMDL
MODEL 8
REMARK VINA RESULT:      -8.2      8.874     15.054
REMARK  6 active torsions:
REMARK  status: ('A' for Active; 'I' for Inactive)
REMARK    1  A    between atoms: C13_17  and  O2_2 
REMARK    2  A    between atoms: C15_19  and  O2_2 
REMARK    3  A    between atoms: C1_5  and  C2_6 
REMARK    4  A    between atoms: C2_6  and  C3_7 
REMARK    5  A    between atoms: C15_19  and  C16_20 
REMARK    6  A    between atoms: C16_20  and  C17_21 
ROOT
HETATM    1  O1  UNK     1      20.856  -7.917  34.841  1.00  0.00    -0.274 OA
HETATM    2  O3  UNK     1      21.639  -9.910  34.089  1.00  0.00    -0.259 OA
HETATM    3  C3  UNK     1      21.904  -9.484  36.417  1.00  0.00     0.025 A 
HETATM    4  C4  UNK     1      21.741  -8.615  37.438  1.00  0.00    -0.037 A 
HETATM    5  C5  UNK     1      21.066  -7.324  37.191  1.00  0.00     0.005 A 
HETATM    6  C8  UNK     1      20.649  -7.020  35.899  1.00  0.00     0.092 A 
HETATM    7  C9  UNK     1      21.466  -9.145  35.032  1.00  0.00     0.295 A 
HETATM    8  C10 UNK     1      22.227  -8.873  38.843  1.00  0.00     0.050 C 
HETATM    9  C11 UNK     1      20.805  -6.373  38.190  1.00  0.00     0.017 A 
HETATM   10  C12 UNK     1      20.004  -5.822  35.580  1.00  0.00     0.075 A 
HETATM   11  C13 UNK     1      19.760  -4.891  36.583  1.00  0.00     0.072 A 
HETATM   12  C14 UNK     1      20.159  -5.167  37.887  1.00  0.00     0.038 A 
ENDROOT
BRANCH  11  13
HETATM   13  O2  UNK     1      19.134  -3.719  36.293  1.00  0.00    -0.344 OA
BRANCH  13  14
HETATM   14  C15 UNK     1      19.955  -2.560  36.152  1.00  0.00     0.259 C 
BRANCH  14  15
HETATM   15  C16 UNK     1      19.308  -1.580  35.193  1.00  0.00     0.183 C 
HETATM   16  O4  UNK     1      19.745  -1.402  34.058  1.00  0.00    -0.290 OA
BRANCH  15  17
HETATM   17  C17 UNK     1      18.111  -0.814  35.648  1.00  0.00     0.012 A 
HETATM   18  C18 UNK     1      18.110  -0.286  36.920  1.00  0.00     0.015 A 
HETATM   19  C20 UNK     1      16.991   0.430  37.345  1.00  0.00     0.001 A 
HETATM   20  C22 UNK     1      15.904   0.600  36.488  1.00  0.00     0.000 A 
HETATM   21  C21 UNK     1      15.936   0.053  35.205  1.00  0.00     0.001 A 
HETATM   22  C19 UNK     1      17.055  -0.664  34.779  1.00  0.00     0.015 A 
ENDBRANCH  15  17
ENDBRANCH  14  15
ENDBRANCH  13  14
ENDBRANCH  11  13
BRANCH   3  23
HETATM   23  C2  UNK     1      22.516 -10.856  36.544  1.00  0.00     0.049 C 
BRANCH  23  24
HETATM   24  C1  UNK     1      23.894 -10.952  35.883  1.00  0.00    -0.018 C 
HETATM   25  C6  UNK     1      24.392 -12.396  35.782  1.00  0.00     0.010 C 
HETATM   26  C7  UNK     1      24.898 -10.113  36.677  1.00  0.00     0.010 C 
ENDBRANCH  23  24
ENDBRANCH   3  23
TORSDOF 6
ENDMDL
MODEL 9
REMARK VINA RESULT:      -8.2     22.648     24.663
REMARK  6 active torsions:
REMARK  status: ('A' for Active; 'I' for Inactive)
REMARK    1  A    between atoms: C13_17  and  O2_2 
REMARK    2  A    between atoms: C15_19  and  O2_2 
REMARK    3  A    between atoms: C1_5  and  C2_6 
REMARK    4  A    between atoms: C2_6  and  C3_7 
REMARK    5  A    between atoms: C15_19  and  C16_20 
REMARK    6  A    between atoms: C16_20  and  C17_21 
ROOT
HETATM    1  O1  UNK     1      14.912  10.319   7.961  1.00  0.00    -0.274 OA
HETATM    2  O3  UNK     1      15.292  12.213   6.771  1.00  0.00    -0.259 OA
HETATM    3  C3  UNK     1      16.931  11.648   8.404  1.00  0.00     0.025 A 
HETATM    4  C4  UNK     1      17.310  10.802   9.387  1.00  0.00    -0.037 A 
HETATM    5  C5  UNK     1      16.484   9.612   9.679  1.00  0.00     0.005 A 
HETATM    6  C8  UNK     1      15.312   9.414   8.956  1.00  0.00     0.092 A 
HETATM    7  C9  UNK     1      15.666  11.435   7.642  1.00  0.00     0.295 A 
HETATM    8  C10 UNK     1      18.540  11.004  10.237  1.00  0.00     0.050 C 
HETATM    9  C11 UNK     1      16.812   8.648  10.645  1.00  0.00     0.017 A 
HETATM   10  C12 UNK     1      14.474   8.316   9.169  1.00  0.00     0.075 A 
HETATM   11  C13 UNK     1      14.815   7.376  10.135  1.00  0.00     0.072 A 
HETATM   12  C14 UNK     1      15.983   7.541  10.871  1.00  0.00     0.038 A 
ENDROOT
BRANCH  11  13
HETATM   13  O2  UNK     1      14.012   6.300  10.357  1.00  0.00    -0.344 OA
BRANCH  13  14
HETATM   14  C15 UNK     1      13.501   5.622   9.210  1.00  0.00     0.259 C 
BRANCH  14  15
HETATM   15  C16 UNK     1      11.995   5.485   9.317  1.00  0.00     0.183 C 
HETATM   16  O4  UNK     1      11.451   5.115  10.355  1.00  0.00    -0.290 OA
BRANCH  15  17
HETATM   17  C17 UNK     1      11.159   5.810   8.124  1.00  0.00     0.012 A 
HETATM   18  C18 UNK     1      11.778   5.958   6.903  1.00  0.00     0.015 A 
HETATM   19  C20 UNK     1      10.996   6.260   5.789  1.00  0.00     0.001 A 
HETATM   20  C22 UNK     1       9.615   6.405   5.924  1.00  0.00     0.000 A 
HETATM   21  C21 UNK     1       9.017   6.249   7.174  1.00  0.00     0.001 A 
HETATM   22  C19 UNK     1       9.799   5.946   8.290  1.00  0.00     0.015 A 
ENDBRANCH  15  17
ENDBRANCH  14  15
ENDBRANCH  13  14
ENDBRANCH  11  13
BRANCH   3  23
HETATM   23  C2  UNK     1      17.712  12.859   7.962  1.00  0.00     0.049 C 
BRANCH  23  24
HETATM   24  C1  UNK     1      18.741  12.534   6.875  1.00  0.00    -0.018 C 
HETATM   25  C6  UNK     1      20.180  12.620   7.391  1.00  0.00     0.010 C 
HETATM   26  C7  UNK     1      18.556  13.494   5.697  1.00  0.00     0.010 C 
ENDBRANCH  23  24
ENDBRANCH   3  23
TORSDOF 6
ENDMDL
MODEL 10
REMARK VINA RESULT:      -8.1     14.075     16.721
REMARK  6 active torsions:
REMARK  status: ('A' for Active; 'I' for Inactive)
REMARK    1  A    between atoms: C13_17  and  O2_2 
REMARK    2  A    between atoms: C15_19  and  O2_2 
REMARK    3  A    between atoms: C1_5  and  C2_6 
REMARK    4  A    between atoms: C2_6  and  C3_7 
REMARK    5  A    between atoms: C15_19  and  C16_20 
REMARK    6  A    between atoms: C16_20  and  C17_21 
ROOT
HETATM    1  O1  UNK     1      25.686  -5.081  38.917  1.00  0.00    -0.274 OA
HETATM    2  O3  UNK     1      27.833  -4.361  38.754  1.00  0.00    -0.259 OA
HETATM    3  C3  UNK     1      27.514  -6.721  38.811  1.00  0.00     0.025 A 
HETATM    4  C4  UNK     1      26.642  -7.746  38.923  1.00  0.00    -0.037 A 
HETATM    5  C5  UNK     1      25.194  -7.463  39.003  1.00  0.00     0.005 A 
HETATM    6  C8  UNK     1      24.767  -6.138  39.000  1.00  0.00     0.092 A 
HETATM    7  C9  UNK     1      27.049  -5.303  38.820  1.00  0.00     0.295 A 
HETATM    8  C10 UNK     1      27.058  -9.195  38.990  1.00  0.00     0.050 C 
HETATM    9  C11 UNK     1      24.203  -8.455  39.075  1.00  0.00     0.017 A 
HETATM   10  C12 UNK     1      23.418  -5.783  39.073  1.00  0.00     0.075 A 
HETATM   11  C13 UNK     1      22.453  -6.781  39.148  1.00  0.00     0.072 A 
HETATM   12  C14 UNK     1      22.846  -8.116  39.148  1.00  0.00     0.038 A 
ENDROOT
BRANCH  11  13
HETATM   13  O2  UNK     1      21.135  -6.456  39.220  1.00  0.00    -0.344 OA
BRANCH  13  14
HETATM   14  C15 UNK     1      20.484  -6.108  37.998  1.00  0.00     0.259 C 
BRANCH  14  15
HETATM   15  C16 UNK     1      19.582  -7.241  37.549  1.00  0.00     0.183 C 
HETATM   16  O4  UNK     1      18.362  -7.189  37.684  1.00  0.00    -0.290 OA
BRANCH  15  17
HETATM   17  C17 UNK     1      20.203  -8.449  36.929  1.00  0.00     0.012 A 
HETATM   18  C18 UNK     1      19.878  -9.689  37.430  1.00  0.00     0.015 A 
HETATM   19  C20 UNK     1      20.457 -10.817  36.850  1.00  0.00     0.001 A 
HETATM   20  C22 UNK     1      21.345 -10.676  35.784  1.00  0.00     0.000 A 
HETATM   21  C21 UNK     1      21.654  -9.405  35.298  1.00  0.00     0.001 A 
HETATM   22  C19 UNK     1      21.075  -8.276  35.879  1.00  0.00     0.015 A 
ENDBRANCH  15  17
ENDBRANCH  14  15
ENDBRANCH  13  14
ENDBRANCH  11  13
BRANCH   3  23
HETATM   23  C2  UNK     1      29.005  -6.873  38.657  1.00  0.00     0.049 C 
BRANCH  23  24
HETATM   24  C1  UNK     1      29.432  -7.067  37.198  1.00  0.00    -0.018 C 
HETATM   25  C6  UNK     1      30.196  -8.377  36.985  1.00  0.00     0.010 C 
HETATM   26  C7  UNK     1      30.301  -5.885  36.761  1.00  0.00     0.010 C 
ENDBRANCH  23  24
ENDBRANCH   3  23
TORSDOF 6
ENDMDL
