MODEL 1
REMARK VINA RESULT:      -7.3      0.000      0.000
REMARK  3 active torsions:
REMARK  status: ('A' for Active; 'I' for Inactive)
REMARK    1  A    between atoms: C5_8  and  N1_2 
REMARK    2  A    between atoms: C10_13  and  C11_14 
REMARK    3  A    between atoms: C12_15  and  C13_16 
ROOT
HETATM    1  N2  UNK     1      29.320  -3.653  39.961  1.00  0.00    -0.191 NA
HETATM    2  C11 UNK     1      31.858  -4.799  37.951  1.00  0.00     0.034 C 
HETATM    3  C12 UNK     1      30.589  -5.121  38.244  1.00  0.00     0.055 C 
HETATM    4  C19 UNK     1      29.890  -4.309  39.191  1.00  0.00     0.100 C 
ENDROOT
BRANCH   3   5
HETATM    5  C13 UNK     1      29.864  -6.252  37.632  1.00  0.00    -0.015 A 
HETATM    6  C15 UNK     1      29.734  -7.434  38.341  1.00  0.00     0.014 A 
HETATM    7  C17 UNK     1      29.047  -8.501  37.763  1.00  0.00     0.024 A 
HETATM    8  C18 UNK     1      28.503  -8.371  36.486  1.00  0.00     0.034 A 
HETATM    9  C16 UNK     1      28.643  -7.173  35.786  1.00  0.00     0.024 A 
HETATM   10 Cl1  UNK     1      27.656  -9.690  35.773  1.00  0.00    -0.084 Cl
HETATM   11  C14 UNK     1      29.330  -6.104  36.364  1.00  0.00     0.014 A 
ENDBRANCH   3   5
BRANCH   2  12
HETATM   12  C10 UNK     1      32.760  -5.486  37.041  1.00  0.00    -0.035 A 
HETATM   13  C8  UNK     1      33.476  -6.601  37.477  1.00  0.00     0.013 A 
HETATM   14  C6  UNK     1      34.341  -7.260  36.604  1.00  0.00     0.030 A 
HETATM   15  C5  UNK     1      34.525  -6.830  35.258  1.00  0.00     0.030 A 
HETATM   16  C7  UNK     1      33.775  -5.689  34.857  1.00  0.00     0.030 A 
HETATM   17  C9  UNK     1      32.910  -5.030  35.731  1.00  0.00     0.013 A 
BRANCH  15  18
HETATM   18  N1  UNK     1      35.379  -7.482  34.396  1.00  0.00    -0.381 N 
HETATM   19  C3  UNK     1      34.946  -8.216  33.210  1.00  0.00     0.123 C 
HETATM   20  C1  UNK     1      36.243  -8.479  32.448  1.00  0.00     0.021 C 
HETATM   21  C2  UNK     1      37.276  -8.590  33.556  1.00  0.00     0.021 C 
HETATM   22  C4  UNK     1      36.831  -7.524  34.555  1.00  0.00     0.123 C 
ENDBRANCH  15  18
ENDBRANCH   2  12
TORSDOF 3
ENDMDL
MODEL 2
REMARK VINA RESULT:      -7.1      4.090      7.330
REMARK  3 active torsions:
REMARK  status: ('A' for Active; 'I' for Inactive)
REMARK    1  A    between atoms: C5_8  and  N1_2 
REMARK    2  A    between atoms: C10_13  and  C11_14 
REMARK    3  A    between atoms: C12_15  and  C13_16 
ROOT
HETATM    1  N2  UNK     1      32.563  -9.566  28.979  1.00  0.00    -0.191 NA
HETATM    2  C11 UNK     1      32.027  -8.221  32.093  1.00  0.00     0.034 C 
HETATM    3  C12 UNK     1      31.362  -8.369  30.937  1.00  0.00     0.055 C 
HETATM    4  C19 UNK     1      32.026  -9.030  29.858  1.00  0.00     0.100 C 
ENDROOT
BRANCH   3   5
HETATM    5  C13 UNK     1      29.976  -7.907  30.719  1.00  0.00    -0.015 A 
HETATM    6  C15 UNK     1      29.745  -6.571  30.442  1.00  0.00     0.014 A 
HETATM    7  C17 UNK     1      28.437  -6.135  30.234  1.00  0.00     0.024 A 
HETATM    8  C18 UNK     1      27.380  -7.042  30.309  1.00  0.00     0.034 A 
HETATM    9  C16 UNK     1      27.631  -8.385  30.589  1.00  0.00     0.024 A 
HETATM   10 Cl1  UNK     1      25.765  -6.503  30.053  1.00  0.00    -0.084 Cl
HETATM   11  C14 UNK     1      28.940  -8.821  30.797  1.00  0.00     0.014 A 
ENDBRANCH   3   5
BRANCH   2  12
HETATM   12  C10 UNK     1      31.561  -7.571  33.307  1.00  0.00    -0.035 A 
HETATM   13  C8  UNK     1      31.865  -6.229  33.540  1.00  0.00     0.013 A 
HETATM   14  C6  UNK     1      31.418  -5.605  34.705  1.00  0.00     0.030 A 
HETATM   15  C5  UNK     1      30.651  -6.298  35.684  1.00  0.00     0.030 A 
HETATM   16  C7  UNK     1      30.367  -7.665  35.405  1.00  0.00     0.030 A 
HETATM   17  C9  UNK     1      30.813  -8.289  34.240  1.00  0.00     0.013 A 
BRANCH  15  18
HETATM   18  N1  UNK     1      30.210  -5.681  36.835  1.00  0.00    -0.381 N 
HETATM   19  C3  UNK     1      30.803  -4.470  37.396  1.00  0.00     0.123 C 
HETATM   20  C1  UNK     1      29.797  -4.028  38.456  1.00  0.00     0.021 C 
HETATM   21  C2  UNK     1      29.196  -5.340  38.929  1.00  0.00     0.021 C 
HETATM   22  C4  UNK     1      29.090  -6.158  37.643  1.00  0.00     0.123 C 
ENDBRANCH  15  18
ENDBRANCH   2  12
TORSDOF 3
ENDMDL
MODEL 3
REMARK VINA RESULT:      -7.1      4.094      7.259
REMARK  3 active torsions:
REMARK  status: ('A' for Active; 'I' for Inactive)
REMARK    1  A    between atoms: C5_8  and  N1_2 
REMARK    2  A    between atoms: C10_13  and  C11_14 
REMARK    3  A    between atoms: C12_15  and  C13_16 
ROOT
HETATM    1  N2  UNK     1      32.530  -9.567  28.954  1.00  0.00    -0.191 NA
HETATM    2  C11 UNK     1      32.010  -8.221  32.070  1.00  0.00     0.034 C 
HETATM    3  C12 UNK     1      31.337  -8.372  30.919  1.00  0.00     0.055 C 
HETATM    4  C19 UNK     1      31.997  -9.032  29.836  1.00  0.00     0.100 C 
ENDROOT
BRANCH   3   5
HETATM    5  C13 UNK     1      29.949  -7.915  30.710  1.00  0.00    -0.015 A 
HETATM    6  C15 UNK     1      29.708  -6.573  30.478  1.00  0.00     0.014 A 
HETATM    7  C17 UNK     1      28.397  -6.141  30.278  1.00  0.00     0.024 A 
HETATM    8  C18 UNK     1      27.347  -7.058  30.316  1.00  0.00     0.034 A 
HETATM    9  C16 UNK     1      27.608  -8.408  30.552  1.00  0.00     0.024 A 
HETATM   10 Cl1  UNK     1      25.729  -6.525  30.071  1.00  0.00    -0.084 Cl
HETATM   11  C14 UNK     1      28.920  -8.840  30.751  1.00  0.00     0.014 A 
ENDBRANCH   3   5
BRANCH   2  12
HETATM   12  C10 UNK     1      31.550  -7.572  33.287  1.00  0.00    -0.035 A 
HETATM   13  C8  UNK     1      30.760  -8.274  34.197  1.00  0.00     0.013 A 
HETATM   14  C6  UNK     1      30.319  -7.651  35.365  1.00  0.00     0.030 A 
HETATM   15  C5  UNK     1      30.651  -6.299  35.669  1.00  0.00     0.030 A 
HETATM   16  C7  UNK     1      31.458  -5.622  34.712  1.00  0.00     0.030 A 
HETATM   17  C9  UNK     1      31.899  -6.245  33.544  1.00  0.00     0.013 A 
BRANCH  15  18
HETATM   18  N1  UNK     1      30.216  -5.685  36.823  1.00  0.00    -0.381 N 
HETATM   19  C3  UNK     1      29.104  -6.163  37.639  1.00  0.00     0.123 C 
HETATM   20  C1  UNK     1      29.217  -5.348  38.925  1.00  0.00     0.021 C 
HETATM   21  C2  UNK     1      29.812  -4.034  38.449  1.00  0.00     0.021 C 
HETATM   22  C4  UNK     1      30.812  -4.472  37.381  1.00  0.00     0.123 C 
ENDBRANCH  15  18
ENDBRANCH   2  12
TORSDOF 3
ENDMDL
MODEL 4
REMARK VINA RESULT:      -7.1      4.071      7.240
REMARK  3 active torsions:
REMARK  status: ('A' for Active; 'I' for Inactive)
REMARK    1  A    between atoms: C5_8  and  N1_2 
REMARK    2  A    between atoms: C10_13  and  C11_14 
REMARK    3  A    between atoms: C12_15  and  C13_16 
ROOT
HETATM    1  N2  UNK     1      32.603  -9.555  28.958  1.00  0.00    -0.191 NA
HETATM    2  C11 UNK     1      32.086  -8.182  32.063  1.00  0.00     0.034 C 
HETATM    3  C12 UNK     1      31.409  -8.353  30.918  1.00  0.00     0.055 C 
HETATM    4  C19 UNK     1      32.070  -9.017  29.837  1.00  0.00     0.100 C 
ENDROOT
BRANCH   3   5
HETATM    5  C13 UNK     1      30.014  -7.914  30.712  1.00  0.00    -0.015 A 
HETATM    6  C15 UNK     1      29.000  -8.856  30.730  1.00  0.00     0.014 A 
HETATM    7  C17 UNK     1      27.683  -8.441  30.537  1.00  0.00     0.024 A 
HETATM    8  C18 UNK     1      27.400  -7.092  30.327  1.00  0.00     0.034 A 
HETATM    9  C16 UNK     1      28.435  -6.156  30.311  1.00  0.00     0.024 A 
HETATM   10 Cl1  UNK     1      25.774  -6.581  30.087  1.00  0.00    -0.084 Cl
HETATM   11  C14 UNK     1      29.753  -6.571  30.504  1.00  0.00     0.014 A 
ENDBRANCH   3   5
BRANCH   2  12
HETATM   12  C10 UNK     1      31.626  -7.525  33.275  1.00  0.00    -0.035 A 
HETATM   13  C8  UNK     1      32.044  -6.225  33.565  1.00  0.00     0.013 A 
HETATM   14  C6  UNK     1      31.603  -5.594  34.729  1.00  0.00     0.030 A 
HETATM   15  C5  UNK     1      30.727  -6.238  35.649  1.00  0.00     0.030 A 
HETATM   16  C7  UNK     1      30.328  -7.562  35.313  1.00  0.00     0.030 A 
HETATM   17  C9  UNK     1      30.769  -8.193  34.150  1.00  0.00     0.013 A 
BRANCH  15  18
HETATM   18  N1  UNK     1      30.291  -5.614  36.798  1.00  0.00    -0.381 N 
HETATM   19  C3  UNK     1      29.158  -6.068  37.599  1.00  0.00     0.123 C 
HETATM   20  C1  UNK     1      29.273  -5.256  38.887  1.00  0.00     0.021 C 
HETATM   21  C2  UNK     1      29.904  -3.955  38.420  1.00  0.00     0.021 C 
HETATM   22  C4  UNK     1      30.907  -4.416  37.365  1.00  0.00     0.123 C 
ENDBRANCH  15  18
ENDBRANCH   2  12
TORSDOF 3
ENDMDL
MODEL 5
REMARK VINA RESULT:      -6.7      4.133      5.799
REMARK  3 active torsions:
REMARK  status: ('A' for Active; 'I' for Inactive)
REMARK    1  A    between atoms: C5_8  and  N1_2 
REMARK    2  A    between atoms: C10_13  and  C11_14 
REMARK    3  A    between atoms: C12_15  and  C13_16 
ROOT
HETATM    1  N2  UNK     1      27.419 -10.012  40.171  1.00  0.00    -0.191 NA
HETATM    2  C11 UNK     1      27.888  -9.423  36.821  1.00  0.00     0.034 C 
HETATM    3  C12 UNK     1      28.447  -9.070  37.988  1.00  0.00     0.055 C 
HETATM    4  C19 UNK     1      27.879  -9.591  39.192  1.00  0.00     0.100 C 
ENDROOT
BRANCH   3   5
HETATM    5  C13 UNK     1      29.628  -8.190  38.103  1.00  0.00    -0.015 A 
HETATM    6  C15 UNK     1      29.442  -6.833  38.296  1.00  0.00     0.014 A 
HETATM    7  C17 UNK     1      30.557  -6.002  38.407  1.00  0.00     0.024 A 
HETATM    8  C18 UNK     1      31.840  -6.542  38.320  1.00  0.00     0.034 A 
HETATM    9  C16 UNK     1      32.009  -7.913  38.126  1.00  0.00     0.024 A 
HETATM   10 Cl1  UNK     1      33.216  -5.516  38.456  1.00  0.00    -0.084 Cl
HETATM   11  C14 UNK     1      30.893  -8.744  38.015  1.00  0.00     0.014 A 
ENDBRANCH   3   5
BRANCH   2  12
HETATM   12  C10 UNK     1      28.283  -9.005  35.485  1.00  0.00    -0.035 A 
HETATM   13  C8  UNK     1      28.881  -9.917  34.616  1.00  0.00     0.013 A 
HETATM   14  C6  UNK     1      29.260  -9.515  33.335  1.00  0.00     0.030 A 
HETATM   15  C5  UNK     1      29.055  -8.184  32.872  1.00  0.00     0.030 A 
HETATM   16  C7  UNK     1      28.442  -7.288  33.792  1.00  0.00     0.030 A 
HETATM   17  C9  UNK     1      28.064  -7.690  35.073  1.00  0.00     0.013 A 
BRANCH  15  18
HETATM   18  N1  UNK     1      29.428  -7.788  31.606  1.00  0.00    -0.381 N 
HETATM   19  C3  UNK     1      30.033  -6.496  31.295  1.00  0.00     0.123 C 
HETATM   20  C1  UNK     1      30.529  -6.660  29.860  1.00  0.00     0.021 C 
HETATM   21  C2  UNK     1      29.533  -7.638  29.261  1.00  0.00     0.021 C 
HETATM   22  C4  UNK     1      29.267  -8.610  30.408  1.00  0.00     0.123 C 
ENDBRANCH  15  18
ENDBRANCH   2  12
TORSDOF 3
ENDMDL
MODEL 6
REMARK VINA RESULT:      -6.7      4.322      7.850
REMARK  3 active torsions:
REMARK  status: ('A' for Active; 'I' for Inactive)
REMARK    1  A    between atoms: C5_8  and  N1_2 
REMARK    2  A    between atoms: C10_13  and  C11_14 
REMARK    3  A    between atoms: C12_15  and  C13_16 
ROOT
HETATM    1  N2  UNK     1      32.455  -9.878  29.184  1.00  0.00    -0.191 NA
HETATM    2  C11 UNK     1      31.316  -9.423  32.391  1.00  0.00     0.034 C 
HETATM    3  C12 UNK     1      30.928  -9.134  31.140  1.00  0.00     0.055 C 
HETATM    4  C19 UNK     1      31.772  -9.546  30.062  1.00  0.00     0.100 C 
ENDROOT
BRANCH   3   5
HETATM    5  C13 UNK     1      29.671  -8.434  30.808  1.00  0.00    -0.015 A 
HETATM    6  C15 UNK     1      29.664  -7.051  30.750  1.00  0.00     0.014 A 
HETATM    7  C17 UNK     1      28.477  -6.390  30.435  1.00  0.00     0.024 A 
HETATM    8  C18 UNK     1      27.316  -7.121  30.184  1.00  0.00     0.034 A 
HETATM    9  C16 UNK     1      27.342  -8.515  30.247  1.00  0.00     0.024 A 
HETATM   10 Cl1  UNK     1      25.852  -6.304  29.796  1.00  0.00    -0.084 Cl
HETATM   11  C14 UNK     1      28.530  -9.176  30.563  1.00  0.00     0.014 A 
ENDBRANCH   3   5
BRANCH   2  12
HETATM   12  C10 UNK     1      30.634  -9.089  33.631  1.00  0.00    -0.035 A 
HETATM   13  C8  UNK     1      29.637  -9.930  34.126  1.00  0.00     0.013 A 
HETATM   14  C6  UNK     1      28.981  -9.609  35.316  1.00  0.00     0.030 A 
HETATM   15  C5  UNK     1      29.297  -8.435  36.057  1.00  0.00     0.030 A 
HETATM   16  C7  UNK     1      30.320  -7.607  35.514  1.00  0.00     0.030 A 
HETATM   17  C9  UNK     1      30.975  -7.928  34.325  1.00  0.00     0.013 A 
BRANCH  15  18
HETATM   18  N1  UNK     1      28.650  -8.120  37.232  1.00  0.00    -0.381 N 
HETATM   19  C3  UNK     1      28.257  -9.100  38.241  1.00  0.00     0.123 C 
HETATM   20  C1  UNK     1      27.871  -8.247  39.448  1.00  0.00     0.021 C 
HETATM   21  C2  UNK     1      27.341  -6.972  38.814  1.00  0.00     0.021 C 
HETATM   22  C4  UNK     1      28.274  -6.763  37.623  1.00  0.00     0.123 C 
ENDBRANCH  15  18
ENDBRANCH   2  12
TORSDOF 3
ENDMDL
MODEL 7
REMARK VINA RESULT:      -6.6     27.533     29.741
REMARK  3 active torsions:
REMARK  status: ('A' for Active; 'I' for Inactive)
REMARK    1  A    between atoms: C5_8  and  N1_2 
REMARK    2  A    between atoms: C10_13  and  C11_14 
REMARK    3  A    between atoms: C12_15  and  C13_16 
ROOT
HETATM    1  N2  UNK     1      13.029   6.596  26.103  1.00  0.00    -0.191 NA
HETATM    2  C11 UNK     1      12.681   7.447  22.794  1.00  0.00     0.034 C 
HETATM    3  C12 UNK     1      13.002   8.042  23.953  1.00  0.00     0.055 C 
HETATM    4  C19 UNK     1      13.017   7.242  25.138  1.00  0.00     0.100 C 
ENDROOT
BRANCH   3   5
HETATM    5  C13 UNK     1      13.361   9.469  24.076  1.00  0.00    -0.015 A 
HETATM    6  C15 UNK     1      14.678   9.852  23.896  1.00  0.00     0.014 A 
HETATM    7  C17 UNK     1      15.017  11.200  24.010  1.00  0.00     0.024 A 
HETATM    8  C18 UNK     1      14.034  12.143  24.304  1.00  0.00     0.034 A 
HETATM    9  C16 UNK     1      12.710  11.740  24.482  1.00  0.00     0.024 A 
HETATM   10 Cl1  UNK     1      14.452  13.807  24.446  1.00  0.00    -0.084 Cl
HETATM   11  C14 UNK     1      12.371  10.391  24.368  1.00  0.00     0.014 A 
ENDBRANCH   3   5
BRANCH   2  12
HETATM   12  C10 UNK     1      12.584   8.061  21.480  1.00  0.00    -0.035 A 
HETATM   13  C8  UNK     1      13.727   8.212  20.695  1.00  0.00     0.013 A 
HETATM   14  C6  UNK     1      13.634   8.801  19.433  1.00  0.00     0.030 A 
HETATM   15  C5  UNK     1      12.394   9.262  18.907  1.00  0.00     0.030 A 
HETATM   16  C7  UNK     1      11.255   9.088  19.742  1.00  0.00     0.030 A 
HETATM   17  C9  UNK     1      11.348   8.500  21.004  1.00  0.00     0.013 A 
BRANCH  15  18
HETATM   18  N1  UNK     1      12.303   9.843  17.660  1.00  0.00    -0.381 N 
HETATM   19  C3  UNK     1      11.389   9.397  16.612  1.00  0.00     0.123 C 
HETATM   20  C1  UNK     1      11.447  10.517  15.576  1.00  0.00     0.021 C 
HETATM   21  C2  UNK     1      12.864  11.046  15.719  1.00  0.00     0.021 C 
HETATM   22  C4  UNK     1      13.108  10.982  17.225  1.00  0.00     0.123 C 
ENDBRANCH  15  18
ENDBRANCH   2  12
TORSDOF 3
ENDMDL
MODEL 8
REMARK VINA RESULT:      -6.6     34.810     36.729
REMARK  3 active torsions:
REMARK  status: ('A' for Active; 'I' for Inactive)
REMARK    1  A    between atoms: C5_8  and  N1_2 
REMARK    2  A    between atoms: C10_13  and  C11_14 
REMARK    3  A    between atoms: C12_15  and  C13_16 
ROOT
HETATM    1  N2  UNK     1      15.807   3.706   9.906  1.00  0.00    -0.191 NA
HETATM    2  C11 UNK     1      15.080   7.040  10.289  1.00  0.00     0.034 C 
HETATM    3  C12 UNK     1      14.582   5.974   9.646  1.00  0.00     0.055 C 
HETATM    4  C19 UNK     1      15.259   4.723   9.791  1.00  0.00     0.100 C 
ENDROOT
BRANCH   3   5
HETATM    5  C13 UNK     1      13.363   6.009   8.813  1.00  0.00    -0.015 A 
HETATM    6  C15 UNK     1      12.165   5.573   9.351  1.00  0.00     0.014 A 
HETATM    7  C17 UNK     1      11.013   5.608   8.565  1.00  0.00     0.024 A 
HETATM    8  C18 UNK     1      11.078   6.076   7.253  1.00  0.00     0.034 A 
HETATM    9  C16 UNK     1      12.295   6.512   6.727  1.00  0.00     0.024 A 
HETATM   10 Cl1  UNK     1       9.657   6.118   6.282  1.00  0.00    -0.084 Cl
HETATM   11  C14 UNK     1      13.447   6.477   7.514  1.00  0.00     0.014 A 
ENDBRANCH   3   5
BRANCH   2  12
HETATM   12  C10 UNK     1      14.573   8.403  10.273  1.00  0.00    -0.035 A 
HETATM   13  C8  UNK     1      13.564   8.783  11.158  1.00  0.00     0.013 A 
HETATM   14  C6  UNK     1      13.077  10.090  11.142  1.00  0.00     0.030 A 
HETATM   15  C5  UNK     1      13.580  11.070  10.239  1.00  0.00     0.030 A 
HETATM   16  C7  UNK     1      14.608  10.638   9.354  1.00  0.00     0.030 A 
HETATM   17  C9  UNK     1      15.094   9.331   9.371  1.00  0.00     0.013 A 
BRANCH  15  18
HETATM   18  N1  UNK     1      13.099  12.361  10.225  1.00  0.00    -0.381 N 
HETATM   19  C3  UNK     1      11.820  12.768  10.801  1.00  0.00     0.123 C 
HETATM   20  C1  UNK     1      11.890  14.293  10.805  1.00  0.00     0.021 C 
HETATM   21  C2  UNK     1      12.758  14.602   9.597  1.00  0.00     0.021 C 
HETATM   22  C4  UNK     1      13.807  13.494   9.631  1.00  0.00     0.123 C 
ENDBRANCH  15  18
ENDBRANCH   2  12
TORSDOF 3
ENDMDL
MODEL 9
REMARK VINA RESULT:      -6.6      4.018      5.764
REMARK  3 active torsions:
REMARK  status: ('A' for Active; 'I' for Inactive)
REMARK    1  A    between atoms: C5_8  and  N1_2 
REMARK    2  A    between atoms: C10_13  and  C11_14 
REMARK    3  A    between atoms: C12_15  and  C13_16 
ROOT
HETATM    1  N2  UNK     1      28.373  -5.583  39.434  1.00  0.00    -0.191 NA
HETATM    2  C11 UNK     1      28.160  -6.968  36.299  1.00  0.00     0.034 C 
HETATM    3  C12 UNK     1      29.111  -6.535  37.140  1.00  0.00     0.055 C 
HETATM    4  C19 UNK     1      28.702  -6.010  38.406  1.00  0.00     0.100 C 
ENDROOT
BRANCH   3   5
HETATM    5  C13 UNK     1      30.557  -6.586  36.846  1.00  0.00    -0.015 A 
HETATM    6  C15 UNK     1      31.289  -7.690  37.246  1.00  0.00     0.014 A 
HETATM    7  C17 UNK     1      32.654  -7.739  36.967  1.00  0.00     0.024 A 
HETATM    8  C18 UNK     1      33.267  -6.683  36.294  1.00  0.00     0.034 A 
HETATM    9  C16 UNK     1      32.514  -5.577  35.899  1.00  0.00     0.024 A 
HETATM   10 Cl1  UNK     1      34.953  -6.743  35.951  1.00  0.00    -0.084 Cl
HETATM   11  C14 UNK     1      31.148  -5.528  36.178  1.00  0.00     0.014 A 
ENDBRANCH   3   5
BRANCH   2  12
HETATM   12  C10 UNK     1      28.340  -7.517  34.965  1.00  0.00    -0.035 A 
HETATM   13  C8  UNK     1      28.651  -8.868  34.803  1.00  0.00     0.013 A 
HETATM   14  C6  UNK     1      28.823  -9.395  33.523  1.00  0.00     0.030 A 
HETATM   15  C5  UNK     1      28.691  -8.593  32.354  1.00  0.00     0.030 A 
HETATM   16  C7  UNK     1      28.374  -7.222  32.567  1.00  0.00     0.030 A 
HETATM   17  C9  UNK     1      28.201  -6.695  33.847  1.00  0.00     0.013 A 
BRANCH  15  18
HETATM   18  N1  UNK     1      28.861  -9.115  31.090  1.00  0.00    -0.381 N 
HETATM   19  C3  UNK     1      30.010  -9.918  30.680  1.00  0.00     0.123 C 
HETATM   20  C1  UNK     1      29.590 -10.496  29.331  1.00  0.00     0.021 C 
HETATM   21  C2  UNK     1      28.677  -9.421  28.765  1.00  0.00     0.021 C 
HETATM   22  C4  UNK     1      27.912  -8.934  29.993  1.00  0.00     0.123 C 
ENDBRANCH  15  18
ENDBRANCH   2  12
TORSDOF 3
ENDMDL
MODEL 10
REMARK VINA RESULT:      -6.6      3.002      3.898
REMARK  3 active torsions:
REMARK  status: ('A' for Active; 'I' for Inactive)
REMARK    1  A    between atoms: C5_8  and  N1_2 
REMARK    2  A    between atoms: C10_13  and  C11_14 
REMARK    3  A    between atoms: C12_15  and  C13_16 
ROOT
HETATM    1  N2  UNK     1      29.556  -3.638  39.935  1.00  0.00    -0.191 NA
HETATM    2  C11 UNK     1      30.138  -5.164  36.914  1.00  0.00     0.034 C 
HETATM    3  C12 UNK     1      29.576  -5.462  38.095  1.00  0.00     0.055 C 
HETATM    4  C19 UNK     1      29.565  -4.454  39.109  1.00  0.00     0.100 C 
ENDROOT
BRANCH   3   5
HETATM    5  C13 UNK     1      28.948  -6.763  38.404  1.00  0.00    -0.015 A 
HETATM    6  C15 UNK     1      29.706  -7.917  38.314  1.00  0.00     0.014 A 
HETATM    7  C17 UNK     1      29.114  -9.145  38.607  1.00  0.00     0.024 A 
HETATM    8  C18 UNK     1      27.773  -9.200  38.985  1.00  0.00     0.034 A 
HETATM    9  C16 UNK     1      27.023  -8.026  39.071  1.00  0.00     0.024 A 
HETATM   10 Cl1  UNK     1      27.042 -10.716  39.346  1.00  0.00    -0.084 Cl
HETATM   11  C14 UNK     1      27.616  -6.797  38.777  1.00  0.00     0.014 A 
ENDBRANCH   3   5
BRANCH   2  12
HETATM   12  C10 UNK     1      30.278  -6.030  35.755  1.00  0.00    -0.035 A 
HETATM   13  C8  UNK     1      29.160  -6.352  34.985  1.00  0.00     0.013 A 
HETATM   14  C6  UNK     1      29.294  -7.183  33.873  1.00  0.00     0.030 A 
HETATM   15  C5  UNK     1      30.552  -7.726  33.486  1.00  0.00     0.030 A 
HETATM   16  C7  UNK     1      31.664  -7.372  34.300  1.00  0.00     0.030 A 
HETATM   17  C9  UNK     1      31.530  -6.541  35.413  1.00  0.00     0.013 A 
BRANCH  15  18
HETATM   18  N1  UNK     1      30.684  -8.546  32.386  1.00  0.00    -0.381 N 
HETATM   19  C3  UNK     1      30.493  -9.994  32.414  1.00  0.00     0.123 C 
HETATM   20  C1  UNK     1      30.445 -10.384  30.939  1.00  0.00     0.021 C 
HETATM   21  C2  UNK     1      31.349  -9.356  30.281  1.00  0.00     0.021 C 
HETATM   22  C4  UNK     1      31.033  -8.074  31.048  1.00  0.00     0.123 C 
ENDBRANCH  15  18
ENDBRANCH   2  12
TORSDOF 3
ENDMDL
