MODEL 1
REMARK VINA RESULT:      -7.9      0.000      0.000
REMARK  2 active torsions:
REMARK  status: ('A' for Active; 'I' for Inactive)
REMARK    1  A    between atoms: C13_18  and  O4_4 
REMARK       I    between atoms: C6_11  and  N1_5 
REMARK    2  A    between atoms: C6_11  and  C7_12 
ROOT
HETATM    1  O2  UNK     1      10.771   5.432   9.285  1.00  0.00    -0.271 OA
HETATM    2  O3  UNK     1      12.334   5.036  10.904  1.00  0.00    -0.259 OA
HETATM    3  C7  UNK     1      13.133   5.890   8.844  1.00  0.00     0.108 A 
HETATM    4  C8  UNK     1      12.848   6.307   7.605  1.00  0.00     0.037 A 
HETATM    5  C9  UNK     1      11.474   6.307   7.129  1.00  0.00     0.002 A 
HETATM    6  C10 UNK     1      12.076   5.419   9.769  1.00  0.00     0.304 A 
HETATM    7  C11 UNK     1      10.466   5.870   7.982  1.00  0.00     0.123 A 
HETATM    8  C12 UNK     1      11.131   6.733   5.843  1.00  0.00     0.014 A 
HETATM    9  C13 UNK     1       9.129   5.847   7.587  1.00  0.00     0.102 A 
HETATM   10  C14 UNK     1       9.795   6.715   5.433  1.00  0.00     0.004 A 
HETATM   11  C15 UNK     1       8.796   6.272   6.304  1.00  0.00     0.040 A 
ENDROOT
BRANCH   3  12
HETATM   12  C6  UNK     1      14.556   5.927   9.234  1.00  0.00     0.259 C 
HETATM   13  O1  UNK     1      15.257   4.962   8.924  1.00  0.00    -0.267 OA
HETATM   14  N1  UNK     1      15.010   7.046   9.928  1.00  0.00    -0.348 N 
HETATM   15  C4  UNK     1      16.419   7.110  10.332  1.00  0.00     0.126 C 
HETATM   16  C5  UNK     1      14.196   8.194  10.355  1.00  0.00     0.126 C 
HETATM   17  C2  UNK     1      17.075   8.405   9.865  1.00  0.00     0.020 C 
HETATM   18  C1  UNK     1      16.284   9.620  10.340  1.00  0.00     0.003 C 
HETATM   19  C3  UNK     1      14.824   9.514   9.908  1.00  0.00     0.020 C 
ENDBRANCH   3  12
BRANCH   9  20
HETATM   20  O4  UNK     1       8.154   5.416   8.431  1.00  0.00    -0.353 OA
HETATM   21  C16 UNK     1       7.535   6.394   9.266  1.00  0.00     0.210 C 
ENDBRANCH   9  20
TORSDOF 2
ENDMDL
MODEL 2
REMARK VINA RESULT:      -7.8      1.704      1.923
REMARK  2 active torsions:
REMARK  status: ('A' for Active; 'I' for Inactive)
REMARK    1  A    between atoms: C13_18  and  O4_4 
REMARK       I    between atoms: C6_11  and  N1_5 
REMARK    2  A    between atoms: C6_11  and  C7_12 
ROOT
HETATM    1  O2  UNK     1      11.282   7.448   9.651  1.00  0.00    -0.271 OA
HETATM    2  O3  UNK     1      12.769   8.120  11.250  1.00  0.00    -0.259 OA
HETATM    3  C7  UNK     1      13.670   7.547   9.135  1.00  0.00     0.108 A 
HETATM    4  C8  UNK     1      13.445   7.126   7.885  1.00  0.00     0.037 A 
HETATM    5  C9  UNK     1      12.091   6.834   7.443  1.00  0.00     0.002 A 
HETATM    6  C10 UNK     1      12.566   7.734  10.105  1.00  0.00     0.304 A 
HETATM    7  C11 UNK     1      11.039   7.004   8.337  1.00  0.00     0.123 A 
HETATM    8  C12 UNK     1      11.811   6.391   6.148  1.00  0.00     0.014 A 
HETATM    9  C13 UNK     1       9.719   6.743   7.975  1.00  0.00     0.102 A 
HETATM   10  C14 UNK     1      10.491   6.125   5.770  1.00  0.00     0.004 A 
HETATM   11  C15 UNK     1       9.448   6.301   6.682  1.00  0.00     0.040 A 
ENDROOT
BRANCH   3  12
HETATM   12  C6  UNK     1      15.078   7.816   9.490  1.00  0.00     0.259 C 
HETATM   13  O1  UNK     1      15.787   6.850   9.778  1.00  0.00    -0.267 OA
HETATM   14  N1  UNK     1      15.509   9.141   9.478  1.00  0.00    -0.348 N 
HETATM   15  C4  UNK     1      16.901   9.439   9.830  1.00  0.00     0.126 C 
HETATM   16  C5  UNK     1      14.683  10.321   9.185  1.00  0.00     0.126 C 
HETATM   17  C2  UNK     1      17.579  10.284   8.756  1.00  0.00     0.020 C 
HETATM   18  C1  UNK     1      16.774  11.548   8.466  1.00  0.00     0.003 C 
HETATM   19  C3  UNK     1      15.331  11.198   8.113  1.00  0.00     0.020 C 
ENDBRANCH   3  12
BRANCH   9  20
HETATM   20  O4  UNK     1       8.700   6.912   8.859  1.00  0.00    -0.353 OA
HETATM   21  C16 UNK     1       7.916   5.762   9.178  1.00  0.00     0.210 C 
ENDBRANCH   9  20
TORSDOF 2
ENDMDL
MODEL 3
REMARK VINA RESULT:      -7.7     28.000     30.172
REMARK  2 active torsions:
REMARK  status: ('A' for Active; 'I' for Inactive)
REMARK    1  A    between atoms: C13_18  and  O4_4 
REMARK       I    between atoms: C6_11  and  N1_5 
REMARK    2  A    between atoms: C6_11  and  C7_12 
ROOT
HETATM    1  O2  UNK     1      19.306  -1.515  34.563  1.00  0.00    -0.271 OA
HETATM    2  O3  UNK     1      20.767  -3.205  34.087  1.00  0.00    -0.259 OA
HETATM    3  C7  UNK     1      19.980  -3.079  36.318  1.00  0.00     0.108 A 
HETATM    4  C8  UNK     1      19.212  -2.447  37.213  1.00  0.00     0.037 A 
HETATM    5  C9  UNK     1      18.432  -1.285  36.819  1.00  0.00     0.002 A 
HETATM    6  C10 UNK     1      20.065  -2.629  34.910  1.00  0.00     0.304 A 
HETATM    7  C11 UNK     1      18.496  -0.846  35.501  1.00  0.00     0.123 A 
HETATM    8  C12 UNK     1      17.619  -0.594  37.721  1.00  0.00     0.014 A 
HETATM    9  C13 UNK     1      17.773   0.261  35.060  1.00  0.00     0.102 A 
HETATM   10  C14 UNK     1      16.887   0.518  37.293  1.00  0.00     0.004 A 
HETATM   11  C15 UNK     1      16.965   0.944  35.965  1.00  0.00     0.040 A 
ENDROOT
BRANCH   3  12
HETATM   12  C6  UNK     1      20.733  -4.248  36.814  1.00  0.00     0.259 C 
HETATM   13  O1  UNK     1      21.847  -4.043  37.299  1.00  0.00    -0.267 OA
HETATM   14  N1  UNK     1      20.137  -5.502  36.697  1.00  0.00    -0.348 N 
HETATM   15  C4  UNK     1      20.863  -6.682  37.178  1.00  0.00     0.126 C 
HETATM   16  C5  UNK     1      18.832  -5.791  36.085  1.00  0.00     0.126 C 
HETATM   17  C2  UNK     1      20.016  -7.504  38.143  1.00  0.00     0.020 C 
HETATM   18  C1  UNK     1      18.673  -7.869  37.516  1.00  0.00     0.003 C 
HETATM   19  C3  UNK     1      17.952  -6.618  37.022  1.00  0.00     0.020 C 
ENDBRANCH   3  12
BRANCH   9  20
HETATM   20  O4  UNK     1      17.846   0.680  33.768  1.00  0.00    -0.353 OA
HETATM   21  C16 UNK     1      18.143   2.059  33.546  1.00  0.00     0.210 C 
ENDBRANCH   9  20
TORSDOF 2
ENDMDL
MODEL 4
REMARK VINA RESULT:      -7.7     22.543     24.629
REMARK  2 active torsions:
REMARK  status: ('A' for Active; 'I' for Inactive)
REMARK    1  A    between atoms: C13_18  and  O4_4 
REMARK       I    between atoms: C6_11  and  N1_5 
REMARK    2  A    between atoms: C6_11  and  C7_12 
ROOT
HETATM    1  O2  UNK     1      18.717   2.198  32.808  1.00  0.00    -0.271 OA
HETATM    2  O3  UNK     1      18.158   3.798  34.340  1.00  0.00    -0.259 OA
HETATM    3  C7  UNK     1      17.849   4.359  32.059  1.00  0.00     0.108 A 
HETATM    4  C8  UNK     1      17.943   3.983  30.778  1.00  0.00     0.037 A 
HETATM    5  C9  UNK     1      18.443   2.661  30.437  1.00  0.00     0.002 A 
HETATM    6  C10 UNK     1      18.243   3.457  33.166  1.00  0.00     0.304 A 
HETATM    7  C11 UNK     1      18.818   1.798  31.461  1.00  0.00     0.123 A 
HETATM    8  C12 UNK     1      18.560   2.228  29.114  1.00  0.00     0.014 A 
HETATM    9  C13 UNK     1      19.304   0.518  31.201  1.00  0.00     0.102 A 
HETATM   10  C14 UNK     1      19.046   0.946  28.838  1.00  0.00     0.004 A 
HETATM   11  C15 UNK     1      19.418   0.094  29.879  1.00  0.00     0.040 A 
ENDROOT
BRANCH   3  12
HETATM   12  C6  UNK     1      17.329   5.719  32.303  1.00  0.00     0.259 C 
HETATM   13  O1  UNK     1      16.109   5.879  32.260  1.00  0.00    -0.267 OA
HETATM   14  N1  UNK     1      18.253   6.730  32.562  1.00  0.00    -0.348 N 
HETATM   15  C4  UNK     1      17.767   8.092  32.804  1.00  0.00     0.126 C 
HETATM   16  C5  UNK     1      19.716   6.587  32.577  1.00  0.00     0.126 C 
HETATM   17  C2  UNK     1      18.323   8.660  34.106  1.00  0.00     0.020 C 
HETATM   18  C1  UNK     1      19.847   8.578  34.131  1.00  0.00     0.003 C 
HETATM   19  C3  UNK     1      20.314   7.149  33.868  1.00  0.00     0.020 C 
ENDBRANCH   3  12
BRANCH   9  20
HETATM   20  O4  UNK     1      19.668  -0.315  32.212  1.00  0.00    -0.353 OA
HETATM   21  C16 UNK     1      18.720  -1.302  32.617  1.00  0.00     0.210 C 
ENDBRANCH   9  20
TORSDOF 2
ENDMDL
MODEL 5
REMARK VINA RESULT:      -7.6     24.450     26.721
REMARK  2 active torsions:
REMARK  status: ('A' for Active; 'I' for Inactive)
REMARK    1  A    between atoms: C13_18  and  O4_4 
REMARK       I    between atoms: C6_11  and  N1_5 
REMARK    2  A    between atoms: C6_11  and  C7_12 
ROOT
HETATM    1  O2  UNK     1      18.530   1.164  31.890  1.00  0.00    -0.271 OA
HETATM    2  O3  UNK     1      17.495   1.745  33.842  1.00  0.00    -0.259 OA
HETATM    3  C7  UNK     1      18.335  -0.466  33.702  1.00  0.00     0.108 A 
HETATM    4  C8  UNK     1      18.972  -1.391  32.974  1.00  0.00     0.037 A 
HETATM    5  C9  UNK     1      19.431  -1.079  31.630  1.00  0.00     0.002 A 
HETATM    6  C10 UNK     1      18.077   0.895  33.178  1.00  0.00     0.304 A 
HETATM    7  C11 UNK     1      19.200   0.194  31.119  1.00  0.00     0.123 A 
HETATM    8  C12 UNK     1      20.098  -2.014  30.835  1.00  0.00     0.014 A 
HETATM    9  C13 UNK     1      19.616   0.557  29.839  1.00  0.00     0.102 A 
HETATM   10  C14 UNK     1      20.521  -1.664  29.549  1.00  0.00     0.004 A 
HETATM   11  C15 UNK     1      20.279  -0.381  29.053  1.00  0.00     0.040 A 
ENDROOT
BRANCH   3  12
HETATM   12  C6  UNK     1      17.908  -0.880  35.054  1.00  0.00     0.259 C 
HETATM   13  O1  UNK     1      16.710  -0.784  35.326  1.00  0.00    -0.267 OA
HETATM   14  N1  UNK     1      18.885  -1.346  35.930  1.00  0.00    -0.348 N 
HETATM   15  C4  UNK     1      18.492  -1.760  37.280  1.00  0.00     0.126 C 
HETATM   16  C5  UNK     1      20.328  -1.431  35.657  1.00  0.00     0.126 C 
HETATM   17  C2  UNK     1      18.991  -3.165  37.601  1.00  0.00     0.020 C 
HETATM   18  C1  UNK     1      20.497  -3.273  37.381  1.00  0.00     0.003 C 
HETATM   19  C3  UNK     1      20.868  -2.827  35.969  1.00  0.00     0.020 C 
ENDBRANCH   3  12
BRANCH   9  20
HETATM   20  O4  UNK     1      19.383   1.805  29.352  1.00  0.00    -0.353 OA
HETATM   21  C16 UNK     1      18.119   2.036  28.729  1.00  0.00     0.210 C 
ENDBRANCH   9  20
TORSDOF 2
ENDMDL
MODEL 6
REMARK VINA RESULT:      -7.6     24.636     26.997
REMARK  2 active torsions:
REMARK  status: ('A' for Active; 'I' for Inactive)
REMARK    1  A    between atoms: C13_18  and  O4_4 
REMARK       I    between atoms: C6_11  and  N1_5 
REMARK    2  A    between atoms: C6_11  and  C7_12 
ROOT
HETATM    1  O2  UNK     1      20.542  -2.429  34.586  1.00  0.00    -0.271 OA
HETATM    2  O3  UNK     1      21.688  -2.895  32.665  1.00  0.00    -0.259 OA
HETATM    3  C7  UNK     1      19.719  -1.596  32.438  1.00  0.00     0.108 A 
HETATM    4  C8  UNK     1      18.675  -1.009  33.035  1.00  0.00     0.037 A 
HETATM    5  C9  UNK     1      18.506  -1.106  34.477  1.00  0.00     0.002 A 
HETATM    6  C10 UNK     1      20.730  -2.356  33.209  1.00  0.00     0.304 A 
HETATM    7  C11 UNK     1      19.445  -1.813  35.219  1.00  0.00     0.123 A 
HETATM    8  C12 UNK     1      17.431  -0.510  35.141  1.00  0.00     0.014 A 
HETATM    9  C13 UNK     1      19.340  -1.942  36.603  1.00  0.00     0.102 A 
HETATM   10  C14 UNK     1      17.313  -0.630  36.529  1.00  0.00     0.004 A 
HETATM   11  C15 UNK     1      18.265  -1.345  37.258  1.00  0.00     0.040 A 
ENDROOT
BRANCH   3  12
HETATM   12  C6  UNK     1      19.804  -1.442  30.972  1.00  0.00     0.259 C 
HETATM   13  O1  UNK     1      19.964  -2.463  30.301  1.00  0.00    -0.267 OA
HETATM   14  N1  UNK     1      19.701  -0.156  30.448  1.00  0.00    -0.348 N 
HETATM   15  C4  UNK     1      19.785   0.029  28.995  1.00  0.00     0.126 C 
HETATM   16  C5  UNK     1      19.555   1.088  31.218  1.00  0.00     0.126 C 
HETATM   17  C2  UNK     1      18.597   0.824  28.464  1.00  0.00     0.020 C 
HETATM   18  C1  UNK     1      18.451   2.149  29.206  1.00  0.00     0.003 C 
HETATM   19  C3  UNK     1      18.374   1.917  30.713  1.00  0.00     0.020 C 
ENDBRANCH   3  12
BRANCH   9  20
HETATM   20  O4  UNK     1      20.265  -2.638  37.317  1.00  0.00    -0.353 OA
HETATM   21  C16 UNK     1      20.144  -4.060  37.330  1.00  0.00     0.210 C 
ENDBRANCH   9  20
TORSDOF 2
ENDMDL
MODEL 7
REMARK VINA RESULT:      -7.6     22.844     24.581
REMARK  2 active torsions:
REMARK  status: ('A' for Active; 'I' for Inactive)
REMARK    1  A    between atoms: C13_18  and  O4_4 
REMARK       I    between atoms: C6_11  and  N1_5 
REMARK    2  A    between atoms: C6_11  and  C7_12 
ROOT
HETATM    1  O2  UNK     1      19.111   2.926  30.065  1.00  0.00    -0.271 OA
HETATM    2  O3  UNK     1      18.715   5.119  29.561  1.00  0.00    -0.259 OA
HETATM    3  C7  UNK     1      18.037   4.384  31.709  1.00  0.00     0.108 A 
HETATM    4  C8  UNK     1      17.954   3.377  32.587  1.00  0.00     0.037 A 
HETATM    5  C9  UNK     1      18.457   2.058  32.239  1.00  0.00     0.002 A 
HETATM    6  C10 UNK     1      18.637   4.200  30.368  1.00  0.00     0.304 A 
HETATM    7  C11 UNK     1      19.025   1.863  30.985  1.00  0.00     0.123 A 
HETATM    8  C12 UNK     1      18.389   0.978  33.123  1.00  0.00     0.014 A 
HETATM    9  C13 UNK     1      19.526   0.624  30.590  1.00  0.00     0.102 A 
HETATM   10  C14 UNK     1      18.888  -0.271  32.742  1.00  0.00     0.004 A 
HETATM   11  C15 UNK     1      19.455  -0.447  31.477  1.00  0.00     0.040 A 
ENDROOT
BRANCH   3  12
HETATM   12  C6  UNK     1      17.499   5.684  32.155  1.00  0.00     0.259 C 
HETATM   13  O1  UNK     1      16.274   5.805  32.208  1.00  0.00    -0.267 OA
HETATM   14  N1  UNK     1      18.410   6.686  32.482  1.00  0.00    -0.348 N 
HETATM   15  C4  UNK     1      17.905   7.990  32.925  1.00  0.00     0.126 C 
HETATM   16  C5  UNK     1      19.875   6.594  32.388  1.00  0.00     0.126 C 
HETATM   17  C2  UNK     1      18.530   8.410  34.251  1.00  0.00     0.020 C 
HETATM   18  C1  UNK     1      20.054   8.379  34.171  1.00  0.00     0.003 C 
HETATM   19  C3  UNK     1      20.540   7.011  33.700  1.00  0.00     0.020 C 
ENDBRANCH   3  12
BRANCH   9  20
HETATM   20  O4  UNK     1      20.079   0.447  29.360  1.00  0.00    -0.353 OA
HETATM   21  C16 UNK     1      20.539  -0.864  29.034  1.00  0.00     0.210 C 
ENDBRANCH   9  20
TORSDOF 2
ENDMDL
MODEL 8
REMARK VINA RESULT:      -7.5     12.148     14.224
REMARK  2 active torsions:
REMARK  status: ('A' for Active; 'I' for Inactive)
REMARK    1  A    between atoms: C13_18  and  O4_4 
REMARK       I    between atoms: C6_11  and  N1_5 
REMARK    2  A    between atoms: C6_11  and  C7_12 
ROOT
HETATM    1  O2  UNK     1      19.417   1.216  16.300  1.00  0.00    -0.271 OA
HETATM    2  O3  UNK     1      19.492   0.016  14.357  1.00  0.00    -0.259 OA
HETATM    3  C7  UNK     1      18.784  -1.146  16.296  1.00  0.00     0.108 A 
HETATM    4  C8  UNK     1      18.526  -1.107  17.609  1.00  0.00     0.037 A 
HETATM    5  C9  UNK     1      18.707   0.128  18.355  1.00  0.00     0.002 A 
HETATM    6  C10 UNK     1      19.255   0.049  15.560  1.00  0.00     0.304 A 
HETATM    7  C11 UNK     1      19.148   1.263  17.682  1.00  0.00     0.123 A 
HETATM    8  C12 UNK     1      18.452   0.214  19.726  1.00  0.00     0.014 A 
HETATM    9  C13 UNK     1      19.340   2.477  18.338  1.00  0.00     0.102 A 
HETATM   10  C14 UNK     1      18.640   1.425  20.398  1.00  0.00     0.004 A 
HETATM   11  C15 UNK     1      19.084   2.554  19.705  1.00  0.00     0.040 A 
ENDROOT
BRANCH   3  12
HETATM   12  C6  UNK     1      18.570  -2.446  15.628  1.00  0.00     0.259 C 
HETATM   13  O1  UNK     1      17.587  -2.553  14.894  1.00  0.00    -0.267 OA
HETATM   14  N1  UNK     1      19.490  -3.462  15.875  1.00  0.00    -0.348 N 
HETATM   15  C4  UNK     1      19.301  -4.765  15.229  1.00  0.00     0.126 C 
HETATM   16  C5  UNK     1      20.648  -3.386  16.779  1.00  0.00     0.126 C 
HETATM   17  C2  UNK     1      20.559  -5.207  14.488  1.00  0.00     0.020 C 
HETATM   18  C1  UNK     1      21.772  -5.193  15.414  1.00  0.00     0.003 C 
HETATM   19  C3  UNK     1      21.931  -3.825  16.073  1.00  0.00     0.020 C 
ENDBRANCH   3  12
BRANCH   9  20
HETATM   20  O4  UNK     1      19.773   3.578  17.668  1.00  0.00    -0.353 OA
HETATM   21  C16 UNK     1      20.671   4.449  18.356  1.00  0.00     0.210 C 
ENDBRANCH   9  20
TORSDOF 2
ENDMDL
MODEL 9
REMARK VINA RESULT:      -7.4      2.028      6.593
REMARK  2 active torsions:
REMARK  status: ('A' for Active; 'I' for Inactive)
REMARK    1  A    between atoms: C13_18  and  O4_4 
REMARK       I    between atoms: C6_11  and  N1_5 
REMARK    2  A    between atoms: C6_11  and  C7_12 
ROOT
HETATM    1  O2  UNK     1      14.565   7.174  10.178  1.00  0.00    -0.271 OA
HETATM    2  O3  UNK     1      12.737   5.844  10.506  1.00  0.00    -0.259 OA
HETATM    3  C7  UNK     1      12.376   7.876   9.344  1.00  0.00     0.108 A 
HETATM    4  C8  UNK     1      12.897   9.006   8.849  1.00  0.00     0.037 A 
HETATM    5  C9  UNK     1      14.317   9.285   9.000  1.00  0.00     0.002 A 
HETATM    6  C10 UNK     1      13.211   6.879  10.052  1.00  0.00     0.304 A 
HETATM    7  C11 UNK     1      15.119   8.361   9.660  1.00  0.00     0.123 A 
HETATM    8  C12 UNK     1      14.902  10.452   8.501  1.00  0.00     0.014 A 
HETATM    9  C13 UNK     1      16.485   8.569   9.837  1.00  0.00     0.102 A 
HETATM   10  C14 UNK     1      16.272  10.674   8.670  1.00  0.00     0.004 A 
HETATM   11  C15 UNK     1      17.061   9.735   9.337  1.00  0.00     0.040 A 
ENDROOT
BRANCH   3  12
HETATM   12  C6  UNK     1      10.926   7.683   9.141  1.00  0.00     0.259 C 
HETATM   13  O1  UNK     1      10.161   8.315   9.871  1.00  0.00    -0.267 OA
HETATM   14  N1  UNK     1      10.522   6.799   8.144  1.00  0.00    -0.348 N 
HETATM   15  C4  UNK     1       9.089   6.584   7.922  1.00  0.00     0.126 C 
HETATM   16  C5  UNK     1      11.405   5.995   7.285  1.00  0.00     0.126 C 
HETATM   17  C2  UNK     1       8.712   6.797   6.459  1.00  0.00     0.020 C 
HETATM   18  C1  UNK     1       9.574   5.932   5.542  1.00  0.00     0.003 C 
HETATM   19  C3  UNK     1      11.057   6.178   5.807  1.00  0.00     0.020 C 
ENDBRANCH   3  12
BRANCH   9  20
HETATM   20  O4  UNK     1      17.258   7.658  10.486  1.00  0.00    -0.353 OA
HETATM   21  C16 UNK     1      17.838   6.617   9.700  1.00  0.00     0.210 C 
ENDBRANCH   9  20
TORSDOF 2
ENDMDL
MODEL 10
REMARK VINA RESULT:      -7.4     22.144     24.319
REMARK  2 active torsions:
REMARK  status: ('A' for Active; 'I' for Inactive)
REMARK    1  A    between atoms: C13_18  and  O4_4 
REMARK       I    between atoms: C6_11  and  N1_5 
REMARK    2  A    between atoms: C6_11  and  C7_12 
ROOT
HETATM    1  O2  UNK     1      18.691   0.589  32.183  1.00  0.00    -0.271 OA
HETATM    2  O3  UNK     1      17.695   2.630  32.439  1.00  0.00    -0.259 OA
HETATM    3  C7  UNK     1      18.815   2.245  30.387  1.00  0.00     0.108 A 
HETATM    4  C8  UNK     1      19.529   1.406  29.627  1.00  0.00     0.037 A 
HETATM    5  C9  UNK     1      19.871   0.082  30.120  1.00  0.00     0.002 A 
HETATM    6  C10 UNK     1      18.349   1.864  31.741  1.00  0.00     0.304 A 
HETATM    7  C11 UNK     1      19.443  -0.297  31.388  1.00  0.00     0.123 A 
HETATM    8  C12 UNK     1      20.616  -0.825  29.361  1.00  0.00     0.014 A 
HETATM    9  C13 UNK     1      19.736  -1.552  31.917  1.00  0.00     0.102 A 
HETATM   10  C14 UNK     1      20.918  -2.088  29.879  1.00  0.00     0.004 A 
HETATM   11  C15 UNK     1      20.480  -2.450  31.155  1.00  0.00     0.040 A 
ENDROOT
BRANCH   3  12
HETATM   12  C6  UNK     1      18.518   3.567  29.799  1.00  0.00     0.259 C 
HETATM   13  O1  UNK     1      17.895   3.590  28.737  1.00  0.00    -0.267 OA
HETATM   14  N1  UNK     1      18.966   4.696  30.482  1.00  0.00    -0.348 N 
HETATM   15  C4  UNK     1      18.690   6.022  29.920  1.00  0.00     0.126 C 
HETATM   16  C5  UNK     1      19.750   4.706  31.726  1.00  0.00     0.126 C 
HETATM   17  C2  UNK     1      18.017   6.932  30.942  1.00  0.00     0.020 C 
HETATM   18  C1  UNK     1      18.836   7.009  32.228  1.00  0.00     0.003 C 
HETATM   19  C3  UNK     1      19.109   5.612  32.777  1.00  0.00     0.020 C 
ENDBRANCH   3  12
BRANCH   9  20
HETATM   20  O4  UNK     1      19.312  -1.909  33.159  1.00  0.00    -0.353 OA
HETATM   21  C16 UNK     1      20.282  -2.469  34.044  1.00  0.00     0.210 C 
ENDBRANCH   9  20
TORSDOF 2
ENDMDL
