MODEL 1
REMARK VINA RESULT:      -8.3      0.000      0.000
REMARK  2 active torsions:
REMARK  status: ('A' for Active; 'I' for Inactive)
REMARK       I    between atoms: C5_12  and  N1_6 
REMARK       I    between atoms: C6_13  and  N2_7 
REMARK    1  A    between atoms: C5_12  and  C7_14 
REMARK    2  A    between atoms: C6_13  and  C8_15 
ROOT
HETATM    1  O1  UNK     1       6.938   7.099   8.365  1.00  0.00    -0.267 OA
HETATM    2  O2  UNK     1      13.587   6.986   6.649  1.00  0.00    -0.265 OA
HETATM    3  N1  UNK     1       9.116   6.426   8.831  1.00  0.00    -0.345 N 
HETATM    4  N2  UNK     1      11.741   6.168   7.781  1.00  0.00    -0.343 N 
HETATM    5  C1  UNK     1       9.710   7.515   8.046  1.00  0.00     0.146 C 
HETATM    6  C2  UNK     1      10.090   5.551   9.505  1.00  0.00     0.146 C 
HETATM    7  C3  UNK     1      10.763   6.995   7.073  1.00  0.00     0.146 C 
HETATM    8  C4  UNK     1      11.150   5.049   8.524  1.00  0.00     0.146 C 
HETATM    9  C5  UNK     1       7.730   6.352   8.942  1.00  0.00     0.260 C 
HETATM   10  C6  UNK     1      13.116   6.430   7.642  1.00  0.00     0.277 C 
ENDROOT
BRANCH   9  11
HETATM   11  C7  UNK     1       7.167   5.305   9.819  1.00  0.00     0.108 A 
HETATM   12  C11 UNK     1       6.906   3.931   9.334  1.00  0.00     0.304 A 
HETATM   13  O3  UNK     1       6.373   3.034  10.256  1.00  0.00    -0.274 OA
HETATM   14  O5  UNK     1       7.148   3.594   8.181  1.00  0.00    -0.259 OA
HETATM   15  C12 UNK     1       6.093   3.411  11.584  1.00  0.00     0.089 A 
HETATM   16  C10 UNK     1       6.344   4.709  12.018  1.00  0.00    -0.001 A 
HETATM   17  C15 UNK     1       5.560   2.443  12.434  1.00  0.00     0.038 A 
HETATM   18  C9  UNK     1       6.902   5.670  11.079  1.00  0.00     0.037 A 
HETATM   19  C14 UNK     1       6.052   5.045  13.342  1.00  0.00     0.014 A 
HETATM   20  C18 UNK     1       5.517   4.085  14.206  1.00  0.00     0.001 A 
HETATM   21  C19 UNK     1       5.272   2.788  13.752  1.00  0.00     0.003 A 
ENDBRANCH   9  11
BRANCH  10  22
HETATM   22  C8  UNK     1      13.988   6.013   8.734  1.00  0.00     0.142 A 
HETATM   23  C13 UNK     1      14.357   6.651   9.885  1.00  0.00     0.045 A 
HETATM   24  C16 UNK     1      15.222   5.758  10.561  1.00  0.00     0.027 A 
HETATM   25  C17 UNK     1      15.313   4.640   9.765  1.00  0.00     0.143 A 
HETATM   26  O4  UNK     1      14.559   4.789   8.643  1.00  0.00    -0.317 OA
ENDBRANCH  10  22
TORSDOF 2
ENDMDL
MODEL 2
REMARK VINA RESULT:      -8.2      5.074      8.048
REMARK  2 active torsions:
REMARK  status: ('A' for Active; 'I' for Inactive)
REMARK       I    between atoms: C5_12  and  N1_6 
REMARK       I    between atoms: C6_13  and  N2_7 
REMARK    1  A    between atoms: C5_12  and  C7_14 
REMARK    2  A    between atoms: C6_13  and  C8_15 
ROOT
HETATM    1  O1  UNK     1      15.537   6.684   9.968  1.00  0.00    -0.267 OA
HETATM    2  O2  UNK     1      18.306  12.968   9.983  1.00  0.00    -0.265 OA
HETATM    3  N1  UNK     1      15.514   8.885   9.214  1.00  0.00    -0.345 N 
HETATM    4  N2  UNK     1      16.560  11.492   9.628  1.00  0.00    -0.343 N 
HETATM    5  C1  UNK     1      16.947   9.076   9.470  1.00  0.00     0.146 C 
HETATM    6  C2  UNK     1      14.834  10.049   8.619  1.00  0.00     0.146 C 
HETATM    7  C3  UNK     1      17.209  10.348  10.269  1.00  0.00     0.146 C 
HETATM    8  C4  UNK     1      15.117  11.320   9.420  1.00  0.00     0.146 C 
HETATM    9  C5  UNK     1      14.943   7.640   9.468  1.00  0.00     0.260 C 
HETATM   10  C6  UNK     1      17.300  12.654   9.347  1.00  0.00     0.277 C 
ENDROOT
BRANCH   9  11
HETATM   11  C7  UNK     1      13.523   7.450   9.108  1.00  0.00     0.108 A 
HETATM   12  C11 UNK     1      12.426   7.750  10.055  1.00  0.00     0.304 A 
HETATM   13  O3  UNK     1      11.129   7.530   9.599  1.00  0.00    -0.274 OA
HETATM   14  O5  UNK     1      12.642   8.174  11.185  1.00  0.00    -0.259 OA
HETATM   15  C12 UNK     1      10.869   7.045   8.303  1.00  0.00     0.089 A 
HETATM   16  C10 UNK     1      11.917   6.768   7.429  1.00  0.00    -0.001 A 
HETATM   17  C15 UNK     1       9.538   6.856   7.936  1.00  0.00     0.038 A 
HETATM   18  C9  UNK     1      13.283   6.989   7.875  1.00  0.00     0.037 A 
HETATM   19  C14 UNK     1      11.619   6.288   6.151  1.00  0.00     0.014 A 
HETATM   20  C18 UNK     1      10.288   6.093   5.769  1.00  0.00     0.001 A 
HETATM   21  C19 UNK     1       9.251   6.376   6.660  1.00  0.00     0.003 A 
ENDBRANCH   9  11
BRANCH  10  22
HETATM   22  C8  UNK     1      16.829  13.497   8.253  1.00  0.00     0.142 A 
HETATM   23  C13 UNK     1      16.999  13.395   6.901  1.00  0.00     0.045 A 
HETATM   24  C16 UNK     1      16.314  14.500   6.342  1.00  0.00     0.027 A 
HETATM   25  C17 UNK     1      15.778  15.193   7.403  1.00  0.00     0.143 A 
HETATM   26  O4  UNK     1      16.089  14.583   8.578  1.00  0.00    -0.317 OA
ENDBRANCH  10  22
TORSDOF 2
ENDMDL
MODEL 3
REMARK VINA RESULT:      -8.2      4.457      9.998
REMARK  2 active torsions:
REMARK  status: ('A' for Active; 'I' for Inactive)
REMARK       I    between atoms: C5_12  and  N1_6 
REMARK       I    between atoms: C6_13  and  N2_7 
REMARK    1  A    between atoms: C5_12  and  C7_14 
REMARK    2  A    between atoms: C6_13  and  C8_15 
ROOT
HETATM    1  O1  UNK     1      17.219   7.607  10.971  1.00  0.00    -0.267 OA
HETATM    2  O2  UNK     1      12.255   3.864   8.055  1.00  0.00    -0.265 OA
HETATM    3  N1  UNK     1      15.127   7.495   9.959  1.00  0.00    -0.345 N 
HETATM    4  N2  UNK     1      13.358   5.857   8.459  1.00  0.00    -0.343 N 
HETATM    5  C1  UNK     1      14.933   6.087  10.323  1.00  0.00     0.146 C 
HETATM    6  C2  UNK     1      13.995   8.107   9.242  1.00  0.00     0.146 C 
HETATM    7  C3  UNK     1      14.513   5.248   9.121  1.00  0.00     0.146 C 
HETATM    8  C4  UNK     1      13.573   7.250   8.048  1.00  0.00     0.146 C 
HETATM    9  C5  UNK     1      16.287   8.146  10.371  1.00  0.00     0.260 C 
HETATM   10  C6  UNK     1      12.213   5.087   8.193  1.00  0.00     0.277 C 
ENDROOT
BRANCH   9  11
HETATM   11  C7  UNK     1      16.408   9.588  10.075  1.00  0.00     0.108 A 
HETATM   12  C11 UNK     1      15.659  10.612  10.838  1.00  0.00     0.304 A 
HETATM   13  O3  UNK     1      15.856  11.938  10.463  1.00  0.00    -0.274 OA
HETATM   14  O5  UNK     1      14.903  10.313  11.755  1.00  0.00    -0.259 OA
HETATM   15  C12 UNK     1      16.722  12.293   9.411  1.00  0.00     0.089 A 
HETATM   16  C10 UNK     1      17.416  11.313   8.706  1.00  0.00    -0.001 A 
HETATM   17  C15 UNK     1      16.856  13.647   9.109  1.00  0.00     0.038 A 
HETATM   18  C9  UNK     1      17.232   9.918   9.074  1.00  0.00     0.037 A 
HETATM   19  C14 UNK     1      18.266  11.704   7.668  1.00  0.00     0.014 A 
HETATM   20  C18 UNK     1      18.409  13.059   7.354  1.00  0.00     0.001 A 
HETATM   21  C19 UNK     1      17.705  14.027   8.072  1.00  0.00     0.003 A 
ENDBRANCH   9  11
BRANCH  10  22
HETATM   22  C8  UNK     1      10.943   5.795   8.081  1.00  0.00     0.142 A 
HETATM   23  C13 UNK     1      10.175   6.102   6.993  1.00  0.00     0.045 A 
HETATM   24  C16 UNK     1       9.052   6.800   7.498  1.00  0.00     0.027 A 
HETATM   25  C17 UNK     1       9.224   6.864   8.861  1.00  0.00     0.143 A 
HETATM   26  O4  UNK     1      10.381   6.250   9.226  1.00  0.00    -0.317 OA
ENDBRANCH  10  22
TORSDOF 2
ENDMDL
MODEL 4
REMARK VINA RESULT:      -8.0     34.864     36.289
REMARK  2 active torsions:
REMARK  status: ('A' for Active; 'I' for Inactive)
REMARK       I    between atoms: C5_12  and  N1_6 
REMARK       I    between atoms: C6_13  and  N2_7 
REMARK    1  A    between atoms: C5_12  and  C7_14 
REMARK    2  A    between atoms: C6_13  and  C8_15 
ROOT
HETATM    1  O1  UNK     1      29.247  -4.200  38.142  1.00  0.00    -0.267 OA
HETATM    2  O2  UNK     1      34.834  -3.377  34.235  1.00  0.00    -0.265 OA
HETATM    3  N1  UNK     1      31.008  -5.135  36.943  1.00  0.00    -0.345 N 
HETATM    4  N2  UNK     1      33.059  -4.619  35.049  1.00  0.00    -0.343 N 
HETATM    5  C1  UNK     1      31.837  -3.929  37.059  1.00  0.00     0.146 C 
HETATM    6  C2  UNK     1      31.648  -6.257  36.235  1.00  0.00     0.146 C 
HETATM    7  C3  UNK     1      32.389  -3.496  35.705  1.00  0.00     0.146 C 
HETATM    8  C4  UNK     1      32.211  -5.807  34.887  1.00  0.00     0.146 C 
HETATM    9  C5  UNK     1      29.758  -5.156  37.557  1.00  0.00     0.260 C 
HETATM   10  C6  UNK     1      34.369  -4.470  34.562  1.00  0.00     0.277 C 
ENDROOT
BRANCH   9  11
HETATM   11  C7  UNK     1      28.990  -6.416  37.506  1.00  0.00     0.108 A 
HETATM   12  C11 UNK     1      28.413  -6.935  36.245  1.00  0.00     0.304 A 
HETATM   13  O3  UNK     1      27.710  -8.133  36.326  1.00  0.00    -0.274 OA
HETATM   14  O5  UNK     1      28.547  -6.344  35.180  1.00  0.00    -0.259 OA
HETATM   15  C12 UNK     1      27.550  -8.821  37.545  1.00  0.00     0.089 A 
HETATM   16  C10 UNK     1      28.100  -8.315  38.719  1.00  0.00    -0.001 A 
HETATM   17  C15 UNK     1      26.830 -10.014  37.527  1.00  0.00     0.038 A 
HETATM   18  C9  UNK     1      28.842  -7.065  38.667  1.00  0.00     0.037 A 
HETATM   19  C14 UNK     1      27.920  -9.025  39.908  1.00  0.00     0.014 A 
HETATM   20  C18 UNK     1      27.199 -10.223  39.905  1.00  0.00     0.001 A 
HETATM   21  C19 UNK     1      26.655 -10.715  38.718  1.00  0.00     0.003 A 
ENDBRANCH   9  11
BRANCH  10  22
HETATM   22  C8  UNK     1      35.182  -5.676  34.453  1.00  0.00     0.142 A 
HETATM   23  C13 UNK     1      35.821  -6.421  35.405  1.00  0.00     0.045 A 
HETATM   24  C16 UNK     1      36.452  -7.479  34.707  1.00  0.00     0.027 A 
HETATM   25  C17 UNK     1      36.148  -7.294  33.379  1.00  0.00     0.143 A 
HETATM   26  O4  UNK     1      35.369  -6.191  33.215  1.00  0.00    -0.317 OA
ENDBRANCH  10  22
TORSDOF 2
ENDMDL
MODEL 5
REMARK VINA RESULT:      -8.0     35.691     37.569
REMARK  2 active torsions:
REMARK  status: ('A' for Active; 'I' for Inactive)
REMARK       I    between atoms: C5_12  and  N1_6 
REMARK       I    between atoms: C6_13  and  N2_7 
REMARK    1  A    between atoms: C5_12  and  C7_14 
REMARK    2  A    between atoms: C6_13  and  C8_15 
ROOT
HETATM    1  O1  UNK     1      33.029  -3.653  35.674  1.00  0.00    -0.267 OA
HETATM    2  O2  UNK     1      28.075  -5.873  39.881  1.00  0.00    -0.265 OA
HETATM    3  N1  UNK     1      31.681  -5.387  36.443  1.00  0.00    -0.345 N 
HETATM    4  N2  UNK     1      29.896  -6.207  38.493  1.00  0.00    -0.343 N 
HETATM    5  C1  UNK     1      30.637  -4.475  36.924  1.00  0.00     0.146 C 
HETATM    6  C2  UNK     1      31.377  -6.818  36.619  1.00  0.00     0.146 C 
HETATM    7  C3  UNK     1      30.236  -4.789  38.362  1.00  0.00     0.146 C 
HETATM    8  C4  UNK     1      30.962  -7.119  38.059  1.00  0.00     0.146 C 
HETATM    9  C5  UNK     1      32.801  -4.856  35.807  1.00  0.00     0.260 C 
HETATM   10  C6  UNK     1      28.675  -6.586  39.076  1.00  0.00     0.277 C 
ENDROOT
BRANCH   9  11
HETATM   11  C7  UNK     1      33.785  -5.804  35.246  1.00  0.00     0.108 A 
HETATM   12  C11 UNK     1      34.865  -6.394  36.069  1.00  0.00     0.304 A 
HETATM   13  O3  UNK     1      35.730  -7.274  35.426  1.00  0.00    -0.274 OA
HETATM   14  O5  UNK     1      34.994  -6.125  37.258  1.00  0.00    -0.259 OA
HETATM   15  C12 UNK     1      35.591  -7.590  34.061  1.00  0.00     0.089 A 
HETATM   16  C10 UNK     1      34.569  -7.023  33.305  1.00  0.00    -0.001 A 
HETATM   17  C15 UNK     1      36.506  -8.482  33.505  1.00  0.00     0.038 A 
HETATM   18  C9  UNK     1      33.647  -6.100  33.948  1.00  0.00     0.037 A 
HETATM   19  C14 UNK     1      34.463  -7.360  31.954  1.00  0.00     0.014 A 
HETATM   20  C18 UNK     1      35.375  -8.254  31.382  1.00  0.00     0.001 A 
HETATM   21  C19 UNK     1      36.393  -8.812  32.156  1.00  0.00     0.003 A 
ENDBRANCH   9  11
BRANCH  10  22
HETATM   22  C8  UNK     1      28.124  -7.880  38.690  1.00  0.00     0.142 A 
HETATM   23  C13 UNK     1      27.891  -9.014  39.419  1.00  0.00     0.045 A 
HETATM   24  C16 UNK     1      27.345  -9.951  38.510  1.00  0.00     0.027 A 
HETATM   25  C17 UNK     1      27.287  -9.313  37.293  1.00  0.00     0.143 A 
HETATM   26  O4  UNK     1      27.763  -8.043  37.396  1.00  0.00    -0.317 OA
ENDBRANCH  10  22
TORSDOF 2
ENDMDL
MODEL 6
REMARK VINA RESULT:      -7.9      2.020      2.808
REMARK  2 active torsions:
REMARK  status: ('A' for Active; 'I' for Inactive)
REMARK       I    between atoms: C5_12  and  N1_6 
REMARK       I    between atoms: C6_13  and  N2_7 
REMARK    1  A    between atoms: C5_12  and  C7_14 
REMARK    2  A    between atoms: C6_13  and  C8_15 
ROOT
HETATM    1  O1  UNK     1       8.431   5.443   6.953  1.00  0.00    -0.267 OA
HETATM    2  O2  UNK     1      15.230   5.692   7.888  1.00  0.00    -0.265 OA
HETATM    3  N1  UNK     1      10.254   6.115   8.233  1.00  0.00    -0.345 N 
HETATM    4  N2  UNK     1      13.045   5.801   8.644  1.00  0.00    -0.343 N 
HETATM    5  C1  UNK     1      11.172   6.093   7.089  1.00  0.00     0.146 C 
HETATM    6  C2  UNK     1      10.860   6.556   9.502  1.00  0.00     0.146 C 
HETATM    7  C3  UNK     1      12.442   5.309   7.404  1.00  0.00     0.146 C 
HETATM    8  C4  UNK     1      12.140   5.774   9.799  1.00  0.00     0.146 C 
HETATM    9  C5  UNK     1       8.911   5.809   8.027  1.00  0.00     0.260 C 
HETATM   10  C6  UNK     1      14.403   6.164   8.669  1.00  0.00     0.277 C 
ENDROOT
BRANCH   9  11
HETATM   11  C7  UNK     1       7.993   5.937   9.178  1.00  0.00     0.108 A 
HETATM   12  C11 UNK     1       7.825   4.854  10.172  1.00  0.00     0.304 A 
HETATM   13  O3  UNK     1       6.931   5.094  11.212  1.00  0.00    -0.274 OA
HETATM   14  O5  UNK     1       8.441   3.797  10.091  1.00  0.00    -0.259 OA
HETATM   15  C12 UNK     1       6.218   6.304  11.315  1.00  0.00     0.089 A 
HETATM   16  C10 UNK     1       6.391   7.309  10.368  1.00  0.00    -0.001 A 
HETATM   17  C15 UNK     1       5.345   6.452  12.392  1.00  0.00     0.038 A 
HETATM   18  C9  UNK     1       7.319   7.089   9.271  1.00  0.00     0.037 A 
HETATM   19  C14 UNK     1       5.666   8.495  10.505  1.00  0.00     0.014 A 
HETATM   20  C18 UNK     1       4.786   8.658  11.579  1.00  0.00     0.001 A 
HETATM   21  C19 UNK     1       4.626   7.639  12.519  1.00  0.00     0.003 A 
ENDBRANCH   9  11
BRANCH  10  22
HETATM   22  C8  UNK     1      14.814   7.139   9.672  1.00  0.00     0.142 A 
HETATM   23  C13 UNK     1      14.857   8.505   9.636  1.00  0.00     0.045 A 
HETATM   24  C16 UNK     1      15.341   8.910  10.903  1.00  0.00     0.027 A 
HETATM   25  C17 UNK     1      15.558   7.753  11.615  1.00  0.00     0.143 A 
HETATM   26  O4  UNK     1      15.236   6.664  10.868  1.00  0.00    -0.317 OA
ENDBRANCH  10  22
TORSDOF 2
ENDMDL
MODEL 7
REMARK VINA RESULT:      -7.9     32.865     36.055
REMARK  2 active torsions:
REMARK  status: ('A' for Active; 'I' for Inactive)
REMARK       I    between atoms: C5_12  and  N1_6 
REMARK       I    between atoms: C6_13  and  N2_7 
REMARK    1  A    between atoms: C5_12  and  C7_14 
REMARK    2  A    between atoms: C6_13  and  C8_15 
ROOT
HETATM    1  O1  UNK     1      36.317  -5.798  31.607  1.00  0.00    -0.267 OA
HETATM    2  O2  UNK     1      31.876  -9.078  27.522  1.00  0.00    -0.265 OA
HETATM    3  N1  UNK     1      34.661  -7.410  31.333  1.00  0.00    -0.345 N 
HETATM    4  N2  UNK     1      32.642  -8.392  29.596  1.00  0.00    -0.343 N 
HETATM    5  C1  UNK     1      34.929  -7.561  29.898  1.00  0.00     0.146 C 
HETATM    6  C2  UNK     1      33.611  -8.298  31.861  1.00  0.00     0.146 C 
HETATM    7  C3  UNK     1      33.648  -7.465  29.076  1.00  0.00     0.146 C 
HETATM    8  C4  UNK     1      32.338  -8.204  31.020  1.00  0.00     0.146 C 
HETATM    9  C5  UNK     1      35.445  -6.530  32.077  1.00  0.00     0.260 C 
HETATM   10  C6  UNK     1      32.001  -9.294  28.729  1.00  0.00     0.277 C 
ENDROOT
BRANCH   9  11
HETATM   11  C7  UNK     1      35.217  -6.473  33.535  1.00  0.00     0.108 A 
HETATM   12  C11 UNK     1      36.123  -7.139  34.498  1.00  0.00     0.304 A 
HETATM   13  O3  UNK     1      35.802  -7.014  35.846  1.00  0.00    -0.274 OA
HETATM   14  O5  UNK     1      37.109  -7.769  34.132  1.00  0.00    -0.259 OA
HETATM   15  C12 UNK     1      34.672  -6.292  36.278  1.00  0.00     0.089 A 
HETATM   16  C10 UNK     1      33.833  -5.675  35.356  1.00  0.00    -0.001 A 
HETATM   17  C15 UNK     1      34.433  -6.222  37.650  1.00  0.00     0.038 A 
HETATM   18  C9  UNK     1      34.142  -5.786  33.939  1.00  0.00     0.037 A 
HETATM   19  C14 UNK     1      32.722  -4.968  35.822  1.00  0.00     0.014 A 
HETATM   20  C18 UNK     1      32.469  -4.890  37.196  1.00  0.00     0.001 A 
HETATM   21  C19 UNK     1      33.322  -5.516  38.106  1.00  0.00     0.003 A 
ENDBRANCH   9  11
BRANCH  10  22
HETATM   22  C8  UNK     1      31.476 -10.523  29.313  1.00  0.00     0.142 A 
HETATM   23  C13 UNK     1      30.193 -10.934  29.543  1.00  0.00     0.045 A 
HETATM   24  C16 UNK     1      30.299 -12.217  30.131  1.00  0.00     0.027 A 
HETATM   25  C17 UNK     1      31.645 -12.488  30.214  1.00  0.00     0.143 A 
HETATM   26  O4  UNK     1      32.373 -11.455  29.714  1.00  0.00    -0.317 OA
ENDBRANCH  10  22
TORSDOF 2
ENDMDL
MODEL 8
REMARK VINA RESULT:      -7.8      3.110      8.789
REMARK  2 active torsions:
REMARK  status: ('A' for Active; 'I' for Inactive)
REMARK       I    between atoms: C5_12  and  N1_6 
REMARK       I    between atoms: C6_13  and  N2_7 
REMARK    1  A    between atoms: C5_12  and  C7_14 
REMARK    2  A    between atoms: C6_13  and  C8_15 
ROOT
HETATM    1  O1  UNK     1      15.001   5.838   8.218  1.00  0.00    -0.267 OA
HETATM    2  O2  UNK     1       8.229   5.252   7.238  1.00  0.00    -0.265 OA
HETATM    3  N1  UNK     1      12.834   6.479   8.772  1.00  0.00    -0.345 N 
HETATM    4  N2  UNK     1      10.109   6.379   7.980  1.00  0.00    -0.343 N 
HETATM    5  C1  UNK     1      12.249   5.223   8.287  1.00  0.00     0.146 C 
HETATM    6  C2  UNK     1      11.867   7.422   9.360  1.00  0.00     0.146 C 
HETATM    7  C3  UNK     1      11.073   5.477   7.350  1.00  0.00     0.146 C 
HETATM    8  C4  UNK     1      10.686   7.657   8.418  1.00  0.00     0.146 C 
HETATM    9  C5  UNK     1      14.215   6.646   8.716  1.00  0.00     0.260 C 
HETATM   10  C6  UNK     1       8.750   6.024   8.044  1.00  0.00     0.277 C 
ENDROOT
BRANCH   9  11
HETATM   11  C7  UNK     1      14.781   7.877   9.302  1.00  0.00     0.108 A 
HETATM   12  C11 UNK     1      15.228   7.944  10.712  1.00  0.00     0.304 A 
HETATM   13  O3  UNK     1      15.744   9.161  11.147  1.00  0.00    -0.274 OA
HETATM   14  O5  UNK     1      15.152   6.977  11.462  1.00  0.00    -0.259 OA
HETATM   15  C12 UNK     1      15.837  10.277  10.293  1.00  0.00     0.089 A 
HETATM   16  C10 UNK     1      15.410  10.193   8.971  1.00  0.00    -0.001 A 
HETATM   17  C15 UNK     1      16.368  11.454  10.820  1.00  0.00     0.038 A 
HETATM   18  C9  UNK     1      14.867   8.935   8.486  1.00  0.00     0.037 A 
HETATM   19  C14 UNK     1      15.518  11.322   8.155  1.00  0.00     0.014 A 
HETATM   20  C18 UNK     1      16.048  12.509   8.670  1.00  0.00     0.001 A 
HETATM   21  C19 UNK     1      16.471  12.574   9.998  1.00  0.00     0.003 A 
ENDBRANCH   9  11
BRANCH  10  22
HETATM   22  C8  UNK     1       7.957   6.610   9.119  1.00  0.00     0.142 A 
HETATM   23  C13 UNK     1       7.219   7.760   9.170  1.00  0.00     0.045 A 
HETATM   24  C16 UNK     1       6.669   7.808  10.473  1.00  0.00     0.027 A 
HETATM   25  C17 UNK     1       7.117   6.678  11.118  1.00  0.00     0.143 A 
HETATM   26  O4  UNK     1       7.907   5.939  10.293  1.00  0.00    -0.317 OA
ENDBRANCH  10  22
TORSDOF 2
ENDMDL
MODEL 9
REMARK VINA RESULT:      -7.8      1.598      2.294
REMARK  2 active torsions:
REMARK  status: ('A' for Active; 'I' for Inactive)
REMARK       I    between atoms: C5_12  and  N1_6 
REMARK       I    between atoms: C6_13  and  N2_7 
REMARK    1  A    between atoms: C5_12  and  C7_14 
REMARK    2  A    between atoms: C6_13  and  C8_15 
ROOT
HETATM    1  O1  UNK     1       5.149   6.869  10.327  1.00  0.00    -0.267 OA
HETATM    2  O2  UNK     1      10.795   7.009   6.419  1.00  0.00    -0.265 OA
HETATM    3  N1  UNK     1       7.367   6.255   9.990  1.00  0.00    -0.345 N 
HETATM    4  N2  UNK     1       9.473   6.106   8.091  1.00  0.00    -0.343 N 
HETATM    5  C1  UNK     1       7.630   7.380   9.085  1.00  0.00     0.146 C 
HETATM    6  C2  UNK     1       8.533   5.394  10.257  1.00  0.00     0.146 C 
HETATM    7  C3  UNK     1       8.292   6.918   7.792  1.00  0.00     0.146 C 
HETATM    8  C4  UNK     1       9.199   4.950   8.954  1.00  0.00     0.146 C 
HETATM    9  C5  UNK     1       6.107   6.134  10.570  1.00  0.00     0.260 C 
HETATM   10  C6  UNK     1      10.708   6.414   7.494  1.00  0.00     0.277 C 
ENDROOT
BRANCH   9  11
HETATM   11  C7  UNK     1       5.905   5.049  11.551  1.00  0.00     0.108 A 
HETATM   12  C11 UNK     1       5.684   3.645  11.136  1.00  0.00     0.304 A 
HETATM   13  O3  UNK     1       5.505   2.713  12.154  1.00  0.00    -0.274 OA
HETATM   14  O5  UNK     1       5.660   3.314   9.956  1.00  0.00    -0.259 OA
HETATM   15  C12 UNK     1       5.530   3.082  13.513  1.00  0.00     0.089 A 
HETATM   16  C10 UNK     1       5.739   4.408  13.881  1.00  0.00    -0.001 A 
HETATM   17  C15 UNK     1       5.342   2.079  14.462  1.00  0.00     0.038 A 
HETATM   18  C9  UNK     1       5.930   5.406  12.841  1.00  0.00     0.037 A 
HETATM   19  C14 UNK     1       5.757   4.736  15.239  1.00  0.00     0.014 A 
HETATM   20  C18 UNK     1       5.569   3.739  16.202  1.00  0.00     0.001 A 
HETATM   21  C19 UNK     1       5.361   2.415  15.813  1.00  0.00     0.003 A 
ENDBRANCH   9  11
BRANCH  10  22
HETATM   22  C8  UNK     1      11.913   5.999   8.203  1.00  0.00     0.142 A 
HETATM   23  C13 UNK     1      12.808   4.997   7.949  1.00  0.00     0.045 A 
HETATM   24  C16 UNK     1      13.776   5.075   8.979  1.00  0.00     0.027 A 
HETATM   25  C17 UNK     1      13.394   6.123   9.784  1.00  0.00     0.143 A 
HETATM   26  O4  UNK     1      12.253   6.695   9.314  1.00  0.00    -0.317 OA
ENDBRANCH  10  22
TORSDOF 2
ENDMDL
MODEL 10
REMARK VINA RESULT:      -7.8     31.538     34.812
REMARK  2 active torsions:
REMARK  status: ('A' for Active; 'I' for Inactive)
REMARK       I    between atoms: C5_12  and  N1_6 
REMARK       I    between atoms: C6_13  and  N2_7 
REMARK    1  A    between atoms: C5_12  and  C7_14 
REMARK    2  A    between atoms: C6_13  and  C8_15 
ROOT
HETATM    1  O1  UNK     1      33.883  -8.063  28.783  1.00  0.00    -0.267 OA
HETATM    2  O2  UNK     1      37.224  -7.432  34.750  1.00  0.00    -0.265 OA
HETATM    3  N1  UNK     1      33.844  -7.584  31.060  1.00  0.00    -0.345 N 
HETATM    4  N2  UNK     1      35.307  -7.732  33.489  1.00  0.00    -0.343 N 
HETATM    5  C1  UNK     1      35.265  -7.218  31.092  1.00  0.00     0.146 C 
HETATM    6  C2  UNK     1      33.141  -7.439  32.346  1.00  0.00     0.146 C 
HETATM    7  C3  UNK     1      36.004  -7.934  32.217  1.00  0.00     0.146 C 
HETATM    8  C4  UNK     1      33.899  -8.148  33.469  1.00  0.00     0.146 C 
HETATM    9  C5  UNK     1      33.269  -7.950  29.845  1.00  0.00     0.260 C 
HETATM   10  C6  UNK     1      36.012  -7.263  34.611  1.00  0.00     0.277 C 
ENDROOT
BRANCH   9  11
HETATM   11  C7  UNK     1      31.817  -8.217  29.827  1.00  0.00     0.108 A 
HETATM   12  C11 UNK     1      31.268  -9.562  29.540  1.00  0.00     0.304 A 
HETATM   13  O3  UNK     1      29.882  -9.687  29.551  1.00  0.00    -0.274 OA
HETATM   14  O5  UNK     1      31.994 -10.521  29.304  1.00  0.00    -0.259 OA
HETATM   15  C12 UNK     1      29.039  -8.592  29.820  1.00  0.00     0.089 A 
HETATM   16  C10 UNK     1      29.575  -7.335  30.087  1.00  0.00    -0.001 A 
HETATM   17  C15 UNK     1      27.663  -8.815  29.810  1.00  0.00     0.038 A 
HETATM   18  C9  UNK     1      31.020  -7.172  30.084  1.00  0.00     0.037 A 
HETATM   19  C14 UNK     1      28.707  -6.273  30.350  1.00  0.00     0.014 A 
HETATM   20  C18 UNK     1      27.324  -6.482  30.342  1.00  0.00     0.001 A 
HETATM   21  C19 UNK     1      26.804  -7.749  30.072  1.00  0.00     0.003 A 
ENDBRANCH   9  11
BRANCH  10  22
HETATM   22  C8  UNK     1      35.248  -6.552  35.630  1.00  0.00     0.142 A 
HETATM   23  C13 UNK     1      34.828  -5.253  35.698  1.00  0.00     0.045 A 
HETATM   24  C16 UNK     1      34.127  -5.138  36.922  1.00  0.00     0.027 A 
HETATM   25  C17 UNK     1      34.175  -6.382  37.507  1.00  0.00     0.143 A 
HETATM   26  O4  UNK     1      34.860  -7.254  36.720  1.00  0.00    -0.317 OA
ENDBRANCH  10  22
TORSDOF 2
ENDMDL
