MODEL 1
REMARK VINA RESULT:      -8.4      0.000      0.000
REMARK  5 active torsions:
REMARK  status: ('A' for Active; 'I' for Inactive)
REMARK    1  A    between atoms: C5_10  and  O1_1 
REMARK    2  A    between atoms: C7_12  and  O1_1 
REMARK    3  A    between atoms: C16_21  and  O2_2 
REMARK    4  A    between atoms: C8_13  and  O2_2 
REMARK    5  A    between atoms: C1_6  and  C5_10 
ROOT
HETATM    1  O3  UNK     1      10.088   8.373   9.872  1.00  0.00    -0.319 OA
HETATM    2  O5  UNK     1       8.385   5.395   7.659  1.00  0.00    -0.284 OA
HETATM    3  C7  UNK     1      13.119   6.828   8.565  1.00  0.00     0.082 A 
HETATM    4  C9  UNK     1      10.362   6.461   8.395  1.00  0.00     0.051 A 
HETATM    5  C11 UNK     1      10.881   7.500   9.170  1.00  0.00     0.092 A 
HETATM    6  C13 UNK     1      12.262   7.684   9.256  1.00  0.00     0.075 A 
HETATM    7  C16 UNK     1       8.091   7.252   9.096  1.00  0.00     0.149 A 
HETATM    8  C17 UNK     1       8.900   6.285   8.320  1.00  0.00     0.220 A 
HETATM    9  C18 UNK     1      12.599   5.791   7.789  1.00  0.00     0.038 A 
HETATM   10  C19 UNK     1      11.219   5.602   7.702  1.00  0.00     0.021 A 
HETATM   11  C22 UNK     1       8.727   8.197   9.794  1.00  0.00     0.184 A 
ENDROOT
BRANCH   7  12
HETATM   12  O2  UNK     1       6.720   7.155   9.079  1.00  0.00    -0.304 OA
BRANCH  12  13
HETATM   13  C8  UNK     1       6.125   6.557  10.156  1.00  0.00     0.083 A 
HETATM   14  C14 UNK     1       6.242   5.178  10.311  1.00  0.00     0.044 A 
HETATM   15  C12 UNK     1       5.643   4.550  11.403  1.00  0.00    -0.059 A 
HETATM   16  C23 UNK     1       5.766   3.073  11.572  1.00  0.00     0.048 C 
HETATM   17  C15 UNK     1       4.928   5.302  12.334  1.00  0.00     0.014 A 
HETATM   18  C10 UNK     1       4.812   6.683  12.175  1.00  0.00    -0.053 A 
HETATM   19  C21 UNK     1       4.041   7.466  13.187  1.00  0.00     0.049 C 
HETATM   20  C6  UNK     1       5.412   7.311  11.083  1.00  0.00    -0.022 A 
HETATM   21  C20 UNK     1       5.291   8.792  10.907  1.00  0.00     0.052 C 
ENDBRANCH  12  13
ENDBRANCH   7  12
BRANCH   3  22
HETATM   22  O1  UNK     1      14.467   7.006   8.646  1.00  0.00    -0.278 OA
BRANCH  22  23
HETATM   23  C5  UNK     1      15.018   6.729   9.912  1.00  0.00     0.271 C 
HETATM   24  O4  UNK     1      14.787   5.715  10.561  1.00  0.00    -0.264 OA
BRANCH  23  25
HETATM   25  C1  UNK     1      15.944   7.863  10.367  1.00  0.00     0.037 C 
HETATM   26  C2  UNK     1      15.603   8.253  11.812  1.00  0.00     0.025 C 
HETATM   27  C3  UNK     1      17.405   7.404  10.265  1.00  0.00     0.025 C 
HETATM   28  C4  UNK     1      15.740   9.085   9.458  1.00  0.00     0.025 C 
ENDBRANCH  23  25
ENDBRANCH  22  23
ENDBRANCH   3  22
TORSDOF 5
ENDMDL
MODEL 2
REMARK VINA RESULT:      -8.3      0.635      1.944
REMARK  5 active torsions:
REMARK  status: ('A' for Active; 'I' for Inactive)
REMARK    1  A    between atoms: C5_10  and  O1_1 
REMARK    2  A    between atoms: C7_12  and  O1_1 
REMARK    3  A    between atoms: C16_21  and  O2_2 
REMARK    4  A    between atoms: C8_13  and  O2_2 
REMARK    5  A    between atoms: C1_6  and  C5_10 
ROOT
HETATM    1  O3  UNK     1      10.044   8.404   9.776  1.00  0.00    -0.319 OA
HETATM    2  O5  UNK     1       8.438   5.441   7.471  1.00  0.00    -0.284 OA
HETATM    3  C7  UNK     1      13.128   6.913   8.530  1.00  0.00     0.082 A 
HETATM    4  C9  UNK     1      10.381   6.519   8.278  1.00  0.00     0.051 A 
HETATM    5  C11 UNK     1      10.867   7.552   9.083  1.00  0.00     0.092 A 
HETATM    6  C13 UNK     1      12.242   7.749   9.210  1.00  0.00     0.075 A 
HETATM    7  C16 UNK     1       8.082   7.273   8.927  1.00  0.00     0.149 A 
HETATM    8  C17 UNK     1       8.923   6.328   8.160  1.00  0.00     0.220 A 
HETATM    9  C18 UNK     1      12.642   5.882   7.725  1.00  0.00     0.038 A 
HETATM   10  C19 UNK     1      11.266   5.680   7.597  1.00  0.00     0.021 A 
HETATM   11  C22 UNK     1       8.688   8.214   9.657  1.00  0.00     0.184 A 
ENDROOT
BRANCH   7  12
HETATM   12  O2  UNK     1       6.713   7.162   8.871  1.00  0.00    -0.304 OA
BRANCH  12  13
HETATM   13  C8  UNK     1       6.040   7.149  10.062  1.00  0.00     0.083 A 
HETATM   14  C14 UNK     1       5.517   8.342  10.554  1.00  0.00     0.044 A 
HETATM   15  C12 UNK     1       4.828   8.350  11.766  1.00  0.00    -0.059 A 
HETATM   16  C23 UNK     1       4.266   9.626  12.296  1.00  0.00     0.048 C 
HETATM   17  C15 UNK     1       4.665   7.165  12.482  1.00  0.00     0.014 A 
HETATM   18  C10 UNK     1       5.190   5.971  11.987  1.00  0.00    -0.053 A 
HETATM   19  C21 UNK     1       5.001   4.715  12.773  1.00  0.00     0.049 C 
HETATM   20  C6  UNK     1       5.880   5.964  10.774  1.00  0.00    -0.022 A 
HETATM   21  C20 UNK     1       6.446   4.688  10.237  1.00  0.00     0.052 C 
ENDBRANCH  12  13
ENDBRANCH   7  12
BRANCH   3  22
HETATM   22  O1  UNK     1      14.471   7.105   8.651  1.00  0.00    -0.278 OA
BRANCH  22  23
HETATM   23  C5  UNK     1      14.991   6.805   9.925  1.00  0.00     0.271 C 
HETATM   24  O4  UNK     1      14.721   5.793  10.562  1.00  0.00    -0.264 OA
BRANCH  23  25
HETATM   25  C1  UNK     1      15.942   7.909  10.404  1.00  0.00     0.037 C 
HETATM   26  C2  UNK     1      15.609   8.275  11.857  1.00  0.00     0.025 C 
HETATM   27  C3  UNK     1      17.392   7.421  10.292  1.00  0.00     0.025 C 
HETATM   28  C4  UNK     1      15.764   9.154   9.521  1.00  0.00     0.025 C 
ENDBRANCH  23  25
ENDBRANCH  22  23
ENDBRANCH   3  22
TORSDOF 5
ENDMDL
MODEL 3
REMARK VINA RESULT:      -8.3     25.056     27.918
REMARK  5 active torsions:
REMARK  status: ('A' for Active; 'I' for Inactive)
REMARK    1  A    between atoms: C5_10  and  O1_1 
REMARK    2  A    between atoms: C7_12  and  O1_1 
REMARK    3  A    between atoms: C16_21  and  O2_2 
REMARK    4  A    between atoms: C8_13  and  O2_2 
REMARK    5  A    between atoms: C1_6  and  C5_10 
ROOT
HETATM    1  O3  UNK     1      19.509  -0.965  33.288  1.00  0.00    -0.319 OA
HETATM    2  O5  UNK     1      17.421   1.089  36.132  1.00  0.00    -0.284 OA
HETATM    3  C7  UNK     1      20.133  -3.146  36.142  1.00  0.00     0.082 A 
HETATM    4  C9  UNK     1      18.764  -0.781  35.595  1.00  0.00     0.051 A 
HETATM    5  C11 UNK     1      19.460  -1.436  34.577  1.00  0.00     0.092 A 
HETATM    6  C13 UNK     1      20.146  -2.619  34.850  1.00  0.00     0.075 A 
HETATM    7  C16 UNK     1      18.133   0.933  33.881  1.00  0.00     0.149 A 
HETATM    8  C17 UNK     1      18.047   0.470  35.284  1.00  0.00     0.220 A 
HETATM    9  C18 UNK     1      19.436  -2.491  37.159  1.00  0.00     0.038 A 
HETATM   10  C19 UNK     1      18.750  -1.306  36.890  1.00  0.00     0.021 A 
HETATM   11  C22 UNK     1      18.837   0.202  33.012  1.00  0.00     0.184 A 
ENDROOT
BRANCH   7  12
HETATM   12  O2  UNK     1      17.493   2.091  33.509  1.00  0.00    -0.304 OA
BRANCH  12  13
HETATM   13  C8  UNK     1      17.946   2.718  32.380  1.00  0.00     0.083 A 
HETATM   14  C14 UNK     1      17.917   2.030  31.170  1.00  0.00     0.044 A 
HETATM   15  C12 UNK     1      18.375   2.652  30.008  1.00  0.00    -0.059 A 
HETATM   16  C23 UNK     1      18.346   1.919  28.709  1.00  0.00     0.048 C 
HETATM   17  C15 UNK     1      18.859   3.958  30.061  1.00  0.00     0.014 A 
HETATM   18  C10 UNK     1      18.887   4.644  31.276  1.00  0.00    -0.053 A 
HETATM   19  C21 UNK     1      19.410   6.043  31.306  1.00  0.00     0.049 C 
HETATM   20  C6  UNK     1      18.429   4.021  32.438  1.00  0.00    -0.022 A 
HETATM   21  C20 UNK     1      18.456   4.751  33.743  1.00  0.00     0.052 C 
ENDBRANCH  12  13
ENDBRANCH   7  12
BRANCH   3  22
HETATM   22  O1  UNK     1      20.801  -4.302  36.411  1.00  0.00    -0.278 OA
BRANCH  22  23
HETATM   23  C5  UNK     1      19.977  -5.375  36.802  1.00  0.00     0.271 C 
HETATM   24  O4  UNK     1      18.812  -5.518  36.447  1.00  0.00    -0.264 OA
BRANCH  23  25
HETATM   25  C1  UNK     1      20.731  -6.337  37.727  1.00  0.00     0.037 C 
HETATM   26  C2  UNK     1      19.803  -6.786  38.865  1.00  0.00     0.025 C 
HETATM   27  C3  UNK     1      21.215  -7.550  36.920  1.00  0.00     0.025 C 
HETATM   28  C4  UNK     1      21.949  -5.619  38.328  1.00  0.00     0.025 C 
ENDBRANCH  23  25
ENDBRANCH  22  23
ENDBRANCH   3  22
TORSDOF 5
ENDMDL
MODEL 4
REMARK VINA RESULT:      -8.2     22.485     25.106
REMARK  5 active torsions:
REMARK  status: ('A' for Active; 'I' for Inactive)
REMARK    1  A    between atoms: C5_10  and  O1_1 
REMARK    2  A    between atoms: C7_12  and  O1_1 
REMARK    3  A    between atoms: C16_21  and  O2_2 
REMARK    4  A    between atoms: C8_13  and  O2_2 
REMARK    5  A    between atoms: C1_6  and  C5_10 
ROOT
HETATM    1  O3  UNK     1      17.925   3.063  33.121  1.00  0.00    -0.319 OA
HETATM    2  O5  UNK     1      19.160   2.206  29.325  1.00  0.00    -0.284 OA
HETATM    3  C7  UNK     1      18.277   6.463  31.853  1.00  0.00     0.082 A 
HETATM    4  C9  UNK     1      18.616   3.856  30.928  1.00  0.00     0.051 A 
HETATM    5  C11 UNK     1      18.191   4.082  32.239  1.00  0.00     0.092 A 
HETATM    6  C13 UNK     1      18.021   5.386  32.703  1.00  0.00     0.075 A 
HETATM    7  C16 UNK     1      18.491   1.409  31.450  1.00  0.00     0.149 A 
HETATM    8  C17 UNK     1      18.790   2.468  30.461  1.00  0.00     0.220 A 
HETATM    9  C18 UNK     1      18.700   6.236  30.542  1.00  0.00     0.038 A 
HETATM   10  C19 UNK     1      18.873   4.932  30.075  1.00  0.00     0.021 A 
HETATM   11  C22 UNK     1      18.092   1.775  32.672  1.00  0.00     0.184 A 
ENDROOT
BRANCH   7  12
HETATM   12  O2  UNK     1      18.629   0.089  31.093  1.00  0.00    -0.304 OA
BRANCH  12  13
HETATM   13  C8  UNK     1      19.155  -0.758  32.030  1.00  0.00     0.083 A 
HETATM   14  C14 UNK     1      18.783  -0.603  33.363  1.00  0.00     0.044 A 
HETATM   15  C12 UNK     1      19.308  -1.456  34.333  1.00  0.00    -0.059 A 
HETATM   16  C23 UNK     1      18.913  -1.294  35.762  1.00  0.00     0.048 C 
HETATM   17  C15 UNK     1      20.204  -2.460  33.967  1.00  0.00     0.014 A 
HETATM   18  C10 UNK     1      20.574  -2.612  32.630  1.00  0.00    -0.053 A 
HETATM   19  C21 UNK     1      21.535  -3.697  32.264  1.00  0.00     0.049 C 
HETATM   20  C6  UNK     1      20.048  -1.759  31.661  1.00  0.00    -0.022 A 
HETATM   21  C20 UNK     1      20.442  -1.916  30.226  1.00  0.00     0.052 C 
ENDBRANCH  12  13
ENDBRANCH   7  12
BRANCH   3  22
HETATM   22  O1  UNK     1      18.111   7.738  32.302  1.00  0.00    -0.278 OA
BRANCH  22  23
HETATM   23  C5  UNK     1      16.811   8.252  32.132  1.00  0.00     0.271 C 
HETATM   24  O4  UNK     1      16.273   8.430  31.045  1.00  0.00    -0.264 OA
BRANCH  23  25
HETATM   25  C1  UNK     1      16.160   8.556  33.487  1.00  0.00     0.037 C 
HETATM   26  C2  UNK     1      15.535   9.957  33.452  1.00  0.00     0.025 C 
HETATM   27  C3  UNK     1      15.089   7.499  33.790  1.00  0.00     0.025 C 
HETATM   28  C4  UNK     1      17.230   8.513  34.589  1.00  0.00     0.025 C 
ENDBRANCH  23  25
ENDBRANCH  22  23
ENDBRANCH   3  22
TORSDOF 5
ENDMDL
MODEL 5
REMARK VINA RESULT:      -8.2     24.633     27.619
REMARK  5 active torsions:
REMARK  status: ('A' for Active; 'I' for Inactive)
REMARK    1  A    between atoms: C5_10  and  O1_1 
REMARK    2  A    between atoms: C7_12  and  O1_1 
REMARK    3  A    between atoms: C16_21  and  O2_2 
REMARK    4  A    between atoms: C8_13  and  O2_2 
REMARK    5  A    between atoms: C1_6  and  C5_10 
ROOT
HETATM    1  O3  UNK     1      18.513   0.765  35.605  1.00  0.00    -0.319 OA
HETATM    2  O5  UNK     1      18.706   0.131  31.576  1.00  0.00    -0.284 OA
HETATM    3  C7  UNK     1      20.154  -2.490  35.616  1.00  0.00     0.082 A 
HETATM    4  C9  UNK     1      19.176  -0.664  33.753  1.00  0.00     0.051 A 
HETATM    5  C11 UNK     1      19.079  -0.387  35.118  1.00  0.00     0.092 A 
HETATM    6  C13 UNK     1      19.569  -1.300  36.051  1.00  0.00     0.075 A 
HETATM    7  C16 UNK     1      18.050   1.540  33.362  1.00  0.00     0.149 A 
HETATM    8  C17 UNK     1      18.651   0.317  32.784  1.00  0.00     0.220 A 
HETATM    9  C18 UNK     1      20.252  -2.765  34.251  1.00  0.00     0.038 A 
HETATM   10  C19 UNK     1      19.762  -1.853  33.314  1.00  0.00     0.021 A 
HETATM   11  C22 UNK     1      18.027   1.669  34.691  1.00  0.00     0.184 A 
ENDROOT
BRANCH   7  12
HETATM   12  O2  UNK     1      17.537   2.503  32.526  1.00  0.00    -0.304 OA
BRANCH  12  13
HETATM   13  C8  UNK     1      18.219   3.687  32.448  1.00  0.00     0.083 A 
HETATM   14  C14 UNK     1      18.326   4.478  33.589  1.00  0.00     0.044 A 
HETATM   15  C12 UNK     1      19.017   5.689  33.531  1.00  0.00    -0.059 A 
HETATM   16  C23 UNK     1      19.133   6.540  34.750  1.00  0.00     0.048 C 
HETATM   17  C15 UNK     1      19.597   6.103  32.332  1.00  0.00     0.014 A 
HETATM   18  C10 UNK     1      19.487   5.307  31.191  1.00  0.00    -0.053 A 
HETATM   19  C21 UNK     1      20.118   5.773  29.920  1.00  0.00     0.049 C 
HETATM   20  C6  UNK     1      18.796   4.096  31.251  1.00  0.00    -0.022 A 
HETATM   21  C20 UNK     1      18.675   3.239  30.031  1.00  0.00     0.052 C 
ENDBRANCH  12  13
ENDBRANCH   7  12
BRANCH   3  22
HETATM   22  O1  UNK     1      20.634  -3.383  36.525  1.00  0.00    -0.278 OA
BRANCH  22  23
HETATM   23  C5  UNK     1      19.786  -4.480  36.770  1.00  0.00     0.271 C 
HETATM   24  O4  UNK     1      18.591  -4.505  36.497  1.00  0.00    -0.264 OA
BRANCH  23  25
HETATM   25  C1  UNK     1      20.556  -5.636  37.418  1.00  0.00     0.037 C 
HETATM   26  C2  UNK     1      20.793  -6.741  36.379  1.00  0.00     0.025 C 
HETATM   27  C3  UNK     1      21.894  -5.118  37.964  1.00  0.00     0.025 C 
HETATM   28  C4  UNK     1      19.732  -6.211  38.581  1.00  0.00     0.025 C 
ENDBRANCH  23  25
ENDBRANCH  22  23
ENDBRANCH   3  22
TORSDOF 5
ENDMDL
MODEL 6
REMARK VINA RESULT:      -8.1      1.599      2.838
REMARK  5 active torsions:
REMARK  status: ('A' for Active; 'I' for Inactive)
REMARK    1  A    between atoms: C5_10  and  O1_1 
REMARK    2  A    between atoms: C7_12  and  O1_1 
REMARK    3  A    between atoms: C16_21  and  O2_2 
REMARK    4  A    between atoms: C8_13  and  O2_2 
REMARK    5  A    between atoms: C1_6  and  C5_10 
ROOT
HETATM    1  O3  UNK     1      10.113   4.441   9.995  1.00  0.00    -0.319 OA
HETATM    2  O5  UNK     1       7.432   6.573   7.774  1.00  0.00    -0.284 OA
HETATM    3  C7  UNK     1      12.452   6.427   8.027  1.00  0.00     0.082 A 
HETATM    4  C9  UNK     1       9.694   6.118   8.285  1.00  0.00     0.051 A 
HETATM    5  C11 UNK     1      10.558   5.357   9.075  1.00  0.00     0.092 A 
HETATM    6  C13 UNK     1      11.939   5.511   8.946  1.00  0.00     0.075 A 
HETATM    7  C16 UNK     1       7.812   4.937   9.441  1.00  0.00     0.149 A 
HETATM    8  C17 UNK     1       8.238   5.937   8.437  1.00  0.00     0.220 A 
HETATM    9  C18 UNK     1      11.587   7.187   7.238  1.00  0.00     0.038 A 
HETATM   10  C19 UNK     1      10.205   7.035   7.363  1.00  0.00     0.021 A 
HETATM   11  C22 UNK     1       8.754   4.282  10.126  1.00  0.00     0.184 A 
ENDROOT
BRANCH   7  12
HETATM   12  O2  UNK     1       6.471   4.709   9.644  1.00  0.00    -0.304 OA
BRANCH  12  13
HETATM   13  C8  UNK     1       6.022   4.748  10.935  1.00  0.00     0.083 A 
HETATM   14  C14 UNK     1       6.052   5.958  11.624  1.00  0.00     0.044 A 
HETATM   15  C12 UNK     1       5.598   6.018  12.942  1.00  0.00    -0.059 A 
HETATM   16  C23 UNK     1       5.629   7.312  13.682  1.00  0.00     0.048 C 
HETATM   17  C15 UNK     1       5.116   4.868  13.565  1.00  0.00     0.014 A 
HETATM   18  C10 UNK     1       5.087   3.657  12.872  1.00  0.00    -0.053 A 
HETATM   19  C21 UNK     1       4.565   2.440  13.563  1.00  0.00     0.049 C 
HETATM   20  C6  UNK     1       5.541   3.598  11.554  1.00  0.00    -0.022 A 
HETATM   21  C20 UNK     1       5.513   2.303  10.806  1.00  0.00     0.052 C 
ENDBRANCH  12  13
ENDBRANCH   7  12
BRANCH   3  22
HETATM   22  O1  UNK     1      13.799   6.580   7.900  1.00  0.00    -0.278 OA
BRANCH  22  23
HETATM   23  C5  UNK     1      14.498   6.635   9.121  1.00  0.00     0.271 C 
HETATM   24  O4  UNK     1      14.934   5.655   9.713  1.00  0.00    -0.264 OA
BRANCH  23  25
HETATM   25  C1  UNK     1      14.642   8.083   9.606  1.00  0.00     0.037 C 
HETATM   26  C2  UNK     1      14.498   9.039   8.414  1.00  0.00     0.025 C 
HETATM   27  C3  UNK     1      13.571   8.378  10.664  1.00  0.00     0.025 C 
HETATM   28  C4  UNK     1      16.031   8.274  10.235  1.00  0.00     0.025 C 
ENDBRANCH  23  25
ENDBRANCH  22  23
ENDBRANCH   3  22
TORSDOF 5
ENDMDL
MODEL 7
REMARK VINA RESULT:      -8.0     32.118     35.000
REMARK  5 active torsions:
REMARK  status: ('A' for Active; 'I' for Inactive)
REMARK    1  A    between atoms: C5_10  and  O1_1 
REMARK    2  A    between atoms: C7_12  and  O1_1 
REMARK    3  A    between atoms: C16_21  and  O2_2 
REMARK    4  A    between atoms: C8_13  and  O2_2 
REMARK    5  A    between atoms: C1_6  and  C5_10 
ROOT
HETATM    1  O3  UNK     1      26.639  -8.937  38.465  1.00  0.00    -0.319 OA
HETATM    2  O5  UNK     1      24.660  -5.398  38.950  1.00  0.00    -0.284 OA
HETATM    3  C7  UNK     1      29.485  -6.664  38.309  1.00  0.00     0.082 A 
HETATM    4  C9  UNK     1      26.721  -6.512  38.635  1.00  0.00     0.051 A 
HETATM    5  C11 UNK     1      27.338  -7.755  38.473  1.00  0.00     0.092 A 
HETATM    6  C13 UNK     1      28.721  -7.831  38.310  1.00  0.00     0.075 A 
HETATM    7  C16 UNK     1      24.553  -7.757  38.788  1.00  0.00     0.149 A 
HETATM    8  C17 UNK     1      25.257  -6.456  38.805  1.00  0.00     0.220 A 
HETATM    9  C18 UNK     1      28.867  -5.423  38.472  1.00  0.00     0.038 A 
HETATM   10  C19 UNK     1      27.483  -5.342  38.634  1.00  0.00     0.021 A 
HETATM   11  C22 UNK     1      25.275  -8.869  38.624  1.00  0.00     0.184 A 
ENDROOT
BRANCH   7  12
HETATM   12  O2  UNK     1      23.187  -7.790  38.939  1.00  0.00    -0.304 OA
BRANCH  12  13
HETATM   13  C8  UNK     1      22.437  -7.920  37.802  1.00  0.00     0.083 A 
HETATM   14  C14 UNK     1      22.568  -9.077  37.037  1.00  0.00     0.044 A 
HETATM   15  C12 UNK     1      21.812  -9.228  35.875  1.00  0.00    -0.059 A 
HETATM   16  C23 UNK     1      21.950 -10.465  35.053  1.00  0.00     0.048 C 
HETATM   17  C15 UNK     1      20.930  -8.223  35.481  1.00  0.00     0.014 A 
HETATM   18  C10 UNK     1      20.802  -7.066  36.250  1.00  0.00    -0.053 A 
HETATM   19  C21 UNK     1      19.849  -6.004  35.807  1.00  0.00     0.049 C 
HETATM   20  C6  UNK     1      21.558  -6.915  37.413  1.00  0.00    -0.022 A 
HETATM   21  C20 UNK     1      21.425  -5.677  38.241  1.00  0.00     0.052 C 
ENDBRANCH  12  13
ENDBRANCH   7  12
BRANCH   3  22
HETATM   22  O1  UNK     1      30.835  -6.735  38.150  1.00  0.00    -0.278 OA
BRANCH  22  23
HETATM   23  C5  UNK     1      31.304  -6.255  36.913  1.00  0.00     0.271 C 
HETATM   24  O4  UNK     1      30.910  -6.652  35.822  1.00  0.00    -0.264 OA
BRANCH  23  25
HETATM   25  C1  UNK     1      32.370  -5.171  37.112  1.00  0.00     0.037 C 
HETATM   26  C2  UNK     1      31.793  -3.806  36.709  1.00  0.00     0.025 C 
HETATM   27  C3  UNK     1      32.814  -5.153  38.581  1.00  0.00     0.025 C 
HETATM   28  C4  UNK     1      33.587  -5.481  36.227  1.00  0.00     0.025 C 
ENDBRANCH  23  25
ENDBRANCH  22  23
ENDBRANCH   3  22
TORSDOF 5
ENDMDL
MODEL 8
REMARK VINA RESULT:      -8.0     22.193     23.978
REMARK  5 active torsions:
REMARK  status: ('A' for Active; 'I' for Inactive)
REMARK    1  A    between atoms: C5_10  and  O1_1 
REMARK    2  A    between atoms: C7_12  and  O1_1 
REMARK    3  A    between atoms: C16_21  and  O2_2 
REMARK    4  A    between atoms: C8_13  and  O2_2 
REMARK    5  A    between atoms: C1_6  and  C5_10 
ROOT
HETATM    1  O3  UNK     1      18.089   4.208  33.492  1.00  0.00    -0.319 OA
HETATM    2  O5  UNK     1      18.803   6.887  30.495  1.00  0.00    -0.284 OA
HETATM    3  C7  UNK     1      18.669   1.867  30.758  1.00  0.00     0.082 A 
HETATM    4  C9  UNK     1      18.621   4.625  31.156  1.00  0.00     0.051 A 
HETATM    5  C11 UNK     1      18.368   3.762  32.224  1.00  0.00     0.092 A 
HETATM    6  C13 UNK     1      18.392   2.381  32.025  1.00  0.00     0.075 A 
HETATM    7  C16 UNK     1      18.283   6.508  32.772  1.00  0.00     0.149 A 
HETATM    8  C17 UNK     1      18.590   6.081  31.389  1.00  0.00     0.220 A 
HETATM    9  C18 UNK     1      18.923   2.731  29.692  1.00  0.00     0.038 A 
HETATM   10  C19 UNK     1      18.899   4.113  29.886  1.00  0.00     0.021 A 
HETATM   11  C22 UNK     1      18.062   5.567  33.694  1.00  0.00     0.184 A 
ENDROOT
BRANCH   7  12
HETATM   12  O2  UNK     1      18.235   7.849  33.072  1.00  0.00    -0.304 OA
BRANCH  12  13
HETATM   13  C8  UNK     1      16.995   8.415  33.193  1.00  0.00     0.083 A 
HETATM   14  C14 UNK     1      15.877   7.677  32.813  1.00  0.00     0.044 A 
HETATM   15  C12 UNK     1      14.604   8.236  32.930  1.00  0.00    -0.059 A 
HETATM   16  C23 UNK     1      13.405   7.449  32.524  1.00  0.00     0.048 C 
HETATM   17  C15 UNK     1      14.455   9.531  33.425  1.00  0.00     0.014 A 
HETATM   18  C10 UNK     1      15.577  10.268  33.805  1.00  0.00    -0.053 A 
HETATM   19  C21 UNK     1      15.390  11.652  34.333  1.00  0.00     0.049 C 
HETATM   20  C6  UNK     1      16.850   9.707  33.688  1.00  0.00    -0.022 A 
HETATM   21  C20 UNK     1      18.057  10.492  34.093  1.00  0.00     0.052 C 
ENDBRANCH  12  13
ENDBRANCH   7  12
BRANCH   3  22
HETATM   22  O1  UNK     1      18.694   0.520  30.561  1.00  0.00    -0.278 OA
BRANCH  22  23
HETATM   23  C5  UNK     1      19.985  -0.042  30.529  1.00  0.00     0.271 C 
HETATM   24  O4  UNK     1      20.842   0.144  31.386  1.00  0.00    -0.264 OA
BRANCH  23  25
HETATM   25  C1  UNK     1      20.172  -0.916  29.284  1.00  0.00     0.037 C 
HETATM   26  C2  UNK     1      20.098  -2.397  29.682  1.00  0.00     0.025 C 
HETATM   27  C3  UNK     1      19.084  -0.582  28.254  1.00  0.00     0.025 C 
HETATM   28  C4  UNK     1      21.550  -0.633  28.664  1.00  0.00     0.025 C 
ENDBRANCH  23  25
ENDBRANCH  22  23
ENDBRANCH   3  22
TORSDOF 5
ENDMDL
MODEL 9
REMARK VINA RESULT:      -7.9     32.547     34.932
REMARK  5 active torsions:
REMARK  status: ('A' for Active; 'I' for Inactive)
REMARK    1  A    between atoms: C5_10  and  O1_1 
REMARK    2  A    between atoms: C7_12  and  O1_1 
REMARK    3  A    between atoms: C16_21  and  O2_2 
REMARK    4  A    between atoms: C8_13  and  O2_2 
REMARK    5  A    between atoms: C1_6  and  C5_10 
ROOT
HETATM    1  O3  UNK     1      25.187  -5.342  38.676  1.00  0.00    -0.319 OA
HETATM    2  O5  UNK     1      25.402  -9.379  39.242  1.00  0.00    -0.284 OA
HETATM    3  C7  UNK     1      28.792  -5.775  38.343  1.00  0.00     0.082 A 
HETATM    4  C9  UNK     1      26.545  -7.354  38.819  1.00  0.00     0.051 A 
HETATM    5  C11 UNK     1      26.404  -5.977  38.634  1.00  0.00     0.092 A 
HETATM    6  C13 UNK     1      27.528  -5.186  38.395  1.00  0.00     0.075 A 
HETATM    7  C16 UNK     1      24.058  -7.436  39.107  1.00  0.00     0.149 A 
HETATM    8  C17 UNK     1      25.343  -8.170  39.071  1.00  0.00     0.220 A 
HETATM    9  C18 UNK     1      28.931  -7.152  38.527  1.00  0.00     0.038 A 
HETATM   10  C19 UNK     1      27.809  -7.946  38.767  1.00  0.00     0.021 A 
HETATM   11  C22 UNK     1      24.076  -6.114  38.913  1.00  0.00     0.184 A 
ENDROOT
BRANCH   7  12
HETATM   12  O2  UNK     1      22.891  -8.124  39.337  1.00  0.00    -0.304 OA
BRANCH  12  13
HETATM   13  C8  UNK     1      22.018  -8.236  38.290  1.00  0.00     0.083 A 
HETATM   14  C14 UNK     1      22.372  -9.027  37.200  1.00  0.00     0.044 A 
HETATM   15  C12 UNK     1      21.496  -9.155  36.122  1.00  0.00    -0.059 A 
HETATM   16  C23 UNK     1      21.872 -10.001  34.952  1.00  0.00     0.048 C 
HETATM   17  C15 UNK     1      20.270  -8.492  36.138  1.00  0.00     0.014 A 
HETATM   18  C10 UNK     1      19.919  -7.700  37.232  1.00  0.00    -0.053 A 
HETATM   19  C21 UNK     1      18.599  -7.000  37.224  1.00  0.00     0.049 C 
HETATM   20  C6  UNK     1      20.795  -7.573  38.310  1.00  0.00    -0.022 A 
HETATM   21  C20 UNK     1      20.424  -6.725  39.485  1.00  0.00     0.052 C 
ENDBRANCH  12  13
ENDBRANCH   7  12
BRANCH   3  22
HETATM   22  O1  UNK     1      29.891  -5.006  38.109  1.00  0.00    -0.278 OA
BRANCH  22  23
HETATM   23  C5  UNK     1      30.513  -5.239  36.867  1.00  0.00     0.271 C 
HETATM   24  O4  UNK     1      29.929  -5.630  35.863  1.00  0.00    -0.264 OA
BRANCH  23  25
HETATM   25  C1  UNK     1      32.014  -4.935  36.940  1.00  0.00     0.037 C 
HETATM   26  C2  UNK     1      32.509  -5.141  38.379  1.00  0.00     0.025 C 
HETATM   27  C3  UNK     1      32.772  -5.858  35.975  1.00  0.00     0.025 C 
HETATM   28  C4  UNK     1      32.261  -3.475  36.531  1.00  0.00     0.025 C 
ENDBRANCH  23  25
ENDBRANCH  22  23
ENDBRANCH   3  22
TORSDOF 5
ENDMDL
MODEL 10
REMARK VINA RESULT:      -7.9     32.264     36.011
REMARK  5 active torsions:
REMARK  status: ('A' for Active; 'I' for Inactive)
REMARK    1  A    between atoms: C5_10  and  O1_1 
REMARK    2  A    between atoms: C7_12  and  O1_1 
REMARK    3  A    between atoms: C16_21  and  O2_2 
REMARK    4  A    between atoms: C8_13  and  O2_2 
REMARK    5  A    between atoms: C1_6  and  C5_10 
ROOT
HETATM    1  O3  UNK     1      26.659  -4.890  38.896  1.00  0.00    -0.319 OA
HETATM    2  O5  UNK     1      28.051  -8.689  38.348  1.00  0.00    -0.284 OA
HETATM    3  C7  UNK     1      23.499  -6.695  39.114  1.00  0.00     0.082 A 
HETATM    4  C9  UNK     1      26.197  -7.271  38.721  1.00  0.00     0.051 A 
HETATM    5  C11 UNK     1      25.785  -5.949  38.902  1.00  0.00     0.092 A 
HETATM    6  C13 UNK     1      24.435  -5.660  39.099  1.00  0.00     0.075 A 
HETATM    7  C16 UNK     1      28.527  -6.377  38.514  1.00  0.00     0.149 A 
HETATM    8  C17 UNK     1      27.629  -7.553  38.513  1.00  0.00     0.220 A 
HETATM    9  C18 UNK     1      23.912  -8.016  38.934  1.00  0.00     0.038 A 
HETATM   10  C19 UNK     1      25.262  -8.309  38.735  1.00  0.00     0.021 A 
HETATM   11  C22 UNK     1      27.991  -5.168  38.700  1.00  0.00     0.184 A 
ENDROOT
BRANCH   7  12
HETATM   12  O2  UNK     1      29.877  -6.555  38.327  1.00  0.00    -0.304 OA
BRANCH  12  13
HETATM   13  C8  UNK     1      30.398  -6.151  37.127  1.00  0.00     0.083 A 
HETATM   14  C14 UNK     1      29.725  -6.484  35.955  1.00  0.00     0.044 A 
HETATM   15  C12 UNK     1      30.239  -6.082  34.722  1.00  0.00    -0.059 A 
HETATM   16  C23 UNK     1      29.521  -6.436  33.464  1.00  0.00     0.048 C 
HETATM   17  C15 UNK     1      31.424  -5.349  34.667  1.00  0.00     0.014 A 
HETATM   18  C10 UNK     1      32.095  -5.018  35.844  1.00  0.00    -0.053 A 
HETATM   19  C21 UNK     1      33.363  -4.231  35.758  1.00  0.00     0.049 C 
HETATM   20  C6  UNK     1      31.580  -5.420  37.077  1.00  0.00    -0.022 A 
HETATM   21  C20 UNK     1      32.296  -5.068  38.342  1.00  0.00     0.052 C 
ENDBRANCH  12  13
ENDBRANCH   7  12
BRANCH   3  22
HETATM   22  O1  UNK     1      22.180  -6.415  39.307  1.00  0.00    -0.278 OA
BRANCH  22  23
HETATM   23  C5  UNK     1      21.420  -6.336  38.124  1.00  0.00     0.271 C 
HETATM   24  O4  UNK     1      21.616  -5.521  37.230  1.00  0.00    -0.264 OA
BRANCH  23  25
HETATM   25  C1  UNK     1      20.321  -7.404  38.105  1.00  0.00     0.037 C 
HETATM   26  C2  UNK     1      20.740  -8.554  37.179  1.00  0.00     0.025 C 
HETATM   27  C3  UNK     1      20.084  -7.922  39.530  1.00  0.00     0.025 C 
HETATM   28  C4  UNK     1      19.017  -6.786  37.576  1.00  0.00     0.025 C 
ENDBRANCH  23  25
ENDBRANCH  22  23
ENDBRANCH   3  22
TORSDOF 5
ENDMDL
