MODEL 1
REMARK VINA RESULT:      -9.7      0.000      0.000
REMARK  2 active torsions:
REMARK  status: ('A' for Active; 'I' for Inactive)
REMARK       I    between atoms: C11_19  and  N1_5 
REMARK    1  A    between atoms: C3_11  and  N1_5 
REMARK    2  A    between atoms: C11_19  and  C8_16 
ROOT
HETATM    1  O2  UNK     1      19.130   5.059  33.498  1.00  0.00    -0.266 OA
HETATM    2  N1  UNK     1      17.642   4.333  31.849  1.00  0.00    -0.322 N 
HETATM    3  C11 UNK     1      18.111   5.221  32.833  1.00  0.00     0.276 C 
HETATM    4  H4  UNK     1      16.783   4.599  31.369  1.00  0.00     0.169 HD
ENDROOT
BRANCH   2   5
HETATM    5  C3  UNK     1      18.207   3.128  31.432  1.00  0.00     0.037 A 
HETATM    6  C5  UNK     1      18.373   2.085  32.336  1.00  0.00     0.067 A 
HETATM    7  C2  UNK     1      18.940   0.887  31.897  1.00  0.00     0.092 A 
HETATM    8  C1  UNK     1      19.348   0.695  30.576  1.00  0.00     0.004 A 
HETATM    9  O1  UNK     1      19.082  -0.133  32.860  1.00  0.00    -0.275 OA
HETATM   10  C4  UNK     1      19.935  -0.599  30.202  1.00  0.00    -0.043 A 
HETATM   11  C6  UNK     1      19.172   1.758  29.681  1.00  0.00     0.017 A 
HETATM   12  C12 UNK     1      20.058  -1.551  31.138  1.00  0.00     0.090 A 
HETATM   13  C13 UNK     1      20.384  -0.837  28.790  1.00  0.00     0.049 C 
HETATM   14  C14 UNK     1      19.631  -1.364  32.535  1.00  0.00     0.288 A 
HETATM   15  O3  UNK     1      19.760  -2.258  33.365  1.00  0.00    -0.260 OA
HETATM   16  C7  UNK     1      18.605   2.965  30.106  1.00  0.00     0.030 A 
ENDBRANCH   2   5
BRANCH   3  17
HETATM   17  C8  UNK     1      17.301   6.438  33.009  1.00  0.00     0.149 A 
HETATM   18  C10 UNK     1      16.743   7.198  32.002  1.00  0.00     0.091 A 
HETATM   19  C9  UNK     1      16.099   8.209  32.677  1.00  0.00     0.152 A 
HETATM   20  N2  UNK     1      16.320   7.977  34.035  1.00  0.00    -0.225 N 
HETATM   21  N4  UNK     1      15.367   9.275  32.247  1.00  0.00    -0.240 NA
HETATM   22  C15 UNK     1      15.795   8.830  35.004  1.00  0.00     0.141 A 
HETATM   23  N3  UNK     1      17.074   6.864  34.232  1.00  0.00    -0.161 NA
HETATM   24  C16 UNK     1      15.068   9.894  34.643  1.00  0.00     0.046 A 
HETATM   25 Br1  UNK     1      14.304  11.115  35.798  1.00  0.00    -0.048 Br
HETATM   26  C17 UNK     1      14.891  10.052  33.173  1.00  0.00     0.139 A 
ENDBRANCH   3  17
TORSDOF 2
ENDMDL
MODEL 2
REMARK VINA RESULT:      -9.7      1.037      1.378
REMARK  2 active torsions:
REMARK  status: ('A' for Active; 'I' for Inactive)
REMARK       I    between atoms: C11_19  and  N1_5 
REMARK    1  A    between atoms: C3_11  and  N1_5 
REMARK    2  A    between atoms: C11_19  and  C8_16 
ROOT
HETATM    1  O2  UNK     1      19.601   5.739  31.924  1.00  0.00    -0.266 OA
HETATM    2  N1  UNK     1      17.773   4.292  32.084  1.00  0.00    -0.322 N 
HETATM    3  C11 UNK     1      18.434   5.523  32.238  1.00  0.00     0.276 C 
HETATM    4  H4  UNK     1      16.800   4.258  32.382  1.00  0.00     0.169 HD
ENDROOT
BRANCH   2   5
HETATM    5  C3  UNK     1      18.276   3.099  31.562  1.00  0.00     0.037 A 
HETATM    6  C5  UNK     1      18.527   2.021  32.403  1.00  0.00     0.067 A 
HETATM    7  C2  UNK     1      19.029   0.836  31.860  1.00  0.00     0.092 A 
HETATM    8  C1  UNK     1      19.290   0.694  30.497  1.00  0.00     0.004 A 
HETATM    9  O1  UNK     1      19.262  -0.221  32.762  1.00  0.00    -0.275 OA
HETATM   10  C4  UNK     1      19.818  -0.589  30.012  1.00  0.00    -0.043 A 
HETATM   11  C6  UNK     1      19.031   1.792  29.667  1.00  0.00     0.017 A 
HETATM   12  C12 UNK     1      20.031  -1.578  30.892  1.00  0.00     0.090 A 
HETATM   13  C13 UNK     1      20.110  -0.775  28.552  1.00  0.00     0.049 C 
HETATM   14  C14 UNK     1      19.759  -1.443  32.334  1.00  0.00     0.288 A 
HETATM   15  O3  UNK     1      19.966  -2.369  33.110  1.00  0.00    -0.260 OA
HETATM   16  C7  UNK     1      18.527   2.986  30.196  1.00  0.00     0.030 A 
ENDBRANCH   2   5
BRANCH   3  17
HETATM   17  C8  UNK     1      17.605   6.609  32.787  1.00  0.00     0.149 A 
HETATM   18  C10 UNK     1      17.600   7.050  34.094  1.00  0.00     0.091 A 
HETATM   19  C9  UNK     1      16.667   8.061  34.092  1.00  0.00     0.152 A 
HETATM   20  N2  UNK     1      16.187   8.149  32.785  1.00  0.00    -0.225 N 
HETATM   21  N4  UNK     1      16.209   8.884  35.077  1.00  0.00    -0.240 NA
HETATM   22  C15 UNK     1      15.217   9.087  32.439  1.00  0.00     0.141 A 
HETATM   23  N3  UNK     1      16.781   7.235  31.975  1.00  0.00    -0.161 NA
HETATM   24  C16 UNK     1      14.727   9.923  33.363  1.00  0.00     0.046 A 
HETATM   25 Br1  UNK     1      13.445  11.219  33.067  1.00  0.00    -0.048 Br
HETATM   26  C17 UNK     1      15.305   9.748  34.724  1.00  0.00     0.139 A 
ENDBRANCH   3  17
TORSDOF 2
ENDMDL
MODEL 3
REMARK VINA RESULT:      -9.7      7.089     11.012
REMARK  2 active torsions:
REMARK  status: ('A' for Active; 'I' for Inactive)
REMARK       I    between atoms: C11_19  and  N1_5 
REMARK    1  A    between atoms: C3_11  and  N1_5 
REMARK    2  A    between atoms: C11_19  and  C8_16 
ROOT
HETATM    1  O2  UNK     1      21.426  -2.059  35.148  1.00  0.00    -0.266 OA
HETATM    2  N1  UNK     1      19.107  -2.032  34.857  1.00  0.00    -0.322 N 
HETATM    3  C11 UNK     1      20.323  -2.571  35.315  1.00  0.00     0.276 C 
HETATM    4  H4  UNK     1      18.265  -2.562  35.073  1.00  0.00     0.169 HD
ENDROOT
BRANCH   2   5
HETATM    5  C3  UNK     1      18.899  -0.849  34.146  1.00  0.00     0.037 A 
HETATM    6  C5  UNK     1      19.018  -0.838  32.760  1.00  0.00     0.067 A 
HETATM    7  C2  UNK     1      18.804   0.355  32.069  1.00  0.00     0.092 A 
HETATM    8  C1  UNK     1      18.474   1.545  32.719  1.00  0.00     0.004 A 
HETATM    9  O1  UNK     1      18.938   0.304  30.666  1.00  0.00    -0.275 OA
HETATM   10  C4  UNK     1      18.267   2.755  31.911  1.00  0.00    -0.043 A 
HETATM   11  C6  UNK     1      18.360   1.513  34.115  1.00  0.00     0.017 A 
HETATM   12  C12 UNK     1      18.401   2.677  30.579  1.00  0.00     0.090 A 
HETATM   13  C13 UNK     1      17.912   4.051  32.580  1.00  0.00     0.049 C 
HETATM   14  C14 UNK     1      18.747   1.428  29.879  1.00  0.00     0.288 A 
HETATM   15  O3  UNK     1      18.861   1.395  28.658  1.00  0.00    -0.260 OA
HETATM   16  C7  UNK     1      18.571   0.324  34.823  1.00  0.00     0.030 A 
ENDBRANCH   2   5
BRANCH   3  17
HETATM   17  C8  UNK     1      20.198  -3.824  36.078  1.00  0.00     0.149 A 
HETATM   18  C10 UNK     1      20.348  -3.965  37.441  1.00  0.00     0.091 A 
HETATM   19  C9  UNK     1      20.141  -5.309  37.653  1.00  0.00     0.152 A 
HETATM   20  N2  UNK     1      19.882  -5.868  36.401  1.00  0.00    -0.225 N 
HETATM   21  N4  UNK     1      20.153  -6.069  38.784  1.00  0.00    -0.240 NA
HETATM   22  C15 UNK     1      19.626  -7.231  36.263  1.00  0.00     0.141 A 
HETATM   23  N3  UNK     1      19.921  -4.929  35.421  1.00  0.00    -0.161 NA
HETATM   24  C16 UNK     1      19.626  -8.029  37.337  1.00  0.00     0.046 A 
HETATM   25 Br1  UNK     1      19.305  -9.848  37.323  1.00  0.00    -0.048 Br
HETATM   26  C17 UNK     1      19.912  -7.336  38.623  1.00  0.00     0.139 A 
ENDBRANCH   3  17
TORSDOF 2
ENDMDL
MODEL 4
REMARK VINA RESULT:      -9.5      7.350     10.281
REMARK  2 active torsions:
REMARK  status: ('A' for Active; 'I' for Inactive)
REMARK       I    between atoms: C11_19  and  N1_5 
REMARK    1  A    between atoms: C3_11  and  N1_5 
REMARK    2  A    between atoms: C11_19  and  C8_16 
ROOT
HETATM    1  O2  UNK     1      21.128  -3.755  36.874  1.00  0.00    -0.266 OA
HETATM    2  N1  UNK     1      18.993  -4.701  36.775  1.00  0.00    -0.322 N 
HETATM    3  C11 UNK     1      19.910  -3.635  36.774  1.00  0.00     0.276 C 
HETATM    4  H4  UNK     1      18.009  -4.454  36.677  1.00  0.00     0.169 HD
ENDROOT
BRANCH   2   5
HETATM    5  C3  UNK     1      19.255  -6.067  36.885  1.00  0.00     0.037 A 
HETATM    6  C5  UNK     1      20.032  -6.708  35.927  1.00  0.00     0.067 A 
HETATM    7  C2  UNK     1      20.282  -8.075  36.057  1.00  0.00     0.092 A 
HETATM    8  C1  UNK     1      19.779  -8.827  37.120  1.00  0.00     0.004 A 
HETATM    9  O1  UNK     1      21.076  -8.669  35.055  1.00  0.00    -0.275 OA
HETATM   10  C4  UNK     1      20.093 -10.262  37.177  1.00  0.00    -0.043 A 
HETATM   11  C6  UNK     1      18.999  -8.163  38.075  1.00  0.00     0.017 A 
HETATM   12  C12 UNK     1      20.851 -10.800  36.210  1.00  0.00     0.090 A 
HETATM   13  C13 UNK     1      19.568 -11.099  38.307  1.00  0.00     0.049 C 
HETATM   14  C14 UNK     1      21.390 -10.019  35.084  1.00  0.00     0.288 A 
HETATM   15  O3  UNK     1      22.079 -10.545  34.217  1.00  0.00    -0.260 OA
HETATM   16  C7  UNK     1      18.739  -6.792  37.958  1.00  0.00     0.030 A 
ENDBRANCH   2   5
BRANCH   3  17
HETATM   17  C8  UNK     1      19.312  -2.301  36.597  1.00  0.00     0.149 A 
HETATM   18  C10 UNK     1      18.343  -1.731  37.395  1.00  0.00     0.091 A 
HETATM   19  C9  UNK     1      18.127  -0.501  36.815  1.00  0.00     0.152 A 
HETATM   20  N2  UNK     1      18.985  -0.430  35.717  1.00  0.00    -0.225 N 
HETATM   21  N4  UNK     1      17.291   0.526  37.134  1.00  0.00    -0.240 NA
HETATM   22  C15 UNK     1      19.016   0.701  34.904  1.00  0.00     0.141 A 
HETATM   23  N3  UNK     1      19.723  -1.563  35.589  1.00  0.00    -0.161 NA
HETATM   24  C16 UNK     1      18.218   1.742  35.166  1.00  0.00     0.046 A 
HETATM   25 Br1  UNK     1      18.140   3.308  34.190  1.00  0.00    -0.048 Br
HETATM   26  C17 UNK     1      17.343   1.566  36.357  1.00  0.00     0.139 A 
ENDBRANCH   3  17
TORSDOF 2
ENDMDL
MODEL 5
REMARK VINA RESULT:      -9.4      1.361      2.077
REMARK  2 active torsions:
REMARK  status: ('A' for Active; 'I' for Inactive)
REMARK       I    between atoms: C11_19  and  N1_5 
REMARK    1  A    between atoms: C3_11  and  N1_5 
REMARK    2  A    between atoms: C11_19  and  C8_16 
ROOT
HETATM    1  O2  UNK     1      19.515   5.449  32.808  1.00  0.00    -0.266 OA
HETATM    2  N1  UNK     1      17.600   4.148  32.483  1.00  0.00    -0.322 N 
HETATM    3  C11 UNK     1      18.293   5.345  32.736  1.00  0.00     0.276 C 
HETATM    4  H4  UNK     1      16.585   4.210  32.444  1.00  0.00     0.169 HD
ENDROOT
BRANCH   2   5
HETATM    5  C3  UNK     1      18.126   2.873  32.268  1.00  0.00     0.037 A 
HETATM    6  C5  UNK     1      18.580   2.510  31.004  1.00  0.00     0.067 A 
HETATM    7  C2  UNK     1      19.103   1.230  30.811  1.00  0.00     0.092 A 
HETATM    8  C1  UNK     1      19.189   0.296  31.845  1.00  0.00     0.004 A 
HETATM    9  O1  UNK     1      19.547   0.920  29.510  1.00  0.00    -0.275 OA
HETATM   10  C4  UNK     1      19.754  -1.028  31.551  1.00  0.00    -0.043 A 
HETATM   11  C6  UNK     1      18.727   0.682  33.110  1.00  0.00     0.017 A 
HETATM   12  C12 UNK     1      20.168  -1.296  30.304  1.00  0.00     0.090 A 
HETATM   13  C13 UNK     1      19.860  -2.055  32.640  1.00  0.00     0.049 C 
HETATM   14  C14 UNK     1      20.085  -0.320  29.204  1.00  0.00     0.288 A 
HETATM   15  O3  UNK     1      20.474  -0.600  28.075  1.00  0.00    -0.260 OA
HETATM   16  C7  UNK     1      18.199   1.961  33.319  1.00  0.00     0.030 A 
ENDBRANCH   2   5
BRANCH   3  17
HETATM   17  C8  UNK     1      17.442   6.538  32.878  1.00  0.00     0.149 A 
HETATM   18  C10 UNK     1      16.860   7.250  31.851  1.00  0.00     0.091 A 
HETATM   19  C9  UNK     1      16.181   8.257  32.497  1.00  0.00     0.152 A 
HETATM   20  N2  UNK     1      16.407   8.069  33.862  1.00  0.00    -0.225 N 
HETATM   21  N4  UNK     1      15.413   9.284  32.038  1.00  0.00    -0.240 NA
HETATM   22  C15 UNK     1      15.852   8.929  34.806  1.00  0.00     0.141 A 
HETATM   23  N3  UNK     1      17.199   6.988  34.089  1.00  0.00    -0.161 NA
HETATM   24  C16 UNK     1      15.089   9.957  34.416  1.00  0.00     0.046 A 
HETATM   25 Br1  UNK     1      14.282  11.183  35.537  1.00  0.00    -0.048 Br
HETATM   26  C17 UNK     1      14.909  10.070  32.942  1.00  0.00     0.139 A 
ENDBRANCH   3  17
TORSDOF 2
ENDMDL
MODEL 6
REMARK VINA RESULT:      -9.3      6.540      9.471
REMARK  2 active torsions:
REMARK  status: ('A' for Active; 'I' for Inactive)
REMARK       I    between atoms: C11_19  and  N1_5 
REMARK    1  A    between atoms: C3_11  and  N1_5 
REMARK    2  A    between atoms: C11_19  and  C8_16 
ROOT
HETATM    1  O2  UNK     1      18.651  -1.752  37.180  1.00  0.00    -0.266 OA
HETATM    2  N1  UNK     1      19.694  -3.172  35.645  1.00  0.00    -0.322 N 
HETATM    3  C11 UNK     1      19.033  -1.995  36.039  1.00  0.00     0.276 C 
HETATM    4  H4  UNK     1      19.960  -3.237  34.664  1.00  0.00     0.169 HD
ENDROOT
BRANCH   2   5
HETATM    5  C3  UNK     1      20.044  -4.271  36.429  1.00  0.00     0.037 A 
HETATM    6  C5  UNK     1      19.392  -5.488  36.258  1.00  0.00     0.067 A 
HETATM    7  C2  UNK     1      19.760  -6.575  37.052  1.00  0.00     0.092 A 
HETATM    8  C1  UNK     1      20.763  -6.486  38.019  1.00  0.00     0.004 A 
HETATM    9  O1  UNK     1      19.064  -7.781  36.832  1.00  0.00    -0.275 OA
HETATM   10  C4  UNK     1      21.084  -7.682  38.811  1.00  0.00    -0.043 A 
HETATM   11  C6  UNK     1      21.407  -5.252  38.176  1.00  0.00     0.017 A 
HETATM   12  C12 UNK     1      20.407  -8.815  38.580  1.00  0.00     0.090 A 
HETATM   13  C13 UNK     1      22.158  -7.620  39.858  1.00  0.00     0.049 C 
HETATM   14  C14 UNK     1      19.347  -8.924  37.563  1.00  0.00     0.288 A 
HETATM   15  O3  UNK     1      18.747  -9.978  37.379  1.00  0.00    -0.260 OA
HETATM   16  C7  UNK     1      21.050  -4.153  37.387  1.00  0.00     0.030 A 
ENDBRANCH   2   5
BRANCH   3  17
HETATM   17  C8  UNK     1      18.847  -0.999  34.971  1.00  0.00     0.149 A 
HETATM   18  C10 UNK     1      18.288   0.254  35.114  1.00  0.00     0.091 A 
HETATM   19  C9  UNK     1      18.340   0.779  33.843  1.00  0.00     0.152 A 
HETATM   20  N2  UNK     1      18.927  -0.198  33.038  1.00  0.00    -0.225 N 
HETATM   21  N4  UNK     1      17.944   1.979  33.333  1.00  0.00    -0.240 NA
HETATM   22  C15 UNK     1      19.129   0.020  31.677  1.00  0.00     0.141 A 
HETATM   23  N3  UNK     1      19.241  -1.308  33.755  1.00  0.00    -0.161 NA
HETATM   24  C16 UNK     1      18.760   1.179  31.118  1.00  0.00     0.046 A 
HETATM   25 Br1  UNK     1      18.959   1.622  29.336  1.00  0.00    -0.048 Br
HETATM   26  C17 UNK     1      18.145   2.152  32.061  1.00  0.00     0.139 A 
ENDBRANCH   3  17
TORSDOF 2
ENDMDL
MODEL 7
REMARK VINA RESULT:      -9.2      7.127     10.998
REMARK  2 active torsions:
REMARK  status: ('A' for Active; 'I' for Inactive)
REMARK       I    between atoms: C11_19  and  N1_5 
REMARK    1  A    between atoms: C3_11  and  N1_5 
REMARK    2  A    between atoms: C11_19  and  C8_16 
ROOT
HETATM    1  O2  UNK     1      21.294  -1.840  35.647  1.00  0.00    -0.266 OA
HETATM    2  N1  UNK     1      19.601  -2.673  34.267  1.00  0.00    -0.322 N 
HETATM    3  C11 UNK     1      20.489  -2.720  35.357  1.00  0.00     0.276 C 
HETATM    4  H4  UNK     1      18.982  -3.473  34.150  1.00  0.00     0.169 HD
ENDROOT
BRANCH   2   5
HETATM    5  C3  UNK     1      19.447  -1.659  33.320  1.00  0.00     0.037 A 
HETATM    6  C5  UNK     1      18.927  -0.426  33.696  1.00  0.00     0.067 A 
HETATM    7  C2  UNK     1      18.783   0.574  32.733  1.00  0.00     0.092 A 
HETATM    8  C1  UNK     1      19.144   0.382  31.399  1.00  0.00     0.004 A 
HETATM    9  O1  UNK     1      18.251   1.803  33.174  1.00  0.00    -0.275 OA
HETATM   10  C4  UNK     1      18.958   1.490  30.453  1.00  0.00    -0.043 A 
HETATM   11  C6  UNK     1      19.666  -0.868  31.040  1.00  0.00     0.017 A 
HETATM   12  C12 UNK     1      18.450   2.647  30.900  1.00  0.00     0.090 A 
HETATM   13  C13 UNK     1      19.336   1.315  29.011  1.00  0.00     0.049 C 
HETATM   14  C14 UNK     1      18.065   2.866  32.305  1.00  0.00     0.288 A 
HETATM   15  O3  UNK     1      17.603   3.939  32.678  1.00  0.00    -0.260 OA
HETATM   16  C7  UNK     1      19.817  -1.881  31.995  1.00  0.00     0.030 A 
ENDBRANCH   2   5
BRANCH   3  17
HETATM   17  C8  UNK     1      20.373  -3.921  36.201  1.00  0.00     0.149 A 
HETATM   18  C10 UNK     1      20.591  -3.984  37.561  1.00  0.00     0.091 A 
HETATM   19  C9  UNK     1      20.362  -5.306  37.866  1.00  0.00     0.152 A 
HETATM   20  N2  UNK     1      20.023  -5.932  36.665  1.00  0.00    -0.225 N 
HETATM   21  N4  UNK     1      20.415  -5.997  39.039  1.00  0.00    -0.240 NA
HETATM   22  C15 UNK     1      19.727  -7.293  36.625  1.00  0.00     0.141 A 
HETATM   23  N3  UNK     1      20.034  -5.055  35.628  1.00  0.00    -0.161 NA
HETATM   24  C16 UNK     1      19.762  -8.025  37.744  1.00  0.00     0.046 A 
HETATM   25 Br1  UNK     1      19.396  -9.831  37.859  1.00  0.00    -0.048 Br
HETATM   26  C17 UNK     1      20.133  -7.264  38.969  1.00  0.00     0.139 A 
ENDBRANCH   3  17
TORSDOF 2
ENDMDL
MODEL 8
REMARK VINA RESULT:      -9.1      6.331      9.062
REMARK  2 active torsions:
REMARK  status: ('A' for Active; 'I' for Inactive)
REMARK       I    between atoms: C11_19  and  N1_5 
REMARK    1  A    between atoms: C3_11  and  N1_5 
REMARK    2  A    between atoms: C11_19  and  C8_16 
ROOT
HETATM    1  O2  UNK     1      18.458  -1.835  37.727  1.00  0.00    -0.266 OA
HETATM    2  N1  UNK     1      19.346  -3.121  35.989  1.00  0.00    -0.322 N 
HETATM    3  C11 UNK     1      18.790  -1.958  36.551  1.00  0.00     0.276 C 
HETATM    4  H4  UNK     1      19.582  -3.080  35.000  1.00  0.00     0.169 HD
ENDROOT
BRANCH   2   5
HETATM    5  C3  UNK     1      19.630  -4.335  36.618  1.00  0.00     0.037 A 
HETATM    6  C5  UNK     1      20.903  -4.579  37.122  1.00  0.00     0.067 A 
HETATM    7  C2  UNK     1      21.164  -5.799  37.748  1.00  0.00     0.092 A 
HETATM    8  C1  UNK     1      20.190  -6.789  37.887  1.00  0.00     0.004 A 
HETATM    9  O1  UNK     1      22.472  -5.989  38.239  1.00  0.00    -0.275 OA
HETATM   10  C4  UNK     1      20.554  -8.044  38.560  1.00  0.00    -0.043 A 
HETATM   11  C6  UNK     1      18.914  -6.524  37.372  1.00  0.00     0.017 A 
HETATM   12  C12 UNK     1      21.805  -8.197  39.017  1.00  0.00     0.090 A 
HETATM   13  C13 UNK     1      19.530  -9.129  38.726  1.00  0.00     0.049 C 
HETATM   14  C14 UNK     1      22.843  -7.161  38.879  1.00  0.00     0.288 A 
HETATM   15  O3  UNK     1      23.977  -7.336  39.309  1.00  0.00    -0.260 OA
HETATM   16  C7  UNK     1      18.637  -5.305  36.742  1.00  0.00     0.030 A 
ENDBRANCH   2   5
BRANCH   3  17
HETATM   17  C8  UNK     1      18.656  -0.823  35.623  1.00  0.00     0.149 A 
HETATM   18  C10 UNK     1      18.526  -0.903  34.253  1.00  0.00     0.091 A 
HETATM   19  C9  UNK     1      18.440   0.412  33.857  1.00  0.00     0.152 A 
HETATM   20  N2  UNK     1      18.523   1.178  35.022  1.00  0.00    -0.225 N 
HETATM   21  N4  UNK     1      18.300   0.992  32.632  1.00  0.00    -0.240 NA
HETATM   22  C15 UNK     1      18.467   2.569  34.971  1.00  0.00     0.141 A 
HETATM   23  N3  UNK     1      18.659   0.393  36.122  1.00  0.00    -0.161 NA
HETATM   24  C16 UNK     1      18.332   3.196  33.797  1.00  0.00     0.046 A 
HETATM   25 Br1  UNK     1      18.240   5.025  33.560  1.00  0.00    -0.048 Br
HETATM   26  C17 UNK     1      18.251   2.291  32.618  1.00  0.00     0.139 A 
ENDBRANCH   3  17
TORSDOF 2
ENDMDL
MODEL 9
REMARK VINA RESULT:      -9.1      7.561     10.375
REMARK  2 active torsions:
REMARK  status: ('A' for Active; 'I' for Inactive)
REMARK       I    between atoms: C11_19  and  N1_5 
REMARK    1  A    between atoms: C3_11  and  N1_5 
REMARK    2  A    between atoms: C11_19  and  C8_16 
ROOT
HETATM    1  O2  UNK     1      20.868  -3.849  37.556  1.00  0.00    -0.266 OA
HETATM    2  N1  UNK     1      19.200  -4.871  36.278  1.00  0.00    -0.322 N 
HETATM    3  C11 UNK     1      19.837  -3.779  36.894  1.00  0.00     0.276 C 
HETATM    4  H4  UNK     1      18.352  -4.665  35.752  1.00  0.00     0.169 HD
ENDROOT
BRANCH   2   5
HETATM    5  C3  UNK     1      19.584  -6.212  36.284  1.00  0.00     0.037 A 
HETATM    6  C5  UNK     1      19.185  -7.048  37.322  1.00  0.00     0.067 A 
HETATM    7  C2  UNK     1      19.579  -8.387  37.307  1.00  0.00     0.092 A 
HETATM    8  C1  UNK     1      20.363  -8.922  36.284  1.00  0.00     0.004 A 
HETATM    9  O1  UNK     1      19.144  -9.184  38.386  1.00  0.00    -0.275 OA
HETATM   10  C4  UNK     1      20.732 -10.343  36.351  1.00  0.00    -0.043 A 
HETATM   11  C6  UNK     1      20.754  -8.064  35.248  1.00  0.00     0.017 A 
HETATM   12  C12 UNK     1      20.304 -11.077  37.388  1.00  0.00     0.090 A 
HETATM   13  C13 UNK     1      21.574 -10.949  35.266  1.00  0.00     0.049 C 
HETATM   14  C14 UNK     1      19.475 -10.527  38.474  1.00  0.00     0.288 A 
HETATM   15  O3  UNK     1      19.102 -11.229  39.407  1.00  0.00    -0.260 OA
HETATM   16  C7  UNK     1      20.367  -6.719  35.249  1.00  0.00     0.030 A 
ENDBRANCH   2   5
BRANCH   3  17
HETATM   17  C8  UNK     1      19.197  -2.474  36.661  1.00  0.00     0.149 A 
HETATM   18  C10 UNK     1      18.059  -2.003  37.282  1.00  0.00     0.091 A 
HETATM   19  C9  UNK     1      17.876  -0.759  36.723  1.00  0.00     0.152 A 
HETATM   20  N2  UNK     1      18.918  -0.580  35.813  1.00  0.00    -0.225 N 
HETATM   21  N4  UNK     1      16.929   0.201  36.919  1.00  0.00    -0.240 NA
HETATM   22  C15 UNK     1      19.027   0.592  35.068  1.00  0.00     0.141 A 
HETATM   23  N3  UNK     1      19.740  -1.661  35.782  1.00  0.00    -0.161 NA
HETATM   24  C16 UNK     1      18.127   1.571  35.216  1.00  0.00     0.046 A 
HETATM   25 Br1  UNK     1      18.131   3.180  34.308  1.00  0.00    -0.048 Br
HETATM   26  C17 UNK     1      17.057   1.283  36.210  1.00  0.00     0.139 A 
ENDBRANCH   3  17
TORSDOF 2
ENDMDL
MODEL 10
REMARK VINA RESULT:      -9.0      3.964      9.466
REMARK  2 active torsions:
REMARK  status: ('A' for Active; 'I' for Inactive)
REMARK       I    between atoms: C11_19  and  N1_5 
REMARK    1  A    between atoms: C3_11  and  N1_5 
REMARK    2  A    between atoms: C11_19  and  C8_16 
ROOT
HETATM    1  O2  UNK     1      17.963   4.402  33.682  1.00  0.00    -0.266 OA
HETATM    2  N1  UNK     1      17.394   5.565  31.736  1.00  0.00    -0.322 N 
HETATM    3  C11 UNK     1      17.901   4.470  32.458  1.00  0.00     0.276 C 
HETATM    4  H4  UNK     1      17.398   5.481  30.721  1.00  0.00     0.169 HD
ENDROOT
BRANCH   2   5
HETATM    5  C3  UNK     1      16.872   6.760  32.232  1.00  0.00     0.037 A 
HETATM    6  C5  UNK     1      17.726   7.770  32.662  1.00  0.00     0.067 A 
HETATM    7  C2  UNK     1      17.182   8.958  33.153  1.00  0.00     0.092 A 
HETATM    8  C1  UNK     1      15.805   9.172  33.229  1.00  0.00     0.004 A 
HETATM    9  O1  UNK     1      18.098   9.944  33.573  1.00  0.00    -0.275 OA
HETATM   10  C4  UNK     1      15.321  10.454  33.760  1.00  0.00    -0.043 A 
HETATM   11  C6  UNK     1      14.962   8.143  32.792  1.00  0.00     0.017 A 
HETATM   12  C12 UNK     1      16.214  11.373  34.152  1.00  0.00     0.090 A 
HETATM   13  C13 UNK     1      13.846  10.715  33.856  1.00  0.00     0.049 C 
HETATM   14  C14 UNK     1      17.670  11.162  34.077  1.00  0.00     0.288 A 
HETATM   15  O3  UNK     1      18.458  12.027  34.445  1.00  0.00    -0.260 OA
HETATM   16  C7  UNK     1      15.492   6.945  32.296  1.00  0.00     0.030 A 
ENDBRANCH   2   5
BRANCH   3  17
HETATM   17  C8  UNK     1      18.342   3.332  31.633  1.00  0.00     0.149 A 
HETATM   18  C10 UNK     1      18.402   3.300  30.256  1.00  0.00     0.091 A 
HETATM   19  C9  UNK     1      18.866   2.034  29.981  1.00  0.00     0.152 A 
HETATM   20  N2  UNK     1      19.050   1.407  31.214  1.00  0.00    -0.225 N 
HETATM   21  N4  UNK     1      19.135   1.394  28.809  1.00  0.00    -0.240 NA
HETATM   22  C15 UNK     1      19.518   0.098  31.290  1.00  0.00     0.141 A 
HETATM   23  N3  UNK     1      18.718   2.230  32.243  1.00  0.00    -0.161 NA
HETATM   24  C16 UNK     1      19.800  -0.584  30.173  1.00  0.00     0.046 A 
HETATM   25 Br1  UNK     1      20.428  -2.319  30.103  1.00  0.00    -0.048 Br
HETATM   26  C17 UNK     1      19.570   0.173  28.912  1.00  0.00     0.139 A 
ENDBRANCH   3  17
TORSDOF 2
ENDMDL
