MODEL 1
REMARK VINA RESULT:      -9.2      0.000      0.000
REMARK  2 active torsions:
REMARK  status: ('A' for Active; 'I' for Inactive)
REMARK    1  A    between atoms: C3_7  and  N1_4 
REMARK       I    between atoms: C7_11  and  N1_4 
REMARK    2  A    between atoms: C2_6  and  C7_11 
ROOT
HETATM    1  O1  UNK     1      19.051   1.599  28.744  1.00  0.00    -0.274 OA
HETATM    2  O3  UNK     1      18.254   3.730  28.944  1.00  0.00    -0.259 OA
HETATM    3  C1  UNK     1      19.524   0.301  30.745  1.00  0.00    -0.001 A 
HETATM    4  C2  UNK     1      18.678   2.561  30.961  1.00  0.00     0.108 A 
HETATM    5  C4  UNK     1      19.492   0.410  29.359  1.00  0.00     0.089 A 
HETATM    6  C5  UNK     1      19.096   1.434  31.550  1.00  0.00     0.037 A 
HETATM    7  C8  UNK     1      19.967  -0.894  31.317  1.00  0.00     0.014 A 
HETATM    8  C9  UNK     1      18.635   2.700  29.488  1.00  0.00     0.304 A 
HETATM    9  C11 UNK     1      19.889  -0.638  28.530  1.00  0.00     0.038 A 
HETATM   10  C14 UNK     1      20.367  -1.955  30.499  1.00  0.00     0.001 A 
HETATM   11  C15 UNK     1      20.329  -1.827  29.109  1.00  0.00     0.003 A 
ENDROOT
BRANCH   4  12
HETATM   12  C7  UNK     1      18.267   3.648  31.858  1.00  0.00     0.262 C 
HETATM   13  O2  UNK     1      17.615   3.386  32.867  1.00  0.00    -0.267 OA
HETATM   14  N1  UNK     1      18.702   4.885  31.404  1.00  0.00    -0.322 N 
HETATM   15  H2  UNK     1      19.255   4.916  30.553  1.00  0.00     0.169 HD
BRANCH  14  16
HETATM   16  C3  UNK     1      18.477   6.117  32.027  1.00  0.00     0.041 A 
HETATM   17  C10 UNK     1      17.215   6.703  31.936  1.00  0.00     0.030 A 
HETATM   18  C16 UNK     1      16.971   7.931  32.550  1.00  0.00     0.002 A 
HETATM   19  C17 UNK     1      17.989   8.572  33.256  1.00  0.00     0.001 A 
HETATM   20  C12 UNK     1      19.251   7.986  33.346  1.00  0.00     0.009 A 
HETATM   21  C6  UNK     1      19.496   6.757  32.732  1.00  0.00    -0.035 A 
HETATM   22  C13 UNK     1      20.857   6.152  32.846  1.00  0.00     0.050 C 
ENDBRANCH  14  16
ENDBRANCH   4  12
TORSDOF 2
ENDMDL
MODEL 2
REMARK VINA RESULT:      -9.1      7.714     11.421
REMARK  2 active torsions:
REMARK  status: ('A' for Active; 'I' for Inactive)
REMARK    1  A    between atoms: C3_7  and  N1_4 
REMARK       I    between atoms: C7_11  and  N1_4 
REMARK    2  A    between atoms: C2_6  and  C7_11 
ROOT
HETATM    1  O1  UNK     1      19.474  -1.261  34.774  1.00  0.00    -0.274 OA
HETATM    2  O3  UNK     1      20.625  -3.175  34.292  1.00  0.00    -0.259 OA
HETATM    3  C1  UNK     1      18.491  -0.974  36.979  1.00  0.00    -0.001 A 
HETATM    4  C2  UNK     1      19.711  -3.005  36.471  1.00  0.00     0.108 A 
HETATM    5  C4  UNK     1      18.735  -0.495  35.696  1.00  0.00     0.089 A 
HETATM    6  C5  UNK     1      19.010  -2.281  37.352  1.00  0.00     0.037 A 
HETATM    7  C8  UNK     1      17.754  -0.185  37.865  1.00  0.00     0.014 A 
HETATM    8  C9  UNK     1      19.983  -2.514  35.102  1.00  0.00     0.304 A 
HETATM    9  C11 UNK     1      18.265   0.748  35.276  1.00  0.00     0.038 A 
HETATM   10  C14 UNK     1      17.277   1.064  37.459  1.00  0.00     0.001 A 
HETATM   11  C15 UNK     1      17.531   1.530  36.166  1.00  0.00     0.003 A 
ENDROOT
BRANCH   4  12
HETATM   12  C7  UNK     1      20.193  -4.309  36.941  1.00  0.00     0.262 C 
HETATM   13  O2  UNK     1      21.402  -4.508  37.043  1.00  0.00    -0.267 OA
HETATM   14  N1  UNK     1      19.147  -5.179  37.216  1.00  0.00    -0.322 N 
HETATM   15  H2  UNK     1      18.198  -4.839  37.095  1.00  0.00     0.169 HD
BRANCH  14  16
HETATM   16  C3  UNK     1      19.267  -6.493  37.679  1.00  0.00     0.041 A 
HETATM   17  C10 UNK     1      19.858  -6.724  38.921  1.00  0.00     0.030 A 
HETATM   18  C16 UNK     1      19.987  -8.027  39.399  1.00  0.00     0.002 A 
HETATM   19  C17 UNK     1      19.525  -9.099  38.636  1.00  0.00     0.001 A 
HETATM   20  C12 UNK     1      18.934  -8.868  37.394  1.00  0.00     0.009 A 
HETATM   21  C6  UNK     1      18.805  -7.564  36.915  1.00  0.00    -0.035 A 
HETATM   22  C13 UNK     1      18.167  -7.345  35.582  1.00  0.00     0.050 C 
ENDBRANCH  14  16
ENDBRANCH   4  12
TORSDOF 2
ENDMDL
MODEL 3
REMARK VINA RESULT:      -9.1      1.604      2.328
REMARK  2 active torsions:
REMARK  status: ('A' for Active; 'I' for Inactive)
REMARK    1  A    between atoms: C3_7  and  N1_4 
REMARK       I    between atoms: C7_11  and  N1_4 
REMARK    2  A    between atoms: C2_6  and  C7_11 
ROOT
HETATM    1  O1  UNK     1      18.780   0.305  32.866  1.00  0.00    -0.274 OA
HETATM    2  O3  UNK     1      17.922   1.918  34.238  1.00  0.00    -0.259 OA
HETATM    3  C1  UNK     1      19.351   0.861  30.569  1.00  0.00    -0.001 A 
HETATM    4  C2  UNK     1      18.441   2.574  32.021  1.00  0.00     0.108 A 
HETATM    5  C4  UNK     1      19.275  -0.069  31.601  1.00  0.00     0.089 A 
HETATM    6  C5  UNK     1      18.910   2.225  30.817  1.00  0.00     0.037 A 
HETATM    7  C8  UNK     1      19.847   0.452  29.329  1.00  0.00     0.014 A 
HETATM    8  C9  UNK     1      18.351   1.602  33.134  1.00  0.00     0.304 A 
HETATM    9  C11 UNK     1      19.680  -1.392  31.429  1.00  0.00     0.038 A 
HETATM   10  C14 UNK     1      20.258  -0.870  29.141  1.00  0.00     0.001 A 
HETATM   11  C15 UNK     1      20.174  -1.791  30.189  1.00  0.00     0.003 A 
ENDROOT
BRANCH   4  12
HETATM   12  C7  UNK     1      18.021   3.972  32.173  1.00  0.00     0.262 C 
HETATM   13  O2  UNK     1      17.189   4.442  31.398  1.00  0.00    -0.267 OA
HETATM   14  N1  UNK     1      18.666   4.594  33.232  1.00  0.00    -0.322 N 
HETATM   15  H2  UNK     1      19.314   4.044  33.786  1.00  0.00     0.169 HD
BRANCH  14  16
HETATM   16  C3  UNK     1      18.490   5.920  33.641  1.00  0.00     0.041 A 
HETATM   17  C10 UNK     1      17.271   6.301  34.201  1.00  0.00     0.030 A 
HETATM   18  C16 UNK     1      17.076   7.619  34.614  1.00  0.00     0.002 A 
HETATM   19  C17 UNK     1      18.101   8.554  34.467  1.00  0.00     0.001 A 
HETATM   20  C12 UNK     1      19.319   8.172  33.907  1.00  0.00     0.009 A 
HETATM   21  C6  UNK     1      19.514   6.854  33.494  1.00  0.00    -0.035 A 
HETATM   22  C13 UNK     1      20.830   6.472  32.897  1.00  0.00     0.050 C 
ENDBRANCH  14  16
ENDBRANCH   4  12
TORSDOF 2
ENDMDL
MODEL 4
REMARK VINA RESULT:      -9.0     13.549     16.203
REMARK  2 active torsions:
REMARK  status: ('A' for Active; 'I' for Inactive)
REMARK    1  A    between atoms: C3_7  and  N1_4 
REMARK       I    between atoms: C7_11  and  N1_4 
REMARK    2  A    between atoms: C2_6  and  C7_11 
ROOT
HETATM    1  O1  UNK     1      19.845  -2.327  13.067  1.00  0.00    -0.274 OA
HETATM    2  O3  UNK     1      19.409  -0.299  14.024  1.00  0.00    -0.259 OA
HETATM    3  C1  UNK     1      19.367  -4.366  14.303  1.00  0.00    -0.001 A 
HETATM    4  C2  UNK     1      18.903  -2.216  15.321  1.00  0.00     0.108 A 
HETATM    5  C4  UNK     1      19.835  -3.733  13.156  1.00  0.00     0.089 A 
HETATM    6  C5  UNK     1      18.891  -3.552  15.411  1.00  0.00     0.037 A 
HETATM    7  C8  UNK     1      19.373  -5.762  14.353  1.00  0.00     0.014 A 
HETATM    8  C9  UNK     1      19.395  -1.522  14.110  1.00  0.00     0.304 A 
HETATM    9  C11 UNK     1      20.306  -4.454  12.060  1.00  0.00     0.038 A 
HETATM   10  C14 UNK     1      19.841  -6.499  13.262  1.00  0.00     0.001 A 
HETATM   11  C15 UNK     1      20.307  -5.847  12.118  1.00  0.00     0.003 A 
ENDROOT
BRANCH   4  12
HETATM   12  C7  UNK     1      18.402  -1.483  16.490  1.00  0.00     0.262 C 
HETATM   13  O2  UNK     1      17.295  -1.759  16.949  1.00  0.00    -0.267 OA
HETATM   14  N1  UNK     1      19.308  -0.528  16.928  1.00  0.00    -0.322 N 
HETATM   15  H2  UNK     1      20.194  -0.448  16.439  1.00  0.00     0.169 HD
BRANCH  14  16
HETATM   16  C3  UNK     1      19.134   0.336  18.015  1.00  0.00     0.041 A 
HETATM   17  C10 UNK     1      18.987  -0.203  19.292  1.00  0.00     0.030 A 
HETATM   18  C16 UNK     1      18.813   0.642  20.388  1.00  0.00     0.002 A 
HETATM   19  C17 UNK     1      18.785   2.025  20.206  1.00  0.00     0.001 A 
HETATM   20  C12 UNK     1      18.933   2.562  18.928  1.00  0.00     0.009 A 
HETATM   21  C6  UNK     1      19.108   1.717  17.831  1.00  0.00    -0.035 A 
HETATM   22  C13 UNK     1      19.263   2.321  16.473  1.00  0.00     0.050 C 
ENDBRANCH  14  16
ENDBRANCH   4  12
TORSDOF 2
ENDMDL
MODEL 5
REMARK VINA RESULT:      -8.9      1.582      7.470
REMARK  2 active torsions:
REMARK  status: ('A' for Active; 'I' for Inactive)
REMARK    1  A    between atoms: C3_7  and  N1_4 
REMARK       I    between atoms: C7_11  and  N1_4 
REMARK    2  A    between atoms: C2_6  and  C7_11 
ROOT
HETATM    1  O1  UNK     1      18.053   4.419  34.203  1.00  0.00    -0.274 OA
HETATM    2  O3  UNK     1      18.393   2.166  34.039  1.00  0.00    -0.259 OA
HETATM    3  C1  UNK     1      17.795   5.745  32.181  1.00  0.00    -0.001 A 
HETATM    4  C2  UNK     1      18.156   3.356  32.003  1.00  0.00     0.108 A 
HETATM    5  C4  UNK     1      17.846   5.660  33.568  1.00  0.00     0.089 A 
HETATM    6  C5  UNK     1      17.960   4.532  31.395  1.00  0.00     0.037 A 
HETATM    7  C8  UNK     1      17.588   6.993  31.589  1.00  0.00     0.014 A 
HETATM    8  C9  UNK     1      18.214   3.242  33.478  1.00  0.00     0.304 A 
HETATM    9  C11 UNK     1      17.696   6.785  34.379  1.00  0.00     0.038 A 
HETATM   10  C14 UNK     1      17.435   8.130  32.388  1.00  0.00     0.001 A 
HETATM   11  C15 UNK     1      17.490   8.026  33.780  1.00  0.00     0.003 A 
ENDROOT
BRANCH   4  12
HETATM   12  C7  UNK     1      18.312   2.190  31.126  1.00  0.00     0.262 C 
HETATM   13  O2  UNK     1      17.556   2.050  30.165  1.00  0.00    -0.267 OA
HETATM   14  N1  UNK     1      19.351   1.367  31.537  1.00  0.00    -0.322 N 
HETATM   15  H2  UNK     1      19.891   1.649  32.349  1.00  0.00     0.169 HD
BRANCH  14  16
HETATM   16  C3  UNK     1      19.757   0.180  30.919  1.00  0.00     0.041 A 
HETATM   17  C10 UNK     1      20.354   0.240  29.660  1.00  0.00     0.030 A 
HETATM   18  C16 UNK     1      20.765  -0.933  29.027  1.00  0.00     0.002 A 
HETATM   19  C17 UNK     1      20.579  -2.165  29.653  1.00  0.00     0.001 A 
HETATM   20  C12 UNK     1      19.981  -2.224  30.912  1.00  0.00     0.009 A 
HETATM   21  C6  UNK     1      19.570  -1.051  31.546  1.00  0.00    -0.035 A 
HETATM   22  C13 UNK     1      18.933  -1.145  32.894  1.00  0.00     0.050 C 
ENDBRANCH  14  16
ENDBRANCH   4  12
TORSDOF 2
ENDMDL
MODEL 6
REMARK VINA RESULT:      -8.6      1.682      7.173
REMARK  2 active torsions:
REMARK  status: ('A' for Active; 'I' for Inactive)
REMARK    1  A    between atoms: C3_7  and  N1_4 
REMARK       I    between atoms: C7_11  and  N1_4 
REMARK    2  A    between atoms: C2_6  and  C7_11 
ROOT
HETATM    1  O1  UNK     1      19.202   6.493  31.338  1.00  0.00    -0.274 OA
HETATM    2  O3  UNK     1      19.756   5.001  29.699  1.00  0.00    -0.259 OA
HETATM    3  C1  UNK     1      17.790   5.779  33.184  1.00  0.00    -0.001 A 
HETATM    4  C2  UNK     1      18.375   4.194  31.447  1.00  0.00     0.108 A 
HETATM    5  C4  UNK     1      18.525   6.770  32.543  1.00  0.00     0.089 A 
HETATM    6  C5  UNK     1      17.730   4.452  32.591  1.00  0.00     0.037 A 
HETATM    7  C8  UNK     1      17.132   6.092  34.376  1.00  0.00     0.014 A 
HETATM    8  C9  UNK     1      19.164   5.233  30.748  1.00  0.00     0.304 A 
HETATM    9  C11 UNK     1      18.622   8.062  33.057  1.00  0.00     0.038 A 
HETATM   10  C14 UNK     1      17.221   7.383  34.906  1.00  0.00     0.001 A 
HETATM   11  C15 UNK     1      17.964   8.366  34.247  1.00  0.00     0.003 A 
ENDROOT
BRANCH   4  12
HETATM   12  C7  UNK     1      18.254   2.827  30.928  1.00  0.00     0.262 C 
HETATM   13  O2  UNK     1      17.186   2.454  30.445  1.00  0.00    -0.267 OA
HETATM   14  N1  UNK     1      19.436   2.114  31.070  1.00  0.00    -0.322 N 
HETATM   15  H2  UNK     1      20.236   2.589  31.476  1.00  0.00     0.169 HD
BRANCH  14  16
HETATM   16  C3  UNK     1      19.651   0.789  30.677  1.00  0.00     0.041 A 
HETATM   17  C10 UNK     1      20.124   0.530  29.391  1.00  0.00     0.030 A 
HETATM   18  C16 UNK     1      20.345  -0.785  28.982  1.00  0.00     0.002 A 
HETATM   19  C17 UNK     1      20.093  -1.840  29.858  1.00  0.00     0.001 A 
HETATM   20  C12 UNK     1      19.620  -1.581  31.144  1.00  0.00     0.009 A 
HETATM   21  C6  UNK     1      19.400  -0.265  31.555  1.00  0.00    -0.035 A 
HETATM   22  C13 UNK     1      18.893  -0.017  32.938  1.00  0.00     0.050 C 
ENDBRANCH  14  16
ENDBRANCH   4  12
TORSDOF 2
ENDMDL
MODEL 7
REMARK VINA RESULT:      -8.6      8.469     10.452
REMARK  2 active torsions:
REMARK  status: ('A' for Active; 'I' for Inactive)
REMARK    1  A    between atoms: C3_7  and  N1_4 
REMARK       I    between atoms: C7_11  and  N1_4 
REMARK    2  A    between atoms: C2_6  and  C7_11 
ROOT
HETATM    1  O1  UNK     1      20.068  -7.755  35.744  1.00  0.00    -0.274 OA
HETATM    2  O3  UNK     1      20.225  -5.741  34.677  1.00  0.00    -0.259 OA
HETATM    3  C1  UNK     1      19.879  -7.818  38.167  1.00  0.00    -0.001 A 
HETATM    4  C2  UNK     1      20.046  -5.681  37.038  1.00  0.00     0.108 A 
HETATM    5  C4  UNK     1      19.949  -8.480  36.946  1.00  0.00     0.089 A 
HETATM    6  C5  UNK     1      19.933  -6.365  38.183  1.00  0.00     0.037 A 
HETATM    7  C8  UNK     1      19.761  -8.573  39.337  1.00  0.00     0.014 A 
HETATM    8  C9  UNK     1      20.121  -6.364  35.728  1.00  0.00     0.304 A 
HETATM    9  C11 UNK     1      19.904  -9.871  36.860  1.00  0.00     0.038 A 
HETATM   10  C14 UNK     1      19.714  -9.968  39.268  1.00  0.00     0.001 A 
HETATM   11  C15 UNK     1      19.786 -10.616  38.032  1.00  0.00     0.003 A 
ENDROOT
BRANCH   4  12
HETATM   12  C7  UNK     1      20.092  -4.219  37.158  1.00  0.00     0.262 C 
HETATM   13  O2  UNK     1      21.069  -3.684  37.681  1.00  0.00    -0.267 OA
HETATM   14  N1  UNK     1      18.955  -3.621  36.632  1.00  0.00    -0.322 N 
HETATM   15  H2  UNK     1      18.249  -4.219  36.216  1.00  0.00     0.169 HD
BRANCH  14  16
HETATM   16  C3  UNK     1      18.690  -2.248  36.592  1.00  0.00     0.041 A 
HETATM   17  C10 UNK     1      18.028  -1.653  37.665  1.00  0.00     0.030 A 
HETATM   18  C16 UNK     1      17.755  -0.286  37.643  1.00  0.00     0.002 A 
HETATM   19  C17 UNK     1      18.143   0.486  36.548  1.00  0.00     0.001 A 
HETATM   20  C12 UNK     1      18.805  -0.110  35.475  1.00  0.00     0.009 A 
HETATM   21  C6  UNK     1      19.079  -1.478  35.497  1.00  0.00    -0.035 A 
HETATM   22  C13 UNK     1      19.790  -2.089  34.334  1.00  0.00     0.050 C 
ENDBRANCH  14  16
ENDBRANCH   4  12
TORSDOF 2
ENDMDL
MODEL 8
REMARK VINA RESULT:      -8.5     13.839     16.552
REMARK  2 active torsions:
REMARK  status: ('A' for Active; 'I' for Inactive)
REMARK    1  A    between atoms: C3_7  and  N1_4 
REMARK       I    between atoms: C7_11  and  N1_4 
REMARK    2  A    between atoms: C2_6  and  C7_11 
ROOT
HETATM    1  O1  UNK     1      18.641  -4.205  13.798  1.00  0.00    -0.274 OA
HETATM    2  O3  UNK     1      17.563  -4.261  15.811  1.00  0.00    -0.259 OA
HETATM    3  C1  UNK     1      19.742  -2.159  13.081  1.00  0.00    -0.001 A 
HETATM    4  C2  UNK     1      18.598  -2.214  15.217  1.00  0.00     0.108 A 
HETATM    5  C4  UNK     1      19.395  -3.486  12.849  1.00  0.00     0.089 A 
HETATM    6  C5  UNK     1      19.314  -1.526  14.319  1.00  0.00     0.037 A 
HETATM    7  C8  UNK     1      20.489  -1.479  12.116  1.00  0.00     0.014 A 
HETATM    8  C9  UNK     1      18.218  -3.627  14.991  1.00  0.00     0.304 A 
HETATM    9  C11 UNK     1      19.772  -4.151  11.683  1.00  0.00     0.038 A 
HETATM   10  C14 UNK     1      20.877  -2.132  10.943  1.00  0.00     0.001 A 
HETATM   11  C15 UNK     1      20.519  -3.465  10.727  1.00  0.00     0.003 A 
ENDROOT
BRANCH   4  12
HETATM   12  C7  UNK     1      18.214  -1.489  16.433  1.00  0.00     0.262 C 
HETATM   13  O2  UNK     1      17.153  -1.764  16.992  1.00  0.00    -0.267 OA
HETATM   14  N1  UNK     1      19.162  -0.542  16.793  1.00  0.00    -0.322 N 
HETATM   15  H2  UNK     1      19.998  -0.463  16.223  1.00  0.00     0.169 HD
BRANCH  14  16
HETATM   16  C3  UNK     1      19.096   0.312  17.898  1.00  0.00     0.041 A 
HETATM   17  C10 UNK     1      18.979  -0.237  19.174  1.00  0.00     0.030 A 
HETATM   18  C16 UNK     1      18.912   0.599  20.288  1.00  0.00     0.002 A 
HETATM   19  C17 UNK     1      18.960   1.983  20.126  1.00  0.00     0.001 A 
HETATM   20  C12 UNK     1      19.076   2.532  18.849  1.00  0.00     0.009 A 
HETATM   21  C6  UNK     1      19.145   1.696  17.734  1.00  0.00    -0.035 A 
HETATM   22  C13 UNK     1      19.269   2.311  16.378  1.00  0.00     0.050 C 
ENDBRANCH  14  16
ENDBRANCH   4  12
TORSDOF 2
ENDMDL
MODEL 9
REMARK VINA RESULT:      -8.3      3.846      6.772
REMARK  2 active torsions:
REMARK  status: ('A' for Active; 'I' for Inactive)
REMARK    1  A    between atoms: C3_7  and  N1_4 
REMARK       I    between atoms: C7_11  and  N1_4 
REMARK    2  A    between atoms: C2_6  and  C7_11 
ROOT
HETATM    1  O1  UNK     1      19.035   2.563  30.699  1.00  0.00    -0.274 OA
HETATM    2  O3  UNK     1      18.833   0.391  31.377  1.00  0.00    -0.259 OA
HETATM    3  C1  UNK     1      18.331   4.355  32.184  1.00  0.00    -0.001 A 
HETATM    4  C2  UNK     1      18.115   2.052  32.906  1.00  0.00     0.108 A 
HETATM    5  C4  UNK     1      18.865   3.935  30.970  1.00  0.00     0.089 A 
HETATM    6  C5  UNK     1      17.951   3.354  33.169  1.00  0.00     0.037 A 
HETATM    7  C8  UNK     1      18.178   5.724  32.415  1.00  0.00     0.014 A 
HETATM    8  C9  UNK     1      18.681   1.583  31.621  1.00  0.00     0.304 A 
HETATM    9  C11 UNK     1      19.248   4.842  29.983  1.00  0.00     0.038 A 
HETATM   10  C14 UNK     1      18.559   6.646  31.437  1.00  0.00     0.001 A 
HETATM   11  C15 UNK     1      19.093   6.206  30.223  1.00  0.00     0.003 A 
ENDROOT
BRANCH   4  12
HETATM   12  C7  UNK     1      17.701   1.120  33.961  1.00  0.00     0.262 C 
HETATM   13  O2  UNK     1      16.517   0.800  34.057  1.00  0.00    -0.267 OA
HETATM   14  N1  UNK     1      18.774   0.715  34.743  1.00  0.00    -0.322 N 
HETATM   15  H2  UNK     1      19.697   1.065  34.507  1.00  0.00     0.169 HD
BRANCH  14  16
HETATM   16  C3  UNK     1      18.717  -0.166  35.828  1.00  0.00     0.041 A 
HETATM   17  C10 UNK     1      19.234  -1.453  35.684  1.00  0.00     0.030 A 
HETATM   18  C16 UNK     1      19.186  -2.346  36.755  1.00  0.00     0.002 A 
HETATM   19  C17 UNK     1      18.621  -1.951  37.968  1.00  0.00     0.001 A 
HETATM   20  C12 UNK     1      18.104  -0.664  38.110  1.00  0.00     0.009 A 
HETATM   21  C6  UNK     1      18.152   0.230  37.040  1.00  0.00    -0.035 A 
HETATM   22  C13 UNK     1      17.591   1.602  37.221  1.00  0.00     0.050 C 
ENDBRANCH  14  16
ENDBRANCH   4  12
TORSDOF 2
ENDMDL
MODEL 10
REMARK VINA RESULT:      -8.3     13.663     17.700
REMARK  2 active torsions:
REMARK  status: ('A' for Active; 'I' for Inactive)
REMARK    1  A    between atoms: C3_7  and  N1_4 
REMARK       I    between atoms: C7_11  and  N1_4 
REMARK    2  A    between atoms: C2_6  and  C7_11 
ROOT
HETATM    1  O1  UNK     1      19.375   1.254  15.622  1.00  0.00    -0.274 OA
HETATM    2  O3  UNK     1      19.478  -0.254  13.909  1.00  0.00    -0.259 OA
HETATM    3  C1  UNK     1      18.919   0.477  17.880  1.00  0.00    -0.001 A 
HETATM    4  C2  UNK     1      19.028  -1.125  16.065  1.00  0.00     0.108 A 
HETATM    5  C4  UNK     1      19.182   1.515  16.993  1.00  0.00     0.089 A 
HETATM    6  C5  UNK     1      18.845  -0.884  17.369  1.00  0.00     0.037 A 
HETATM    7  C8  UNK     1      18.735   0.776  19.232  1.00  0.00     0.014 A 
HETATM    8  C9  UNK     1      19.310  -0.036  15.104  1.00  0.00     0.304 A 
HETATM    9  C11 UNK     1      19.266   2.840  17.417  1.00  0.00     0.038 A 
HETATM   10  C14 UNK     1      18.816   2.099  19.673  1.00  0.00     0.001 A 
HETATM   11  C15 UNK     1      19.081   3.130  18.768  1.00  0.00     0.003 A 
ENDROOT
BRANCH   4  12
HETATM   12  C7  UNK     1      18.933  -2.529  15.647  1.00  0.00     0.262 C 
HETATM   13  O2  UNK     1      17.897  -3.156  15.861  1.00  0.00    -0.267 OA
HETATM   14  N1  UNK     1      20.099  -2.966  15.034  1.00  0.00    -0.322 N 
HETATM   15  H2  UNK     1      20.857  -2.301  14.920  1.00  0.00     0.169 HD
BRANCH  14  16
HETATM   16  C3  UNK     1      20.332  -4.247  14.524  1.00  0.00     0.041 A 
HETATM   17  C10 UNK     1      20.818  -5.239  15.375  1.00  0.00     0.030 A 
HETATM   18  C16 UNK     1      21.056  -6.522  14.885  1.00  0.00     0.002 A 
HETATM   19  C17 UNK     1      20.808  -6.814  13.544  1.00  0.00     0.001 A 
HETATM   20  C12 UNK     1      20.322  -5.822  12.693  1.00  0.00     0.009 A 
HETATM   21  C6  UNK     1      20.083  -4.537  13.183  1.00  0.00    -0.035 A 
HETATM   22  C13 UNK     1      19.562  -3.494  12.249  1.00  0.00     0.050 C 
ENDBRANCH  14  16
ENDBRANCH   4  12
TORSDOF 2
ENDMDL
