MODEL 1
REMARK VINA RESULT:      -8.0      0.000      0.000
REMARK  4 active torsions:
REMARK  status: ('A' for Active; 'I' for Inactive)
REMARK    1  A    between atoms: C6_11  and  O2_2 
REMARK    2  A    between atoms: C10_15  and  O4_4 
REMARK    3  A    between atoms: C15_20  and  O5_5 
REMARK    4  A    between atoms: C2_7  and  C5_10 
ROOT
HETATM    1  O1  UNK     1      11.099   8.086   9.774  1.00  0.00    -0.321 OA
HETATM    2  O3  UNK     1      13.753   7.319   6.773  1.00  0.00    -0.286 OA
HETATM    3  C1  UNK     1      11.557   7.120   7.596  1.00  0.00     0.082 A 
HETATM    4  C2  UNK     1      13.347   8.329   8.890  1.00  0.00     0.048 A 
HETATM    5  C3  UNK     1      10.697   7.401   8.657  1.00  0.00     0.094 A 
HETATM    6  C4  UNK     1      12.958   7.570   7.669  1.00  0.00     0.200 A 
HETATM    7  C6  UNK     1      11.092   6.416   6.481  1.00  0.00     0.085 A 
HETATM    8  C7  UNK     1      12.401   8.520   9.821  1.00  0.00     0.159 A 
HETATM    9  C8  UNK     1       9.367   6.979   8.610  1.00  0.00     0.074 A 
HETATM   10  C9  UNK     1       9.762   5.996   6.437  1.00  0.00     0.074 A 
HETATM   11  C10 UNK     1       8.901   6.277   7.499  1.00  0.00     0.071 A 
ENDROOT
BRANCH   4  12
HETATM   12  C5  UNK     1      14.704   8.869   9.073  1.00  0.00    -0.020 A 
HETATM   13  C11 UNK     1      15.049  10.101   8.516  1.00  0.00     0.015 A 
HETATM   14  C13 UNK     1      16.335  10.614   8.689  1.00  0.00     0.037 A 
HETATM   15  C15 UNK     1      17.279   9.894   9.422  1.00  0.00     0.065 A 
HETATM   16  C14 UNK     1      16.936   8.662   9.980  1.00  0.00     0.037 A 
HETATM   17  C12 UNK     1      15.651   8.150   9.806  1.00  0.00     0.015 A 
BRANCH  15  18
HETATM   18  O5  UNK     1      18.533  10.394   9.593  1.00  0.00    -0.361 OA
HETATM   19  H10 UNK     1      19.031   9.800  10.181  1.00  0.00     0.217 HD
ENDBRANCH  15  18
ENDBRANCH   4  12
BRANCH   7  20
HETATM   20  O2  UNK     1      11.888   6.116   5.418  1.00  0.00    -0.360 OA
HETATM   21  H8  UNK     1      12.256   5.224   5.507  1.00  0.00     0.217 HD
ENDBRANCH   7  20
BRANCH  11  22
HETATM   22  O4  UNK     1       7.605   5.864   7.449  1.00  0.00    -0.361 OA
HETATM   23  H9  UNK     1       7.070   6.434   8.029  1.00  0.00     0.217 HD
ENDBRANCH  11  22
TORSDOF 4
ENDMDL
MODEL 2
REMARK VINA RESULT:      -7.7     12.428     14.205
REMARK  4 active torsions:
REMARK  status: ('A' for Active; 'I' for Inactive)
REMARK    1  A    between atoms: C6_11  and  O2_2 
REMARK    2  A    between atoms: C10_15  and  O4_4 
REMARK    3  A    between atoms: C15_20  and  O5_5 
REMARK    4  A    between atoms: C2_7  and  C5_10 
ROOT
HETATM    1  O1  UNK     1      18.937  -1.110  18.551  1.00  0.00    -0.321 OA
HETATM    2  O3  UNK     1      19.124   1.345  15.299  1.00  0.00    -0.286 OA
HETATM    3  C1  UNK     1      19.079   1.135  17.643  1.00  0.00     0.082 A 
HETATM    4  C2  UNK     1      19.036  -0.882  16.136  1.00  0.00     0.048 A 
HETATM    5  C3  UNK     1      19.002   0.249  18.717  1.00  0.00     0.094 A 
HETATM    6  C4  UNK     1      19.087   0.600  16.270  1.00  0.00     0.200 A 
HETATM    7  C6  UNK     1      19.142   2.513  17.871  1.00  0.00     0.085 A 
HETATM    8  C7  UNK     1      18.968  -1.599  17.268  1.00  0.00     0.159 A 
HETATM    9  C8  UNK     1      18.987   0.735  20.025  1.00  0.00     0.074 A 
HETATM   10  C9  UNK     1      19.127   2.996  19.180  1.00  0.00     0.074 A 
HETATM   11  C10 UNK     1      19.050   2.109  20.255  1.00  0.00     0.071 A 
ENDROOT
BRANCH   4  12
HETATM   12  C5  UNK     1      19.078  -1.548  14.824  1.00  0.00    -0.020 A 
HETATM   13  C11 UNK     1      19.540  -0.859  13.702  1.00  0.00     0.015 A 
HETATM   14  C13 UNK     1      19.580  -1.490  12.459  1.00  0.00     0.037 A 
HETATM   15  C15 UNK     1      19.158  -2.814  12.336  1.00  0.00     0.065 A 
HETATM   16  C14 UNK     1      18.696  -3.505  13.456  1.00  0.00     0.037 A 
HETATM   17  C12 UNK     1      18.656  -2.874  14.699  1.00  0.00     0.015 A 
BRANCH  15  18
HETATM   18  O5  UNK     1      19.197  -3.431  11.123  1.00  0.00    -0.361 OA
HETATM   19  H10 UNK     1      19.844  -2.974  10.559  1.00  0.00     0.217 HD
ENDBRANCH  15  18
ENDBRANCH   4  12
BRANCH   7  20
HETATM   20  O2  UNK     1      19.219   3.422  16.860  1.00  0.00    -0.360 OA
HETATM   21  H8  UNK     1      18.415   3.962  16.823  1.00  0.00     0.217 HD
ENDBRANCH   7  20
BRANCH  11  22
HETATM   22  O4  UNK     1      19.037   2.587  21.530  1.00  0.00    -0.361 OA
HETATM   23  H9  UNK     1      18.208   2.313  21.960  1.00  0.00     0.217 HD
ENDBRANCH  11  22
TORSDOF 4
ENDMDL
MODEL 3
REMARK VINA RESULT:      -7.7     23.108     25.107
REMARK  4 active torsions:
REMARK  status: ('A' for Active; 'I' for Inactive)
REMARK    1  A    between atoms: C6_11  and  O2_2 
REMARK    2  A    between atoms: C10_15  and  O4_4 
REMARK    3  A    between atoms: C15_20  and  O5_5 
REMARK    4  A    between atoms: C2_7  and  C5_10 
ROOT
HETATM    1  O1  UNK     1      18.023   9.360  33.878  1.00  0.00    -0.321 OA
HETATM    2  O3  UNK     1      15.206   7.147  31.928  1.00  0.00    -0.286 OA
HETATM    3  C1  UNK     1      15.718   9.075  33.178  1.00  0.00     0.082 A 
HETATM    4  C2  UNK     1      17.491   7.402  32.545  1.00  0.00     0.048 A 
HETATM    5  C3  UNK     1      16.720   9.784  33.838  1.00  0.00     0.094 A 
HETATM    6  C4  UNK     1      16.061   7.815  32.494  1.00  0.00     0.200 A 
HETATM    7  C6  UNK     1      14.405   9.555  33.170  1.00  0.00     0.085 A 
HETATM    8  C7  UNK     1      18.336   8.196  33.220  1.00  0.00     0.159 A 
HETATM    9  C8  UNK     1      16.416  10.977  34.496  1.00  0.00     0.074 A 
HETATM   10  C9  UNK     1      14.103  10.747  33.828  1.00  0.00     0.074 A 
HETATM   11  C10 UNK     1      15.107  11.458  34.489  1.00  0.00     0.071 A 
ENDROOT
BRANCH   4  12
HETATM   12  C5  UNK     1      17.975   6.186  31.872  1.00  0.00    -0.020 A 
HETATM   13  C11 UNK     1      18.636   6.279  30.646  1.00  0.00     0.015 A 
HETATM   14  C13 UNK     1      19.096   5.127  30.008  1.00  0.00     0.037 A 
HETATM   15  C15 UNK     1      18.897   3.878  30.597  1.00  0.00     0.065 A 
HETATM   16  C14 UNK     1      18.238   3.782  31.823  1.00  0.00     0.037 A 
HETATM   17  C12 UNK     1      17.778   4.934  32.460  1.00  0.00     0.015 A 
BRANCH  15  18
HETATM   18  O5  UNK     1      19.346   2.753  29.976  1.00  0.00    -0.361 OA
HETATM   19  H10 UNK     1      19.810   2.199  30.627  1.00  0.00     0.217 HD
ENDBRANCH  15  18
ENDBRANCH   4  12
BRANCH   7  20
HETATM   20  O2  UNK     1      13.389   8.903  32.540  1.00  0.00    -0.360 OA
HETATM   21  H8  UNK     1      13.737   8.256  31.908  1.00  0.00     0.217 HD
ENDBRANCH   7  20
BRANCH  11  22
HETATM   22  O4  UNK     1      14.806  12.621  35.129  1.00  0.00    -0.361 OA
HETATM   23  H9  UNK     1      15.160  13.366  34.613  1.00  0.00     0.217 HD
ENDBRANCH  11  22
TORSDOF 4
ENDMDL
MODEL 4
REMARK VINA RESULT:      -7.4     22.954     24.983
REMARK  4 active torsions:
REMARK  status: ('A' for Active; 'I' for Inactive)
REMARK    1  A    between atoms: C6_11  and  O2_2 
REMARK    2  A    between atoms: C10_15  and  O4_4 
REMARK    3  A    between atoms: C15_20  and  O5_5 
REMARK    4  A    between atoms: C2_7  and  C5_10 
ROOT
HETATM    1  O1  UNK     1      18.410   4.053  33.594  1.00  0.00    -0.321 OA
HETATM    2  O3  UNK     1      19.075   6.816  30.667  1.00  0.00    -0.286 OA
HETATM    3  C1  UNK     1      18.708   4.562  31.240  1.00  0.00     0.082 A 
HETATM    4  C2  UNK     1      18.739   6.380  32.984  1.00  0.00     0.048 A 
HETATM    5  C3  UNK     1      18.493   3.661  32.283  1.00  0.00     0.094 A 
HETATM    6  C4  UNK     1      18.856   5.996  31.550  1.00  0.00     0.200 A 
HETATM    7  C6  UNK     1      18.785   4.106  29.921  1.00  0.00     0.085 A 
HETATM    8  C7  UNK     1      18.528   5.393  33.868  1.00  0.00     0.159 A 
HETATM    9  C8  UNK     1      18.355   2.299  32.013  1.00  0.00     0.074 A 
HETATM   10  C9  UNK     1      18.646   2.744  29.654  1.00  0.00     0.074 A 
HETATM   11  C10 UNK     1      18.431   1.842  30.697  1.00  0.00     0.071 A 
ENDROOT
BRANCH   4  12
HETATM   12  C5  UNK     1      18.829   7.781  33.425  1.00  0.00    -0.020 A 
HETATM   13  C11 UNK     1      20.012   8.265  33.986  1.00  0.00     0.015 A 
HETATM   14  C13 UNK     1      20.098   9.593  34.404  1.00  0.00     0.037 A 
HETATM   15  C15 UNK     1      18.999  10.441  34.261  1.00  0.00     0.065 A 
HETATM   16  C14 UNK     1      17.816   9.959  33.701  1.00  0.00     0.037 A 
HETATM   17  C12 UNK     1      17.730   8.632  33.283  1.00  0.00     0.015 A 
BRANCH  15  18
HETATM   18  O5  UNK     1      19.082  11.737  34.667  1.00  0.00    -0.361 OA
HETATM   19  H10 UNK     1      19.987  12.058  34.512  1.00  0.00     0.217 HD
ENDBRANCH  15  18
ENDBRANCH   4  12
BRANCH   7  20
HETATM   20  O2  UNK     1      18.991   4.943  28.866  1.00  0.00    -0.360 OA
HETATM   21  H8  UNK     1      19.638   4.564  28.251  1.00  0.00     0.217 HD
ENDBRANCH   7  20
BRANCH  11  22
HETATM   22  O4  UNK     1      18.296   0.514  30.430  1.00  0.00    -0.361 OA
HETATM   23  H9  UNK     1      17.350   0.289  30.417  1.00  0.00     0.217 HD
ENDBRANCH  11  22
TORSDOF 4
ENDMDL
MODEL 5
REMARK VINA RESULT:      -7.4      3.446      8.152
REMARK  4 active torsions:
REMARK  status: ('A' for Active; 'I' for Inactive)
REMARK    1  A    between atoms: C6_11  and  O2_2 
REMARK    2  A    between atoms: C10_15  and  O4_4 
REMARK    3  A    between atoms: C15_20  and  O5_5 
REMARK    4  A    between atoms: C2_7  and  C5_10 
ROOT
HETATM    1  O1  UNK     1       9.155   6.168   6.986  1.00  0.00    -0.321 OA
HETATM    2  O3  UNK     1       9.845   4.606  10.691  1.00  0.00    -0.286 OA
HETATM    3  C1  UNK     1      10.732   5.533   8.718  1.00  0.00     0.082 A 
HETATM    4  C2  UNK     1       8.251   5.258   9.048  1.00  0.00     0.048 A 
HETATM    5  C3  UNK     1      10.438   6.048   7.456  1.00  0.00     0.094 A 
HETATM    6  C4  UNK     1       9.628   5.092   9.589  1.00  0.00     0.200 A 
HETATM    7  C6  UNK     1      12.060   5.433   9.144  1.00  0.00     0.085 A 
HETATM    8  C7  UNK     1       8.133   5.774   7.815  1.00  0.00     0.159 A 
HETATM    9  C8  UNK     1      11.468   6.467   6.614  1.00  0.00     0.074 A 
HETATM   10  C9  UNK     1      13.088   5.852   8.300  1.00  0.00     0.074 A 
HETATM   11  C10 UNK     1      12.794   6.369   7.037  1.00  0.00     0.071 A 
ENDROOT
BRANCH   4  12
HETATM   12  C5  UNK     1       7.057   4.895   9.829  1.00  0.00    -0.020 A 
HETATM   13  C11 UNK     1       6.623   3.568   9.869  1.00  0.00     0.015 A 
HETATM   14  C13 UNK     1       5.492   3.223  10.610  1.00  0.00     0.037 A 
HETATM   15  C15 UNK     1       4.794   4.205  11.313  1.00  0.00     0.065 A 
HETATM   16  C14 UNK     1       5.226   5.531  11.275  1.00  0.00     0.037 A 
HETATM   17  C12 UNK     1       6.357   5.876  10.534  1.00  0.00     0.015 A 
BRANCH  15  18
HETATM   18  O5  UNK     1       3.691   3.869  12.037  1.00  0.00    -0.361 OA
HETATM   19  H10 UNK     1       3.694   2.908  12.186  1.00  0.00     0.217 HD
ENDBRANCH  15  18
ENDBRANCH   4  12
BRANCH   7  20
HETATM   20  O2  UNK     1      12.403   4.938  10.366  1.00  0.00    -0.360 OA
HETATM   21  H8  UNK     1      12.372   3.970  10.364  1.00  0.00     0.217 HD
ENDBRANCH   7  20
BRANCH  11  22
HETATM   22  O4  UNK     1      13.802   6.776   6.218  1.00  0.00    -0.361 OA
HETATM   23  H9  UNK     1      13.874   6.155   5.474  1.00  0.00     0.217 HD
ENDBRANCH  11  22
TORSDOF 4
ENDMDL
MODEL 6
REMARK VINA RESULT:      -7.4      4.230      6.982
REMARK  4 active torsions:
REMARK  status: ('A' for Active; 'I' for Inactive)
REMARK    1  A    between atoms: C6_11  and  O2_2 
REMARK    2  A    between atoms: C10_15  and  O4_4 
REMARK    3  A    between atoms: C15_20  and  O5_5 
REMARK    4  A    between atoms: C2_7  and  C5_10 
ROOT
HETATM    1  O1  UNK     1       6.359   4.515  10.234  1.00  0.00    -0.321 OA
HETATM    2  O3  UNK     1       8.352   8.068  10.020  1.00  0.00    -0.286 OA
HETATM    3  C1  UNK     1       6.697   6.766  11.073  1.00  0.00     0.082 A 
HETATM    4  C2  UNK     1       8.098   5.851   9.191  1.00  0.00     0.048 A 
HETATM    5  C3  UNK     1       6.043   5.535  11.093  1.00  0.00     0.094 A 
HETATM    6  C4  UNK     1       7.773   6.992  10.091  1.00  0.00     0.200 A 
HETATM    7  C6  UNK     1       6.332   7.772  11.973  1.00  0.00     0.085 A 
HETATM    8  C7  UNK     1       7.377   4.729   9.337  1.00  0.00     0.159 A 
HETATM    9  C8  UNK     1       5.019   5.303  12.012  1.00  0.00     0.074 A 
HETATM   10  C9  UNK     1       5.308   7.536  12.891  1.00  0.00     0.074 A 
HETATM   11  C10 UNK     1       4.653   6.304  12.911  1.00  0.00     0.071 A 
ENDROOT
BRANCH   4  12
HETATM   12  C5  UNK     1       9.175   5.929   8.191  1.00  0.00    -0.020 A 
HETATM   13  C11 UNK     1      10.506   5.770   8.580  1.00  0.00     0.015 A 
HETATM   14  C13 UNK     1      11.527   5.843   7.633  1.00  0.00     0.037 A 
HETATM   15  C15 UNK     1      11.219   6.076   6.293  1.00  0.00     0.065 A 
HETATM   16  C14 UNK     1       9.889   6.235   5.901  1.00  0.00     0.037 A 
HETATM   17  C12 UNK     1       8.868   6.161   6.848  1.00  0.00     0.015 A 
BRANCH  15  18
HETATM   18  O5  UNK     1      12.214   6.146   5.367  1.00  0.00    -0.361 OA
HETATM   19  H10 UNK     1      11.993   5.562   4.622  1.00  0.00     0.217 HD
ENDBRANCH  15  18
ENDBRANCH   4  12
BRANCH   7  20
HETATM   20  O2  UNK     1       6.939   8.991  11.998  1.00  0.00    -0.360 OA
HETATM   21  H8  UNK     1       6.908   9.371  12.889  1.00  0.00     0.217 HD
ENDBRANCH   7  20
BRANCH  11  22
HETATM   22  O4  UNK     1       3.654   6.081  13.809  1.00  0.00    -0.361 OA
HETATM   23  H9  UNK     1       3.572   6.858  14.389  1.00  0.00     0.217 HD
ENDBRANCH  11  22
TORSDOF 4
ENDMDL
MODEL 7
REMARK VINA RESULT:      -7.3     22.980     24.819
REMARK  4 active torsions:
REMARK  status: ('A' for Active; 'I' for Inactive)
REMARK    1  A    between atoms: C6_11  and  O2_2 
REMARK    2  A    between atoms: C10_15  and  O4_4 
REMARK    3  A    between atoms: C15_20  and  O5_5 
REMARK    4  A    between atoms: C2_7  and  C5_10 
ROOT
HETATM    1  O1  UNK     1      18.913   3.558  29.438  1.00  0.00    -0.321 OA
HETATM    2  O3  UNK     1      18.091   3.201  33.417  1.00  0.00    -0.286 OA
HETATM    3  C1  UNK     1      18.724   2.153  31.407  1.00  0.00     0.082 A 
HETATM    4  C2  UNK     1      18.310   4.634  31.529  1.00  0.00     0.048 A 
HETATM    5  C3  UNK     1      18.983   2.333  30.049  1.00  0.00     0.094 A 
HETATM    6  C4  UNK     1      18.355   3.320  32.228  1.00  0.00     0.200 A 
HETATM    7  C6  UNK     1      18.810   0.879  31.977  1.00  0.00     0.085 A 
HETATM    8  C7  UNK     1      18.590   4.642  30.217  1.00  0.00     0.159 A 
HETATM    9  C8  UNK     1      19.329   1.241  29.252  1.00  0.00     0.074 A 
HETATM   10  C9  UNK     1      19.156  -0.211  31.178  1.00  0.00     0.074 A 
HETATM   11  C10 UNK     1      19.416  -0.031  29.818  1.00  0.00     0.071 A 
ENDROOT
BRANCH   4  12
HETATM   12  C5  UNK     1      17.994   5.884  32.239  1.00  0.00    -0.020 A 
HETATM   13  C11 UNK     1      16.665   6.275  32.413  1.00  0.00     0.015 A 
HETATM   14  C13 UNK     1      16.365   7.459  33.087  1.00  0.00     0.037 A 
HETATM   15  C15 UNK     1      17.394   8.255  33.588  1.00  0.00     0.065 A 
HETATM   16  C14 UNK     1      18.723   7.867  33.416  1.00  0.00     0.037 A 
HETATM   17  C12 UNK     1      19.023   6.683  32.743  1.00  0.00     0.015 A 
BRANCH  15  18
HETATM   18  O5  UNK     1      17.102   9.410  34.247  1.00  0.00    -0.361 OA
HETATM   19  H10 UNK     1      17.892   9.978  34.250  1.00  0.00     0.217 HD
ENDBRANCH  15  18
ENDBRANCH   4  12
BRANCH   7  20
HETATM   20  O2  UNK     1      18.569   0.648  33.297  1.00  0.00    -0.360 OA
HETATM   21  H8  UNK     1      17.959  -0.097  33.408  1.00  0.00     0.217 HD
ENDBRANCH   7  20
BRANCH  11  22
HETATM   22  O4  UNK     1      19.754  -1.099  29.044  1.00  0.00    -0.361 OA
HETATM   23  H9  UNK     1      19.644  -1.913  29.565  1.00  0.00     0.217 HD
ENDBRANCH  11  22
TORSDOF 4
ENDMDL
MODEL 8
REMARK VINA RESULT:      -7.3     23.028     24.648
REMARK  4 active torsions:
REMARK  status: ('A' for Active; 'I' for Inactive)
REMARK    1  A    between atoms: C6_11  and  O2_2 
REMARK    2  A    between atoms: C10_15  and  O4_4 
REMARK    3  A    between atoms: C15_20  and  O5_5 
REMARK    4  A    between atoms: C2_7  and  C5_10 
ROOT
HETATM    1  O1  UNK     1      17.887   3.589  33.359  1.00  0.00    -0.321 OA
HETATM    2  O3  UNK     1      19.107   3.616  29.466  1.00  0.00    -0.286 OA
HETATM    3  C1  UNK     1      18.327   4.834  31.323  1.00  0.00     0.082 A 
HETATM    4  C2  UNK     1      18.741   2.353  31.450  1.00  0.00     0.048 A 
HETATM    5  C3  UNK     1      17.910   4.763  32.651  1.00  0.00     0.094 A 
HETATM    6  C4  UNK     1      18.761   3.602  30.640  1.00  0.00     0.200 A 
HETATM    7  C6  UNK     1      18.328   6.060  30.650  1.00  0.00     0.085 A 
HETATM    8  C7  UNK     1      18.315   2.451  32.719  1.00  0.00     0.159 A 
HETATM    9  C8  UNK     1      17.490   5.917  33.315  1.00  0.00     0.074 A 
HETATM   10  C9  UNK     1      17.908   7.211  31.317  1.00  0.00     0.074 A 
HETATM   11  C10 UNK     1      17.490   7.141  32.646  1.00  0.00     0.071 A 
ENDROOT
BRANCH   4  12
HETATM   12  C5  UNK     1      19.185   1.061  30.903  1.00  0.00    -0.020 A 
HETATM   13  C11 UNK     1      19.455   0.933  29.539  1.00  0.00     0.015 A 
HETATM   14  C13 UNK     1      19.876  -0.291  29.020  1.00  0.00     0.037 A 
HETATM   15  C15 UNK     1      20.031  -1.390  29.865  1.00  0.00     0.065 A 
HETATM   16  C14 UNK     1      19.763  -1.264  31.228  1.00  0.00     0.037 A 
HETATM   17  C12 UNK     1      19.341  -0.040  31.747  1.00  0.00     0.015 A 
BRANCH  15  18
HETATM   18  O5  UNK     1      20.444  -2.585  29.360  1.00  0.00    -0.361 OA
HETATM   19  H10 UNK     1      20.920  -2.426  28.527  1.00  0.00     0.217 HD
ENDBRANCH  15  18
ENDBRANCH   4  12
BRANCH   7  20
HETATM   20  O2  UNK     1      18.727   6.185  29.354  1.00  0.00    -0.360 OA
HETATM   21  H8  UNK     1      19.502   6.764  29.289  1.00  0.00     0.217 HD
ENDBRANCH   7  20
BRANCH  11  22
HETATM   22  O4  UNK     1      17.082   8.268  33.291  1.00  0.00    -0.361 OA
HETATM   23  H9  UNK     1      17.397   9.045  32.797  1.00  0.00     0.217 HD
ENDBRANCH  11  22
TORSDOF 4
ENDMDL
MODEL 9
REMARK VINA RESULT:      -7.3     22.242     24.561
REMARK  4 active torsions:
REMARK  status: ('A' for Active; 'I' for Inactive)
REMARK    1  A    between atoms: C6_11  and  O2_2 
REMARK    2  A    between atoms: C10_15  and  O4_4 
REMARK    3  A    between atoms: C15_20  and  O5_5 
REMARK    4  A    between atoms: C2_7  and  C5_10 
ROOT
HETATM    1  O1  UNK     1      18.629   6.269  30.285  1.00  0.00    -0.321 OA
HETATM    2  O3  UNK     1      18.165   2.969  32.639  1.00  0.00    -0.286 OA
HETATM    3  C1  UNK     1      18.141   5.317  32.463  1.00  0.00     0.082 A 
HETATM    4  C2  UNK     1      18.600   3.848  30.469  1.00  0.00     0.048 A 
HETATM    5  C3  UNK     1      18.322   6.408  31.614  1.00  0.00     0.094 A 
HETATM    6  C4  UNK     1      18.287   3.954  31.921  1.00  0.00     0.200 A 
HETATM    7  C6  UNK     1      17.830   5.518  33.811  1.00  0.00     0.085 A 
HETATM    8  C7  UNK     1      18.741   4.994  29.786  1.00  0.00     0.159 A 
HETATM    9  C8  UNK     1      18.195   7.707  32.107  1.00  0.00     0.074 A 
HETATM   10  C9  UNK     1      17.703   6.818  34.301  1.00  0.00     0.074 A 
HETATM   11  C10 UNK     1      17.884   7.910  33.452  1.00  0.00     0.071 A 
ENDROOT
BRANCH   4  12
HETATM   12  C5  UNK     1      18.733   2.547  29.793  1.00  0.00    -0.020 A 
HETATM   13  C11 UNK     1      17.880   2.213  28.740  1.00  0.00     0.015 A 
HETATM   14  C13 UNK     1      18.006   0.981  28.098  1.00  0.00     0.037 A 
HETATM   15  C15 UNK     1      18.988   0.079  28.510  1.00  0.00     0.065 A 
HETATM   16  C14 UNK     1      19.842   0.410  29.562  1.00  0.00     0.037 A 
HETATM   17  C12 UNK     1      19.715   1.642  30.203  1.00  0.00     0.015 A 
BRANCH  15  18
HETATM   18  O5  UNK     1      19.113  -1.123  27.884  1.00  0.00    -0.361 OA
HETATM   19  H10 UNK     1      19.680  -1.700  28.423  1.00  0.00     0.217 HD
ENDBRANCH  15  18
ENDBRANCH   4  12
BRANCH   7  20
HETATM   20  O2  UNK     1      17.642   4.489  34.682  1.00  0.00    -0.360 OA
HETATM   21  H8  UNK     1      18.473   4.013  34.834  1.00  0.00     0.217 HD
ENDBRANCH   7  20
BRANCH  11  22
HETATM   22  O4  UNK     1      17.758   9.176  33.937  1.00  0.00    -0.361 OA
HETATM   23  H9  UNK     1      16.824   9.338  34.156  1.00  0.00     0.217 HD
ENDBRANCH  11  22
TORSDOF 4
ENDMDL
MODEL 10
REMARK VINA RESULT:      -7.3     12.280     14.578
REMARK  4 active torsions:
REMARK  status: ('A' for Active; 'I' for Inactive)
REMARK    1  A    between atoms: C6_11  and  O2_2 
REMARK    2  A    between atoms: C10_15  and  O4_4 
REMARK    3  A    between atoms: C15_20  and  O5_5 
REMARK    4  A    between atoms: C2_7  and  C5_10 
ROOT
HETATM    1  O1  UNK     1      19.593   1.286  15.186  1.00  0.00    -0.321 OA
HETATM    2  O3  UNK     1      18.411  -1.660  17.748  1.00  0.00    -0.286 OA
HETATM    3  C1  UNK     1      18.994   0.599  17.434  1.00  0.00     0.082 A 
HETATM    4  C2  UNK     1      18.940  -1.030  15.514  1.00  0.00     0.048 A 
HETATM    5  C3  UNK     1      19.407   1.563  16.516  1.00  0.00     0.094 A 
HETATM    6  C4  UNK     1      18.746  -0.778  16.968  1.00  0.00     0.200 A 
HETATM    7  C6  UNK     1      18.821   0.938  18.780  1.00  0.00     0.085 A 
HETATM    8  C7  UNK     1      19.339   0.005  14.759  1.00  0.00     0.159 A 
HETATM    9  C8  UNK     1      19.652   2.870  16.936  1.00  0.00     0.074 A 
HETATM   10  C9  UNK     1      19.066   2.246  19.197  1.00  0.00     0.074 A 
HETATM   11  C10 UNK     1      19.480   3.211  18.278  1.00  0.00     0.071 A 
ENDROOT
BRANCH   4  12
HETATM   12  C5  UNK     1      18.691  -2.349  14.911  1.00  0.00    -0.020 A 
HETATM   13  C11 UNK     1      17.946  -3.306  15.603  1.00  0.00     0.015 A 
HETATM   14  C13 UNK     1      17.709  -4.557  15.032  1.00  0.00     0.037 A 
HETATM   15  C15 UNK     1      18.215  -4.852  13.766  1.00  0.00     0.065 A 
HETATM   16  C14 UNK     1      18.959  -3.897  13.073  1.00  0.00     0.037 A 
HETATM   17  C12 UNK     1      19.197  -2.647  13.644  1.00  0.00     0.015 A 
BRANCH  15  18
HETATM   18  O5  UNK     1      17.983  -6.071  13.208  1.00  0.00    -0.361 OA
HETATM   19  H10 UNK     1      18.831  -6.538  13.107  1.00  0.00     0.217 HD
ENDBRANCH  15  18
ENDBRANCH   4  12
BRANCH   7  20
HETATM   20  O2  UNK     1      18.418   0.036  19.718  1.00  0.00    -0.360 OA
HETATM   21  H8  UNK     1      17.477   0.152  19.921  1.00  0.00     0.217 HD
ENDBRANCH   7  20
BRANCH  11  22
HETATM   22  O4  UNK     1      19.717   4.486  18.692  1.00  0.00    -0.361 OA
HETATM   23  H9  UNK     1      20.662   4.685  18.575  1.00  0.00     0.217 HD
ENDBRANCH  11  22
TORSDOF 4
ENDMDL
