MODEL 1
REMARK VINA RESULT:     -10.2      0.000      0.000
REMARK  4 active torsions:
REMARK  status: ('A' for Active; 'I' for Inactive)
REMARK       I    between atoms: C13_20  and  N2_7 
REMARK    1  A    between atoms: C6_13  and  N2_7 
REMARK    2  A    between atoms: C1_8  and  C4_11 
REMARK    3  A    between atoms: C4_11  and  C6_13 
REMARK    4  A    between atoms: C13_20  and  C14_21 
ROOT
HETATM    1  O2  UNK     1      17.572   2.153  29.722  1.00  0.00    -0.267 OA
HETATM    2  N2  UNK     1      19.140   3.584  30.686  1.00  0.00    -0.356 N 
HETATM    3  C13 UNK     1      18.364   2.440  30.617  1.00  0.00     0.257 C 
HETATM    4  H12 UNK     1      19.791   3.713  31.454  1.00  0.00     0.162 HD
ENDROOT
BRANCH   2   5
HETATM    5  C6  UNK     1      19.113   4.616  29.675  1.00  0.00     0.127 C 
BRANCH   5   6
HETATM    6  C4  UNK     1      19.826   5.891  30.118  1.00  0.00     0.061 C 
BRANCH   6   7
HETATM    7  C1  UNK     1      19.431   6.346  31.494  1.00  0.00    -0.022 A 
HETATM    8  C2  UNK     1      18.139   6.758  31.879  1.00  0.00    -0.001 A 
HETATM    9  C3  UNK     1      18.222   7.094  33.231  1.00  0.00     0.049 A 
HETATM   10  C8  UNK     1      16.899   6.885  31.223  1.00  0.00     0.014 A 
HETATM   11  N1  UNK     1      19.525   6.883  33.622  1.00  0.00    -0.358 N 
HETATM   12  C7  UNK     1      17.121   7.553  33.964  1.00  0.00    -0.034 A 
HETATM   13  C5  UNK     1      20.267   6.427  32.566  1.00  0.00     0.013 A 
HETATM   14  H3  UNK     1      19.883   7.041  34.554  1.00  0.00     0.166 HD
HETATM   15  C9  UNK     1      21.702   6.122  32.721  1.00  0.00     0.068 C 
HETATM   16  C10 UNK     1      15.901   7.670  33.293  1.00  0.00     0.009 A 
HETATM   17  C12 UNK     1      17.205   7.913  35.410  1.00  0.00     0.050 C 
HETATM   18  C11 UNK     1      15.789   7.342  31.944  1.00  0.00     0.002 A 
ENDBRANCH   6   7
ENDBRANCH   5   6
ENDBRANCH   2   5
BRANCH   3  19
HETATM   19  C14 UNK     1      18.570   1.541  31.758  1.00  0.00     0.108 A 
HETATM   20  C18 UNK     1      19.233   0.225  31.613  1.00  0.00     0.304 A 
HETATM   21  O1  UNK     1      19.370  -0.537  32.769  1.00  0.00    -0.272 OA
HETATM   22  O3  UNK     1      19.645  -0.177  30.530  1.00  0.00    -0.259 OA
HETATM   23  C17 UNK     1      18.900  -0.084  34.018  1.00  0.00     0.111 A 
HETATM   24  C15 UNK     1      18.279   1.155  34.133  1.00  0.00     0.002 A 
HETATM   25  C20 UNK     1      19.082  -0.918  35.120  1.00  0.00     0.070 A 
HETATM   26  C19 UNK     1      17.827   1.570  35.387  1.00  0.00     0.038 A 
HETATM   27  C16 UNK     1      18.122   1.977  32.942  1.00  0.00     0.037 A 
HETATM   28  C21 UNK     1      18.002   0.744  36.502  1.00  0.00     0.036 A 
HETATM   29  C22 UNK     1      18.629  -0.497  36.368  1.00  0.00     0.050 A 
HETATM   30 Cl2  UNK     1      17.443   1.259  38.046  1.00  0.00    -0.084 Cl
HETATM   31 Cl1  UNK     1      19.851  -2.454  34.978  1.00  0.00    -0.081 Cl
ENDBRANCH   3  19
TORSDOF 4
ENDMDL
MODEL 2
REMARK VINA RESULT:     -10.1      1.689      2.948
REMARK  4 active torsions:
REMARK  status: ('A' for Active; 'I' for Inactive)
REMARK       I    between atoms: C13_20  and  N2_7 
REMARK    1  A    between atoms: C6_13  and  N2_7 
REMARK    2  A    between atoms: C1_8  and  C4_11 
REMARK    3  A    between atoms: C4_11  and  C6_13 
REMARK    4  A    between atoms: C13_20  and  C14_21 
ROOT
HETATM    1  O2  UNK     1      18.119   2.195  28.790  1.00  0.00    -0.267 OA
HETATM    2  N2  UNK     1      19.117   3.683  30.281  1.00  0.00    -0.356 N 
HETATM    3  C13 UNK     1      18.666   2.444  29.863  1.00  0.00     0.257 C 
HETATM    4  H12 UNK     1      19.587   3.779  31.176  1.00  0.00     0.162 HD
ENDROOT
BRANCH   2   5
HETATM    5  C6  UNK     1      18.996   4.879  29.479  1.00  0.00     0.127 C 
BRANCH   5   6
HETATM    6  C4  UNK     1      19.803   6.047  30.039  1.00  0.00     0.061 C 
BRANCH   6   7
HETATM    7  C1  UNK     1      19.390   6.442  31.428  1.00  0.00    -0.022 A 
HETATM    8  C2  UNK     1      18.107   6.885  31.805  1.00  0.00    -0.001 A 
HETATM    9  C3  UNK     1      18.168   7.142  33.176  1.00  0.00     0.049 A 
HETATM   10  C8  UNK     1      16.889   7.098  31.129  1.00  0.00     0.014 A 
HETATM   11  N1  UNK     1      19.452   6.857  33.585  1.00  0.00    -0.358 N 
HETATM   12  C7  UNK     1      17.068   7.604  33.907  1.00  0.00    -0.034 A 
HETATM   13  C5  UNK     1      20.202   6.430  32.522  1.00  0.00     0.013 A 
HETATM   14  H3  UNK     1      19.793   6.949  34.532  1.00  0.00     0.166 HD
HETATM   15  C9  UNK     1      21.619   6.059  32.693  1.00  0.00     0.068 C 
HETATM   16  C10 UNK     1      15.871   7.808  33.216  1.00  0.00     0.009 A 
HETATM   17  C12 UNK     1      17.130   7.881  35.373  1.00  0.00     0.050 C 
HETATM   18  C11 UNK     1      15.780   7.559  31.848  1.00  0.00     0.002 A 
ENDBRANCH   6   7
ENDBRANCH   5   6
ENDBRANCH   2   5
BRANCH   3  19
HETATM   19  C14 UNK     1      18.904   1.386  30.850  1.00  0.00     0.108 A 
HETATM   20  C18 UNK     1      18.423   1.491  32.246  1.00  0.00     0.304 A 
HETATM   21  O1  UNK     1      18.711   0.422  33.090  1.00  0.00    -0.272 OA
HETATM   22  O3  UNK     1      17.799   2.469  32.646  1.00  0.00    -0.259 OA
HETATM   23  C17 UNK     1      19.426  -0.706  32.641  1.00  0.00     0.111 A 
HETATM   24  C15 UNK     1      19.870  -0.785  31.325  1.00  0.00     0.002 A 
HETATM   25  C20 UNK     1      19.667  -1.727  33.559  1.00  0.00     0.070 A 
HETATM   26  C19 UNK     1      20.575  -1.920  30.918  1.00  0.00     0.038 A 
HETATM   27  C16 UNK     1      19.584   0.316  30.419  1.00  0.00     0.037 A 
HETATM   28  C21 UNK     1      20.825  -2.952  31.827  1.00  0.00     0.036 A 
HETATM   29  C22 UNK     1      20.371  -2.856  33.144  1.00  0.00     0.050 A 
HETATM   30 Cl2  UNK     1      21.696  -4.348  31.321  1.00  0.00    -0.084 Cl
HETATM   31 Cl1  UNK     1      19.118  -1.630  35.190  1.00  0.00    -0.081 Cl
ENDBRANCH   3  19
TORSDOF 4
ENDMDL
MODEL 3
REMARK VINA RESULT:      -9.6      6.497     11.945
REMARK  4 active torsions:
REMARK  status: ('A' for Active; 'I' for Inactive)
REMARK       I    between atoms: C13_20  and  N2_7 
REMARK    1  A    between atoms: C6_13  and  N2_7 
REMARK    2  A    between atoms: C1_8  and  C4_11 
REMARK    3  A    between atoms: C4_11  and  C6_13 
REMARK    4  A    between atoms: C13_20  and  C14_21 
ROOT
HETATM    1  O2  UNK     1      21.118  -3.307  36.395  1.00  0.00    -0.267 OA
HETATM    2  N2  UNK     1      18.951  -4.092  36.044  1.00  0.00    -0.356 N 
HETATM    3  C13 UNK     1      20.021  -3.237  35.845  1.00  0.00     0.257 C 
HETATM    4  H12 UNK     1      18.094  -3.968  35.514  1.00  0.00     0.162 HD
ENDROOT
BRANCH   2   5
HETATM    5  C6  UNK     1      18.997  -5.213  36.954  1.00  0.00     0.127 C 
BRANCH   5   6
HETATM    6  C4  UNK     1      18.391  -6.481  36.357  1.00  0.00     0.061 C 
BRANCH   6   7
HETATM    7  C1  UNK     1      19.419  -7.502  35.963  1.00  0.00    -0.022 A 
HETATM    8  C2  UNK     1      19.682  -8.704  36.651  1.00  0.00    -0.001 A 
HETATM    9  C3  UNK     1      20.704  -9.343  35.947  1.00  0.00     0.049 A 
HETATM   10  C8  UNK     1      19.160  -9.326  37.802  1.00  0.00     0.014 A 
HETATM   11  N1  UNK     1      21.028  -8.535  34.880  1.00  0.00    -0.358 N 
HETATM   12  C7  UNK     1      21.234 -10.577  36.339  1.00  0.00    -0.034 A 
HETATM   13  C5  UNK     1      20.247  -7.410  34.886  1.00  0.00     0.013 A 
HETATM   14  H3  UNK     1      21.739  -8.740  34.192  1.00  0.00     0.166 HD
HETATM   15  C9  UNK     1      20.395  -6.377  33.843  1.00  0.00     0.068 C 
HETATM   16  C10 UNK     1      20.701 -11.175  37.484  1.00  0.00     0.009 A 
HETATM   17  C12 UNK     1      22.328 -11.263  35.590  1.00  0.00     0.050 C 
HETATM   18  C11 UNK     1      19.680 -10.562  38.206  1.00  0.00     0.002 A 
ENDBRANCH   6   7
ENDBRANCH   5   6
ENDBRANCH   2   5
BRANCH   3  19
HETATM   19  C14 UNK     1      19.732  -2.178  34.871  1.00  0.00     0.108 A 
HETATM   20  C18 UNK     1      18.999  -0.947  35.243  1.00  0.00     0.304 A 
HETATM   21  O1  UNK     1      18.787  -0.015  34.230  1.00  0.00    -0.272 OA
HETATM   22  O3  UNK     1      18.598  -0.750  36.385  1.00  0.00    -0.259 OA
HETATM   23  C17 UNK     1      19.244  -0.231  32.915  1.00  0.00     0.111 A 
HETATM   24  C15 UNK     1      19.930  -1.395  32.586  1.00  0.00     0.002 A 
HETATM   25  C20 UNK     1      18.983   0.759  31.969  1.00  0.00     0.070 A 
HETATM   26  C19 UNK     1      20.367  -1.573  31.272  1.00  0.00     0.038 A 
HETATM   27  C16 UNK     1      20.169  -2.388  33.623  1.00  0.00     0.037 A 
HETATM   28  C21 UNK     1      20.113  -0.589  30.311  1.00  0.00     0.036 A 
HETATM   29  C22 UNK     1      19.423   0.575  30.659  1.00  0.00     0.050 A 
HETATM   30 Cl2  UNK     1      20.654  -0.812  28.692  1.00  0.00    -0.084 Cl
HETATM   31 Cl1  UNK     1      18.132   2.202  32.375  1.00  0.00    -0.081 Cl
ENDBRANCH   3  19
TORSDOF 4
ENDMDL
MODEL 4
REMARK VINA RESULT:      -9.5      5.536     10.593
REMARK  4 active torsions:
REMARK  status: ('A' for Active; 'I' for Inactive)
REMARK       I    between atoms: C13_20  and  N2_7 
REMARK    1  A    between atoms: C6_13  and  N2_7 
REMARK    2  A    between atoms: C1_8  and  C4_11 
REMARK    3  A    between atoms: C4_11  and  C6_13 
REMARK    4  A    between atoms: C13_20  and  C14_21 
ROOT
HETATM    1  O2  UNK     1      17.495  -0.985  36.577  1.00  0.00    -0.267 OA
HETATM    2  N2  UNK     1      19.305  -2.041  35.556  1.00  0.00    -0.356 N 
HETATM    3  C13 UNK     1      18.327  -1.069  35.676  1.00  0.00     0.257 C 
HETATM    4  H12 UNK     1      19.969  -2.004  34.788  1.00  0.00     0.162 HD
ENDROOT
BRANCH   2   5
HETATM    5  C6  UNK     1      19.474  -3.112  36.510  1.00  0.00     0.127 C 
BRANCH   5   6
HETATM    6  C4  UNK     1      19.783  -4.450  35.844  1.00  0.00     0.061 C 
BRANCH   6   7
HETATM    7  C1  UNK     1      19.636  -5.623  36.770  1.00  0.00    -0.022 A 
HETATM    8  C2  UNK     1      20.619  -6.082  37.670  1.00  0.00    -0.001 A 
HETATM    9  C3  UNK     1      20.067  -7.185  38.324  1.00  0.00     0.049 A 
HETATM   10  C8  UNK     1      21.927  -5.680  38.004  1.00  0.00     0.014 A 
HETATM   11  N1  UNK     1      18.799  -7.363  37.818  1.00  0.00    -0.358 N 
HETATM   12  C7  UNK     1      20.761  -7.909  39.299  1.00  0.00    -0.034 A 
HETATM   13  C5  UNK     1      18.531  -6.413  36.870  1.00  0.00     0.013 A 
HETATM   14  H3  UNK     1      18.157  -8.089  38.105  1.00  0.00     0.166 HD
HETATM   15  C9  UNK     1      17.232  -6.382  36.171  1.00  0.00     0.068 C 
HETATM   16  C10 UNK     1      22.057  -7.492  39.615  1.00  0.00     0.009 A 
HETATM   17  C12 UNK     1      20.175  -9.090  40.001  1.00  0.00     0.050 C 
HETATM   18  C11 UNK     1      22.633  -6.395  38.979  1.00  0.00     0.002 A 
ENDBRANCH   6   7
ENDBRANCH   5   6
ENDBRANCH   2   5
BRANCH   3  19
HETATM   19  C14 UNK     1      18.359  -0.088  34.586  1.00  0.00     0.108 A 
HETATM   20  C18 UNK     1      18.525  -0.491  33.171  1.00  0.00     0.304 A 
HETATM   21  O1  UNK     1      18.540   0.532  32.227  1.00  0.00    -0.272 OA
HETATM   22  O3  UNK     1      18.643  -1.666  32.841  1.00  0.00    -0.259 OA
HETATM   23  C17 UNK     1      18.404   1.885  32.595  1.00  0.00     0.111 A 
HETATM   24  C15 UNK     1      18.250   2.242  33.930  1.00  0.00     0.002 A 
HETATM   25  C20 UNK     1      18.431   2.838  31.579  1.00  0.00     0.070 A 
HETATM   26  C19 UNK     1      18.118   3.594  34.256  1.00  0.00     0.038 A 
HETATM   27  C16 UNK     1      18.230   1.196  34.941  1.00  0.00     0.037 A 
HETATM   28  C21 UNK     1      18.143   4.562  33.248  1.00  0.00     0.036 A 
HETATM   29  C22 UNK     1      18.299   4.185  31.912  1.00  0.00     0.050 A 
HETATM   30 Cl2  UNK     1      17.981   6.227  33.655  1.00  0.00    -0.084 Cl
HETATM   31 Cl1  UNK     1      18.623   2.396  29.924  1.00  0.00    -0.081 Cl
ENDBRANCH   3  19
TORSDOF 4
ENDMDL
MODEL 5
REMARK VINA RESULT:      -9.4      3.980      8.240
REMARK  4 active torsions:
REMARK  status: ('A' for Active; 'I' for Inactive)
REMARK       I    between atoms: C13_20  and  N2_7 
REMARK    1  A    between atoms: C6_13  and  N2_7 
REMARK    2  A    between atoms: C1_8  and  C4_11 
REMARK    3  A    between atoms: C4_11  and  C6_13 
REMARK    4  A    between atoms: C13_20  and  C14_21 
ROOT
HETATM    1  O2  UNK     1      17.905   3.957  32.428  1.00  0.00    -0.267 OA
HETATM    2  N2  UNK     1      18.574   3.901  34.660  1.00  0.00    -0.356 N 
HETATM    3  C13 UNK     1      18.175   4.518  33.488  1.00  0.00     0.257 C 
HETATM    4  H12 UNK     1      18.743   4.453  35.495  1.00  0.00     0.162 HD
ENDROOT
BRANCH   2   5
HETATM    5  C6  UNK     1      18.725   2.469  34.785  1.00  0.00     0.127 C 
BRANCH   5   6
HETATM    6  C4  UNK     1      17.838   1.698  33.810  1.00  0.00     0.061 C 
BRANCH   6   7
HETATM    7  C1  UNK     1      18.497   0.468  33.254  1.00  0.00    -0.022 A 
HETATM    8  C2  UNK     1      19.030   0.343  31.956  1.00  0.00    -0.001 A 
HETATM    9  C3  UNK     1      19.537  -0.954  31.863  1.00  0.00     0.049 A 
HETATM   10  C8  UNK     1      19.140   1.195  30.839  1.00  0.00     0.014 A 
HETATM   11  N1  UNK     1      19.304  -1.567  33.074  1.00  0.00    -0.358 N 
HETATM   12  C7  UNK     1      20.150  -1.445  30.705  1.00  0.00    -0.034 A 
HETATM   13  C5  UNK     1      18.669  -0.704  33.926  1.00  0.00     0.013 A 
HETATM   14  H3  UNK     1      19.564  -2.517  33.303  1.00  0.00     0.166 HD
HETATM   15  C9  UNK     1      18.305  -1.117  35.295  1.00  0.00     0.068 C 
HETATM   16  C10 UNK     1      20.249  -0.582  29.610  1.00  0.00     0.009 A 
HETATM   17  C12 UNK     1      20.693  -2.832  30.602  1.00  0.00     0.050 C 
HETATM   18  C11 UNK     1      19.752   0.718  29.674  1.00  0.00     0.002 A 
ENDBRANCH   6   7
ENDBRANCH   5   6
ENDBRANCH   2   5
BRANCH   3  19
HETATM   19  C14 UNK     1      18.093   5.978  33.610  1.00  0.00     0.108 A 
HETATM   20  C18 UNK     1      19.293   6.842  33.530  1.00  0.00     0.304 A 
HETATM   21  O1  UNK     1      19.086   8.213  33.661  1.00  0.00    -0.272 OA
HETATM   22  O3  UNK     1      20.415   6.380  33.355  1.00  0.00    -0.259 OA
HETATM   23  C17 UNK     1      17.801   8.754  33.862  1.00  0.00     0.111 A 
HETATM   24  C15 UNK     1      16.687   7.925  33.936  1.00  0.00     0.002 A 
HETATM   25  C20 UNK     1      17.694  10.139  33.982  1.00  0.00     0.070 A 
HETATM   26  C19 UNK     1      15.430   8.499  34.135  1.00  0.00     0.038 A 
HETATM   27  C16 UNK     1      16.870   6.488  33.801  1.00  0.00     0.037 A 
HETATM   28  C21 UNK     1      15.306   9.886  34.258  1.00  0.00     0.036 A 
HETATM   29  C22 UNK     1      16.436  10.704  34.181  1.00  0.00     0.050 A 
HETATM   30 Cl2  UNK     1      13.755  10.590  34.505  1.00  0.00    -0.084 Cl
HETATM   31 Cl1  UNK     1      19.074  11.168  33.892  1.00  0.00    -0.081 Cl
ENDBRANCH   3  19
TORSDOF 4
ENDMDL
MODEL 6
REMARK VINA RESULT:      -9.4      4.292      8.602
REMARK  4 active torsions:
REMARK  status: ('A' for Active; 'I' for Inactive)
REMARK       I    between atoms: C13_20  and  N2_7 
REMARK    1  A    between atoms: C6_13  and  N2_7 
REMARK    2  A    between atoms: C1_8  and  C4_11 
REMARK    3  A    between atoms: C4_11  and  C6_13 
REMARK    4  A    between atoms: C13_20  and  C14_21 
ROOT
HETATM    1  O2  UNK     1      20.057   6.613  32.356  1.00  0.00    -0.267 OA
HETATM    2  N2  UNK     1      18.210   5.386  31.636  1.00  0.00    -0.356 N 
HETATM    3  C13 UNK     1      18.844   6.475  32.206  1.00  0.00     0.257 C 
HETATM    4  H12 UNK     1      17.201   5.382  31.528  1.00  0.00     0.162 HD
ENDROOT
BRANCH   2   5
HETATM    5  C6  UNK     1      18.923   4.237  31.126  1.00  0.00     0.127 C 
BRANCH   5   6
HETATM    6  C4  UNK     1      18.009   3.038  30.883  1.00  0.00     0.061 C 
BRANCH   6   7
HETATM    7  C1  UNK     1      18.591   1.740  31.364  1.00  0.00    -0.022 A 
HETATM    8  C2  UNK     1      19.216   0.774  30.551  1.00  0.00    -0.001 A 
HETATM    9  C3  UNK     1      19.602  -0.263  31.402  1.00  0.00     0.049 A 
HETATM   10  C8  UNK     1      19.499   0.663  29.175  1.00  0.00     0.014 A 
HETATM   11  N1  UNK     1      19.213   0.091  32.674  1.00  0.00    -0.358 N 
HETATM   12  C7  UNK     1      20.260  -1.411  30.944  1.00  0.00    -0.034 A 
HETATM   13  C5  UNK     1      18.595   1.312  32.657  1.00  0.00     0.013 A 
HETATM   14  H3  UNK     1      19.361  -0.469  33.503  1.00  0.00     0.166 HD
HETATM   15  C9  UNK     1      18.081   1.921  33.898  1.00  0.00     0.068 C 
HETATM   16  C10 UNK     1      20.530  -1.499  29.576  1.00  0.00     0.009 A 
HETATM   17  C12 UNK     1      20.674  -2.522  31.851  1.00  0.00     0.050 C 
HETATM   18  C11 UNK     1      20.157  -0.479  28.703  1.00  0.00     0.002 A 
ENDBRANCH   6   7
ENDBRANCH   5   6
ENDBRANCH   2   5
BRANCH   3  19
HETATM   19  C14 UNK     1      17.908   7.516  32.645  1.00  0.00     0.108 A 
HETATM   20  C18 UNK     1      16.441   7.354  32.528  1.00  0.00     0.304 A 
HETATM   21  O1  UNK     1      15.657   8.412  32.979  1.00  0.00    -0.272 OA
HETATM   22  O3  UNK     1      15.936   6.339  32.059  1.00  0.00    -0.259 OA
HETATM   23  C17 UNK     1      16.227   9.581  33.520  1.00  0.00     0.111 A 
HETATM   24  C15 UNK     1      17.607   9.714  33.621  1.00  0.00     0.002 A 
HETATM   25  C20 UNK     1      15.360  10.586  33.945  1.00  0.00     0.070 A 
HETATM   26  C19 UNK     1      18.135  10.888  34.163  1.00  0.00     0.038 A 
HETATM   27  C16 UNK     1      18.455   8.625  33.159  1.00  0.00     0.037 A 
HETATM   28  C21 UNK     1      17.279  11.905  34.594  1.00  0.00     0.036 A 
HETATM   29  C22 UNK     1      15.894  11.755  34.486  1.00  0.00     0.050 A 
HETATM   30 Cl2  UNK     1      17.933  13.351  35.260  1.00  0.00    -0.084 Cl
HETATM   31 Cl1  UNK     1      13.649  10.423  33.820  1.00  0.00    -0.081 Cl
ENDBRANCH   3  19
TORSDOF 4
ENDMDL
MODEL 7
REMARK VINA RESULT:      -9.3      5.788     11.070
REMARK  4 active torsions:
REMARK  status: ('A' for Active; 'I' for Inactive)
REMARK       I    between atoms: C13_20  and  N2_7 
REMARK    1  A    between atoms: C6_13  and  N2_7 
REMARK    2  A    between atoms: C1_8  and  C4_11 
REMARK    3  A    between atoms: C4_11  and  C6_13 
REMARK    4  A    between atoms: C13_20  and  C14_21 
ROOT
HETATM    1  O2  UNK     1      17.568  -1.071  37.227  1.00  0.00    -0.267 OA
HETATM    2  N2  UNK     1      19.126  -2.255  35.960  1.00  0.00    -0.356 N 
HETATM    3  C13 UNK     1      18.280  -1.195  36.232  1.00  0.00     0.257 C 
HETATM    4  H12 UNK     1      19.700  -2.248  35.123  1.00  0.00     0.162 HD
ENDROOT
BRANCH   2   5
HETATM    5  C6  UNK     1      19.282  -3.386  36.846  1.00  0.00     0.127 C 
BRANCH   5   6
HETATM    6  C4  UNK     1      19.722  -4.651  36.112  1.00  0.00     0.061 C 
BRANCH   6   7
HETATM    7  C1  UNK     1      19.526  -5.903  36.917  1.00  0.00    -0.022 A 
HETATM    8  C2  UNK     1      20.471  -6.463  37.800  1.00  0.00    -0.001 A 
HETATM    9  C3  UNK     1      19.881  -7.613  38.328  1.00  0.00     0.049 A 
HETATM   10  C8  UNK     1      21.774  -6.119  38.213  1.00  0.00     0.014 A 
HETATM   11  N1  UNK     1      18.628  -7.718  37.768  1.00  0.00    -0.358 N 
HETATM   12  C7  UNK     1      20.531  -8.439  39.252  1.00  0.00    -0.034 A 
HETATM   13  C5  UNK     1      18.406  -6.678  36.906  1.00  0.00     0.013 A 
HETATM   14  H3  UNK     1      17.965  -8.456  37.964  1.00  0.00     0.166 HD
HETATM   15  C9  UNK     1      17.132  -6.557  36.172  1.00  0.00     0.068 C 
HETATM   16  C10 UNK     1      21.821  -8.078  39.647  1.00  0.00     0.009 A 
HETATM   17  C12 UNK     1      19.903  -9.669  39.819  1.00  0.00     0.050 C 
HETATM   18  C11 UNK     1      22.435  -6.936  39.137  1.00  0.00     0.002 A 
ENDBRANCH   6   7
ENDBRANCH   5   6
ENDBRANCH   2   5
BRANCH   3  19
HETATM   19  C14 UNK     1      18.297  -0.167  35.185  1.00  0.00     0.108 A 
HETATM   20  C18 UNK     1      17.930   1.241  35.460  1.00  0.00     0.304 A 
HETATM   21  O1  UNK     1      17.985   2.123  34.384  1.00  0.00    -0.272 OA
HETATM   22  O3  UNK     1      17.595   1.618  36.578  1.00  0.00    -0.259 OA
HETATM   23  C17 UNK     1      18.368   1.700  33.096  1.00  0.00     0.111 A 
HETATM   24  C15 UNK     1      18.708   0.372  32.859  1.00  0.00     0.002 A 
HETATM   25  C20 UNK     1      18.393   2.656  32.082  1.00  0.00     0.070 A 
HETATM   26  C19 UNK     1      19.084  -0.008  31.569  1.00  0.00     0.038 A 
HETATM   27  C16 UNK     1      18.662  -0.574  33.963  1.00  0.00     0.037 A 
HETATM   28  C21 UNK     1      19.113   0.939  30.541  1.00  0.00     0.036 A 
HETATM   29  C22 UNK     1      18.769   2.268  30.797  1.00  0.00     0.050 A 
HETATM   30 Cl2  UNK     1      19.576   0.465  28.952  1.00  0.00    -0.084 Cl
HETATM   31 Cl1  UNK     1      17.971   4.301  32.374  1.00  0.00    -0.081 Cl
ENDBRANCH   3  19
TORSDOF 4
ENDMDL
MODEL 8
REMARK VINA RESULT:      -9.1      3.471      7.259
REMARK  4 active torsions:
REMARK  status: ('A' for Active; 'I' for Inactive)
REMARK       I    between atoms: C13_20  and  N2_7 
REMARK    1  A    between atoms: C6_13  and  N2_7 
REMARK    2  A    between atoms: C1_8  and  C4_11 
REMARK    3  A    between atoms: C4_11  and  C6_13 
REMARK    4  A    between atoms: C13_20  and  C14_21 
ROOT
HETATM    1  O2  UNK     1      18.948   4.477  29.346  1.00  0.00    -0.267 OA
HETATM    2  N2  UNK     1      18.316   3.186  31.182  1.00  0.00    -0.356 N 
HETATM    3  C13 UNK     1      18.655   4.361  30.535  1.00  0.00     0.257 C 
HETATM    4  H12 UNK     1      18.057   3.201  32.163  1.00  0.00     0.162 HD
ENDROOT
BRANCH   2   5
HETATM    5  C6  UNK     1      18.262   1.906  30.514  1.00  0.00     0.127 C 
BRANCH   5   6
HETATM    6  C4  UNK     1      19.443   1.007  30.870  1.00  0.00     0.061 C 
BRANCH   6   7
HETATM    7  C1  UNK     1      19.165   0.092  32.028  1.00  0.00    -0.022 A 
HETATM    8  C2  UNK     1      18.634   0.487  33.272  1.00  0.00    -0.001 A 
HETATM    9  C3  UNK     1      18.543  -0.671  34.046  1.00  0.00     0.049 A 
HETATM   10  C8  UNK     1      18.217   1.711  33.833  1.00  0.00     0.014 A 
HETATM   11  N1  UNK     1      19.009  -1.711  33.273  1.00  0.00    -0.358 N 
HETATM   12  C7  UNK     1      18.055  -0.668  35.357  1.00  0.00    -0.034 A 
HETATM   13  C5  UNK     1      19.390  -1.251  32.041  1.00  0.00     0.013 A 
HETATM   14  H3  UNK     1      19.062  -2.676  33.570  1.00  0.00     0.166 HD
HETATM   15  C9  UNK     1      19.927  -2.169  31.019  1.00  0.00     0.068 C 
HETATM   16  C10 UNK     1      17.646   0.557  35.892  1.00  0.00     0.009 A 
HETATM   17  C12 UNK     1      17.956  -1.905  36.187  1.00  0.00     0.050 C 
HETATM   18  C11 UNK     1      17.725   1.729  35.143  1.00  0.00     0.002 A 
ENDBRANCH   6   7
ENDBRANCH   5   6
ENDBRANCH   2   5
BRANCH   3  19
HETATM   19  C14 UNK     1      18.637   5.528  31.424  1.00  0.00     0.108 A 
HETATM   20  C18 UNK     1      19.881   6.189  31.879  1.00  0.00     0.304 A 
HETATM   21  O1  UNK     1      19.734   7.288  32.721  1.00  0.00    -0.272 OA
HETATM   22  O3  UNK     1      20.990   5.794  31.533  1.00  0.00    -0.259 OA
HETATM   23  C17 UNK     1      18.466   7.750  33.124  1.00  0.00     0.111 A 
HETATM   24  C15 UNK     1      17.309   7.115  32.685  1.00  0.00     0.002 A 
HETATM   25  C20 UNK     1      18.420   8.858  33.969  1.00  0.00     0.070 A 
HETATM   26  C19 UNK     1      16.070   7.603  33.106  1.00  0.00     0.038 A 
HETATM   27  C16 UNK     1      17.430   5.964  31.803  1.00  0.00     0.037 A 
HETATM   28  C21 UNK     1      16.007   8.713  33.954  1.00  0.00     0.036 A 
HETATM   29  C22 UNK     1      17.179   9.339  34.383  1.00  0.00     0.050 A 
HETATM   30 Cl2  UNK     1      14.478   9.311  34.470  1.00  0.00    -0.084 Cl
HETATM   31 Cl1  UNK     1      19.852   9.646  34.513  1.00  0.00    -0.081 Cl
ENDBRANCH   3  19
TORSDOF 4
ENDMDL
MODEL 9
REMARK VINA RESULT:      -9.1     11.017     14.597
REMARK  4 active torsions:
REMARK  status: ('A' for Active; 'I' for Inactive)
REMARK       I    between atoms: C13_20  and  N2_7 
REMARK    1  A    between atoms: C6_13  and  N2_7 
REMARK    2  A    between atoms: C1_8  and  C4_11 
REMARK    3  A    between atoms: C4_11  and  C6_13 
REMARK    4  A    between atoms: C13_20  and  C14_21 
ROOT
HETATM    1  O2  UNK     1      25.139  -8.958  37.200  1.00  0.00    -0.267 OA
HETATM    2  N2  UNK     1      24.253  -7.984  39.124  1.00  0.00    -0.356 N 
HETATM    3  C13 UNK     1      25.216  -8.181  38.150  1.00  0.00     0.257 C 
HETATM    4  H12 UNK     1      24.398  -7.292  39.852  1.00  0.00     0.162 HD
ENDROOT
BRANCH   2   5
HETATM    5  C6  UNK     1      22.993  -8.692  39.142  1.00  0.00     0.127 C 
BRANCH   5   6
HETATM    6  C4  UNK     1      21.883  -7.899  39.827  1.00  0.00     0.061 C 
BRANCH   6   7
HETATM    7  C1  UNK     1      20.628  -7.804  39.007  1.00  0.00    -0.022 A 
HETATM    8  C2  UNK     1      20.254  -6.703  38.211  1.00  0.00    -0.001 A 
HETATM    9  C3  UNK     1      19.028  -7.037  37.632  1.00  0.00     0.049 A 
HETATM   10  C8  UNK     1      20.823  -5.449  37.915  1.00  0.00     0.014 A 
HETATM   11  N1  UNK     1      18.699  -8.297  38.079  1.00  0.00    -0.358 N 
HETATM   12  C7  UNK     1      18.341  -6.176  36.769  1.00  0.00    -0.034 A 
HETATM   13  C5  UNK     1      19.672  -8.769  38.918  1.00  0.00     0.013 A 
HETATM   14  H3  UNK     1      17.861  -8.802  37.825  1.00  0.00     0.166 HD
HETATM   15  C9  UNK     1      19.560 -10.104  39.536  1.00  0.00     0.068 C 
HETATM   16  C10 UNK     1      18.925  -4.938  36.490  1.00  0.00     0.009 A 
HETATM   17  C12 UNK     1      17.030  -6.529  36.148  1.00  0.00     0.050 C 
HETATM   18  C11 UNK     1      20.148  -4.578  37.053  1.00  0.00     0.002 A 
ENDBRANCH   6   7
ENDBRANCH   5   6
ENDBRANCH   2   5
BRANCH   3  19
HETATM   19  C14 UNK     1      26.406  -7.345  38.346  1.00  0.00     0.108 A 
HETATM   20  C18 UNK     1      26.309  -5.918  38.726  1.00  0.00     0.304 A 
HETATM   21  O1  UNK     1      27.509  -5.230  38.882  1.00  0.00    -0.272 OA
HETATM   22  O3  UNK     1      25.229  -5.364  38.898  1.00  0.00    -0.259 OA
HETATM   23  C17 UNK     1      28.756  -5.857  38.687  1.00  0.00     0.111 A 
HETATM   24  C15 UNK     1      28.825  -7.199  38.329  1.00  0.00     0.002 A 
HETATM   25  C20 UNK     1      29.903  -5.085  38.866  1.00  0.00     0.070 A 
HETATM   26  C19 UNK     1      30.079  -7.785  38.146  1.00  0.00     0.038 A 
HETATM   27  C16 UNK     1      27.587  -7.946  38.159  1.00  0.00     0.037 A 
HETATM   28  C21 UNK     1      31.239  -7.025  38.321  1.00  0.00     0.036 A 
HETATM   29  C22 UNK     1      31.151  -5.678  38.681  1.00  0.00     0.050 A 
HETATM   30 Cl2  UNK     1      32.782  -7.751  38.093  1.00  0.00    -0.084 Cl
HETATM   31 Cl1  UNK     1      29.819  -3.422  39.308  1.00  0.00    -0.081 Cl
ENDBRANCH   3  19
TORSDOF 4
ENDMDL
MODEL 10
REMARK VINA RESULT:      -9.1      2.648      3.653
REMARK  4 active torsions:
REMARK  status: ('A' for Active; 'I' for Inactive)
REMARK       I    between atoms: C13_20  and  N2_7 
REMARK    1  A    between atoms: C6_13  and  N2_7 
REMARK    2  A    between atoms: C1_8  and  C4_11 
REMARK    3  A    between atoms: C4_11  and  C6_13 
REMARK    4  A    between atoms: C13_20  and  C14_21 
ROOT
HETATM    1  O2  UNK     1      17.144   5.541  31.914  1.00  0.00    -0.267 OA
HETATM    2  N2  UNK     1      19.214   5.788  32.957  1.00  0.00    -0.356 N 
HETATM    3  C13 UNK     1      18.125   5.074  32.489  1.00  0.00     0.257 C 
HETATM    4  H12 UNK     1      19.993   5.304  33.392  1.00  0.00     0.162 HD
ENDROOT
BRANCH   2   5
HETATM    5  C6  UNK     1      19.335   7.221  32.819  1.00  0.00     0.127 C 
BRANCH   5   6
HETATM    6  C4  UNK     1      19.260   7.949  34.159  1.00  0.00     0.061 C 
BRANCH   6   7
HETATM    7  C1  UNK     1      18.011   8.767  34.322  1.00  0.00    -0.022 A 
HETATM    8  C2  UNK     1      17.923  10.165  34.161  1.00  0.00    -0.001 A 
HETATM    9  C3  UNK     1      16.591  10.504  34.405  1.00  0.00     0.049 A 
HETATM   10  C8  UNK     1      18.834  11.188  33.834  1.00  0.00     0.014 A 
HETATM   11  N1  UNK     1      15.923   9.336  34.699  1.00  0.00    -0.358 N 
HETATM   12  C7  UNK     1      16.122  11.821  34.338  1.00  0.00    -0.034 A 
HETATM   13  C5  UNK     1      16.785   8.274  34.650  1.00  0.00     0.013 A 
HETATM   14  H3  UNK     1      14.938   9.271  34.920  1.00  0.00     0.166 HD
HETATM   15  C9  UNK     1      16.317   6.902  34.927  1.00  0.00     0.068 C 
HETATM   16  C10 UNK     1      17.043  12.819  34.011  1.00  0.00     0.009 A 
HETATM   17  C12 UNK     1      14.699  12.188  34.599  1.00  0.00     0.050 C 
HETATM   18  C11 UNK     1      18.379  12.510  33.762  1.00  0.00     0.002 A 
ENDBRANCH   6   7
ENDBRANCH   5   6
ENDBRANCH   2   5
BRANCH   3  19
HETATM   19  C14 UNK     1      18.235   3.633  32.744  1.00  0.00     0.108 A 
HETATM   20  C18 UNK     1      18.479   2.659  31.657  1.00  0.00     0.304 A 
HETATM   21  O1  UNK     1      18.563   1.319  32.025  1.00  0.00    -0.272 OA
HETATM   22  O3  UNK     1      18.604   3.009  30.488  1.00  0.00    -0.259 OA
HETATM   23  C17 UNK     1      18.421   0.906  33.365  1.00  0.00     0.111 A 
HETATM   24  C15 UNK     1      18.191   1.838  34.371  1.00  0.00     0.002 A 
HETATM   25  C20 UNK     1      18.521  -0.458  33.636  1.00  0.00     0.070 A 
HETATM   26  C19 UNK     1      18.056   1.390  35.687  1.00  0.00     0.038 A 
HETATM   27  C16 UNK     1      18.099   3.247  34.019  1.00  0.00     0.037 A 
HETATM   28  C21 UNK     1      18.153   0.026  35.975  1.00  0.00     0.036 A 
HETATM   29  C22 UNK     1      18.385  -0.896  34.952  1.00  0.00     0.050 A 
HETATM   30 Cl2  UNK     1      17.986  -0.522  37.599  1.00  0.00    -0.084 Cl
HETATM   31 Cl1  UNK     1      18.805  -1.613  32.389  1.00  0.00    -0.081 Cl
ENDBRANCH   3  19
TORSDOF 4
ENDMDL
