MODEL 1
REMARK VINA RESULT:      -9.4      0.000      0.000
REMARK  3 active torsions:
REMARK  status: ('A' for Active; 'I' for Inactive)
REMARK    1  A    between atoms: C5_10  and  N1_3 
REMARK    2  A    between atoms: C7_12  and  N2_4 
REMARK    3  A    between atoms: C5_10  and  C6_11 
ROOT
HETATM    1  C5  UNK     1      18.265   6.297  32.698  1.00  0.00     0.312 C 
ENDROOT
BRANCH   1   2
HETATM    2  N1  UNK     1      18.114   5.096  31.879  1.00  0.00     0.095 N 
HETATM    3  C1  UNK     1      18.329   3.890  32.688  1.00  0.00     0.292 C 
HETATM    4  C3  UNK     1      18.120   2.624  31.854  1.00  0.00     0.154 C 
HETATM    5  N2  UNK     1      18.951   2.659  30.647  1.00  0.00    -0.362 N 
HETATM    6  C4  UNK     1      18.871   3.893  29.857  1.00  0.00     0.154 C 
HETATM    7  C2  UNK     1      19.058   5.118  30.754  1.00  0.00     0.292 C 
BRANCH   5   8
HETATM    8  C7  UNK     1      19.252   1.467  29.977  1.00  0.00     0.125 A 
HETATM    9  C11 UNK     1      18.548   1.198  28.815  1.00  0.00     0.050 A 
HETATM   10  C17 UNK     1      18.835   0.018  28.139  1.00  0.00     0.005 A 
HETATM   11  C19 UNK     1      19.804  -0.846  28.639  1.00  0.00     0.019 A 
HETATM   12  C18 UNK     1      20.452  -0.485  29.809  1.00  0.00     0.119 A 
HETATM   13  N3  UNK     1      20.200   0.652  30.494  1.00  0.00    -0.244 NA
ENDBRANCH   5   8
ENDBRANCH   1   2
BRANCH   1  14
HETATM   14  C6  UNK     1      17.008   7.119  32.718  1.00  0.00    -0.011 A 
HETATM   15  C8  UNK     1      17.043   8.499  33.222  1.00  0.00     0.006 A 
HETATM   16  C10 UNK     1      15.859   9.237  33.229  1.00  0.00     0.090 A 
HETATM   17  C12 UNK     1      18.202   9.124  33.700  1.00  0.00     0.015 A 
HETATM   18  O1  UNK     1      14.650   8.681  32.763  1.00  0.00    -0.275 OA
HETATM   19  C14 UNK     1      15.803  10.554  33.689  1.00  0.00     0.045 A 
HETATM   20  C13 UNK     1      14.588   7.383  32.282  1.00  0.00     0.288 A 
HETATM   21  O2  UNK     1      13.542   6.890  31.875  1.00  0.00    -0.260 OA
HETATM   22  C9  UNK     1      15.845   6.616  32.281  1.00  0.00     0.092 A 
HETATM   23  C15 UNK     1      16.965  11.157  34.160  1.00  0.00    -0.059 A 
HETATM   24  C16 UNK     1      18.163  10.444  34.166  1.00  0.00     0.007 A 
HETATM   25  C20 UNK     1      16.931  12.562  34.657  1.00  0.00     0.048 C 
ENDBRANCH   1  14
TORSDOF 3
ENDMDL
MODEL 2
REMARK VINA RESULT:      -9.2      8.397     11.794
REMARK  3 active torsions:
REMARK  status: ('A' for Active; 'I' for Inactive)
REMARK    1  A    between atoms: C5_10  and  N1_3 
REMARK    2  A    between atoms: C7_12  and  N2_4 
REMARK    3  A    between atoms: C5_10  and  C6_11 
ROOT
HETATM    1  C5  UNK     1      20.583  -2.789  36.241  1.00  0.00     0.312 C 
ENDROOT
BRANCH   1   2
HETATM    2  N1  UNK     1      20.017  -4.016  36.801  1.00  0.00     0.095 N 
HETATM    3  C1  UNK     1      20.917  -4.583  37.813  1.00  0.00     0.292 C 
HETATM    4  C3  UNK     1      20.310  -5.838  38.446  1.00  0.00     0.154 C 
HETATM    5  N2  UNK     1      19.930  -6.805  37.412  1.00  0.00    -0.362 N 
HETATM    6  C4  UNK     1      19.129  -6.268  36.305  1.00  0.00     0.154 C 
HETATM    7  C2  UNK     1      19.774  -5.001  35.740  1.00  0.00     0.292 C 
BRANCH   5   8
HETATM    8  C7  UNK     1      19.767  -8.153  37.749  1.00  0.00     0.125 A 
HETATM    9  C11 UNK     1      20.023  -8.513  39.063  1.00  0.00     0.050 A 
HETATM   10  C17 UNK     1      19.866  -9.849  39.413  1.00  0.00     0.005 A 
HETATM   11  C19 UNK     1      19.464 -10.772  38.453  1.00  0.00     0.019 A 
HETATM   12  C18 UNK     1      19.233 -10.311  37.168  1.00  0.00     0.119 A 
HETATM   13  N3  UNK     1      19.375  -9.021  36.789  1.00  0.00    -0.244 NA
ENDBRANCH   5   8
ENDBRANCH   1   2
BRANCH   1  14
HETATM   14  C6  UNK     1      19.589  -2.056  35.388  1.00  0.00    -0.011 A 
HETATM   15  C8  UNK     1      19.791  -1.974  33.934  1.00  0.00     0.006 A 
HETATM   16  C10 UNK     1      18.851  -1.286  33.168  1.00  0.00     0.090 A 
HETATM   17  C12 UNK     1      20.878  -2.552  33.266  1.00  0.00     0.015 A 
HETATM   18  O1  UNK     1      17.727  -0.678  33.764  1.00  0.00    -0.275 OA
HETATM   19  C14 UNK     1      18.965  -1.161  31.782  1.00  0.00     0.045 A 
HETATM   20  C13 UNK     1      17.512  -0.739  35.132  1.00  0.00     0.288 A 
HETATM   21  O2  UNK     1      16.539  -0.214  35.661  1.00  0.00    -0.260 OA
HETATM   22  C9  UNK     1      18.513  -1.469  35.928  1.00  0.00     0.092 A 
HETATM   23  C15 UNK     1      20.052  -1.741  31.136  1.00  0.00    -0.059 A 
HETATM   24  C16 UNK     1      21.007  -2.435  31.876  1.00  0.00     0.007 A 
HETATM   25  C20 UNK     1      20.196  -1.621  29.657  1.00  0.00     0.048 C 
ENDBRANCH   1  14
TORSDOF 3
ENDMDL
MODEL 3
REMARK VINA RESULT:      -9.0      8.648     11.312
REMARK  3 active torsions:
REMARK  status: ('A' for Active; 'I' for Inactive)
REMARK    1  A    between atoms: C5_10  and  N1_3 
REMARK    2  A    between atoms: C7_12  and  N2_4 
REMARK    3  A    between atoms: C5_10  and  C6_11 
ROOT
HETATM    1  C5  UNK     1      20.733  -2.683  36.107  1.00  0.00     0.312 C 
ENDROOT
BRANCH   1   2
HETATM    2  N1  UNK     1      20.142  -3.888  36.686  1.00  0.00     0.095 N 
HETATM    3  C1  UNK     1      21.029  -4.457  37.708  1.00  0.00     0.292 C 
HETATM    4  C3  UNK     1      20.397  -5.688  38.362  1.00  0.00     0.154 C 
HETATM    5  N2  UNK     1      19.998  -6.664  37.343  1.00  0.00    -0.362 N 
HETATM    6  C4  UNK     1      19.208  -6.130  36.227  1.00  0.00     0.154 C 
HETATM    7  C2  UNK     1      19.879  -4.886  35.642  1.00  0.00     0.292 C 
BRANCH   5   8
HETATM    8  C7  UNK     1      19.808  -8.003  37.703  1.00  0.00     0.125 A 
HETATM    9  C11 UNK     1      20.070  -8.350  39.019  1.00  0.00     0.050 A 
HETATM   10  C17 UNK     1      19.886  -9.676  39.391  1.00  0.00     0.005 A 
HETATM   11  C19 UNK     1      19.452 -10.604  38.450  1.00  0.00     0.019 A 
HETATM   12  C18 UNK     1      19.217 -10.156  37.160  1.00  0.00     0.119 A 
HETATM   13  N3  UNK     1      19.385  -8.876  36.760  1.00  0.00    -0.244 NA
ENDBRANCH   5   8
ENDBRANCH   1   2
BRANCH   1  14
HETATM   14  C6  UNK     1      19.822  -2.045  35.098  1.00  0.00    -0.011 A 
HETATM   15  C8  UNK     1      18.650  -1.282  35.550  1.00  0.00     0.006 A 
HETATM   16  C10 UNK     1      17.821  -0.701  34.589  1.00  0.00     0.090 A 
HETATM   17  C12 UNK     1      18.312  -1.098  36.897  1.00  0.00     0.015 A 
HETATM   18  O1  UNK     1      18.093  -0.839  33.212  1.00  0.00    -0.275 OA
HETATM   19  C14 UNK     1      16.689   0.041  34.930  1.00  0.00     0.045 A 
HETATM   20  C13 UNK     1      19.190  -1.553  32.759  1.00  0.00     0.288 A 
HETATM   21  O2  UNK     1      19.436  -1.679  31.564  1.00  0.00    -0.260 OA
HETATM   22  C9  UNK     1      20.056  -2.160  33.784  1.00  0.00     0.092 A 
HETATM   23  C15 UNK     1      16.370   0.212  36.273  1.00  0.00    -0.059 A 
HETATM   24  C16 UNK     1      17.180  -0.356  37.255  1.00  0.00     0.007 A 
HETATM   25  C20 UNK     1      15.166   1.000  36.663  1.00  0.00     0.048 C 
ENDBRANCH   1  14
TORSDOF 3
ENDMDL
MODEL 4
REMARK VINA RESULT:      -8.8      2.850      9.046
REMARK  3 active torsions:
REMARK  status: ('A' for Active; 'I' for Inactive)
REMARK    1  A    between atoms: C5_10  and  N1_3 
REMARK    2  A    between atoms: C7_12  and  N2_4 
REMARK    3  A    between atoms: C5_10  and  C6_11 
ROOT
HETATM    1  C5  UNK     1      18.045   4.498  31.420  1.00  0.00     0.312 C 
ENDROOT
BRANCH   1   2
HETATM    2  N1  UNK     1      17.861   5.586  32.379  1.00  0.00     0.095 N 
HETATM    3  C1  UNK     1      16.560   6.236  32.179  1.00  0.00     0.292 C 
HETATM    4  C3  UNK     1      16.332   7.341  33.212  1.00  0.00     0.154 C 
HETATM    5  N2  UNK     1      17.450   8.288  33.209  1.00  0.00    -0.362 N 
HETATM    6  C4  UNK     1      18.789   7.690  33.285  1.00  0.00     0.154 C 
HETATM    7  C2  UNK     1      18.938   6.575  32.248  1.00  0.00     0.292 C 
BRANCH   5   8
HETATM    8  C7  UNK     1      17.273   9.573  33.735  1.00  0.00     0.125 A 
HETATM    9  C11 UNK     1      16.064   9.842  34.357  1.00  0.00     0.050 A 
HETATM   10  C17 UNK     1      15.872  11.114  34.883  1.00  0.00     0.005 A 
HETATM   11  C19 UNK     1      16.880  12.066  34.773  1.00  0.00     0.019 A 
HETATM   12  C18 UNK     1      18.052  11.698  34.133  1.00  0.00     0.119 A 
HETATM   13  N3  UNK     1      18.275  10.472  33.608  1.00  0.00    -0.244 NA
ENDBRANCH   5   8
ENDBRANCH   1   2
BRANCH   1  14
HETATM   14  C6  UNK     1      18.286   3.185  32.107  1.00  0.00    -0.011 A 
HETATM   15  C8  UNK     1      18.781   2.035  31.337  1.00  0.00     0.006 A 
HETATM   16  C10 UNK     1      18.995   0.828  32.003  1.00  0.00     0.090 A 
HETATM   17  C12 UNK     1      19.054   2.078  29.964  1.00  0.00     0.015 A 
HETATM   18  O1  UNK     1      18.746   0.704  33.385  1.00  0.00    -0.275 OA
HETATM   19  C14 UNK     1      19.464  -0.312  31.348  1.00  0.00     0.045 A 
HETATM   20  C13 UNK     1      18.279   1.771  34.135  1.00  0.00     0.288 A 
HETATM   21  O2  UNK     1      18.060   1.674  35.338  1.00  0.00    -0.260 OA
HETATM   22  C9  UNK     1      18.058   3.038  33.419  1.00  0.00     0.092 A 
HETATM   23  C15 UNK     1      19.729  -0.250  29.984  1.00  0.00    -0.059 A 
HETATM   24  C16 UNK     1      19.525   0.943  29.292  1.00  0.00     0.007 A 
HETATM   25  C20 UNK     1      20.231  -1.454  29.263  1.00  0.00     0.048 C 
ENDBRANCH   1  14
TORSDOF 3
ENDMDL
MODEL 5
REMARK VINA RESULT:      -8.7      8.219     12.252
REMARK  3 active torsions:
REMARK  status: ('A' for Active; 'I' for Inactive)
REMARK    1  A    between atoms: C5_10  and  N1_3 
REMARK    2  A    between atoms: C7_12  and  N2_4 
REMARK    3  A    between atoms: C5_10  and  C6_11 
ROOT
HETATM    1  C5  UNK     1      20.197  -3.162  36.349  1.00  0.00     0.312 C 
ENDROOT
BRANCH   1   2
HETATM    2  N1  UNK     1      19.783  -2.799  34.995  1.00  0.00     0.095 N 
HETATM    3  C1  UNK     1      20.938  -2.788  34.089  1.00  0.00     0.292 C 
HETATM    4  C3  UNK     1      20.510  -2.463  32.656  1.00  0.00     0.154 C 
HETATM    5  N2  UNK     1      19.742  -1.215  32.618  1.00  0.00    -0.362 N 
HETATM    6  C4  UNK     1      18.645  -1.116  33.588  1.00  0.00     0.154 C 
HETATM    7  C2  UNK     1      19.133  -1.482  34.991  1.00  0.00     0.292 C 
BRANCH   5   8
HETATM    8  C7  UNK     1      19.623  -0.510  31.415  1.00  0.00     0.125 A 
HETATM    9  C11 UNK     1      20.215  -1.067  30.293  1.00  0.00     0.050 A 
HETATM   10  C17 UNK     1      20.106  -0.378  29.091  1.00  0.00     0.005 A 
HETATM   11  C19 UNK     1      19.419   0.831  29.047  1.00  0.00     0.019 A 
HETATM   12  C18 UNK     1      18.863   1.302  30.225  1.00  0.00     0.119 A 
HETATM   13  N3  UNK     1      18.948   0.662  31.412  1.00  0.00    -0.244 NA
ENDBRANCH   5   8
ENDBRANCH   1   2
BRANCH   1  14
HETATM   14  C6  UNK     1      19.631  -4.489  36.767  1.00  0.00    -0.011 A 
HETATM   15  C8  UNK     1      20.434  -5.399  37.596  1.00  0.00     0.006 A 
HETATM   16  C10 UNK     1      19.882  -6.625  37.968  1.00  0.00     0.090 A 
HETATM   17  C12 UNK     1      21.730  -5.107  38.042  1.00  0.00     0.015 A 
HETATM   18  O1  UNK     1      18.583  -6.993  37.562  1.00  0.00    -0.275 OA
HETATM   19  C14 UNK     1      20.575  -7.547  38.755  1.00  0.00     0.045 A 
HETATM   20  C13 UNK     1      17.805  -6.156  36.779  1.00  0.00     0.288 A 
HETATM   21  O2  UNK     1      16.674  -6.466  36.420  1.00  0.00    -0.260 OA
HETATM   22  C9  UNK     1      18.400  -4.865  36.395  1.00  0.00     0.092 A 
HETATM   23  C15 UNK     1      21.860  -7.239  39.187  1.00  0.00    -0.059 A 
HETATM   24  C16 UNK     1      22.437  -6.021  38.831  1.00  0.00     0.007 A 
HETATM   25  C20 UNK     1      22.620  -8.208  40.028  1.00  0.00     0.048 C 
ENDBRANCH   1  14
TORSDOF 3
ENDMDL
MODEL 6
REMARK VINA RESULT:      -8.3      3.059      9.031
REMARK  3 active torsions:
REMARK  status: ('A' for Active; 'I' for Inactive)
REMARK    1  A    between atoms: C5_10  and  N1_3 
REMARK    2  A    between atoms: C7_12  and  N2_4 
REMARK    3  A    between atoms: C5_10  and  C6_11 
ROOT
HETATM    1  C5  UNK     1      18.136   5.854  32.051  1.00  0.00     0.312 C 
ENDROOT
BRANCH   1   2
HETATM    2  N1  UNK     1      17.245   6.590  32.946  1.00  0.00     0.095 N 
HETATM    3  C1  UNK     1      15.968   6.877  32.281  1.00  0.00     0.292 C 
HETATM    4  C3  UNK     1      15.005   7.599  33.226  1.00  0.00     0.154 C 
HETATM    5  N2  UNK     1      15.637   8.795  33.791  1.00  0.00    -0.362 N 
HETATM    6  C4  UNK     1      16.973   8.595  34.366  1.00  0.00     0.154 C 
HETATM    7  C2  UNK     1      17.873   7.843  33.383  1.00  0.00     0.292 C 
BRANCH   5   8
HETATM    8  C7  UNK     1      14.840   9.817  34.318  1.00  0.00     0.125 A 
HETATM    9  C11 UNK     1      13.895  10.382  33.477  1.00  0.00     0.050 A 
HETATM   10  C17 UNK     1      13.096  11.399  33.986  1.00  0.00     0.005 A 
HETATM   11  C19 UNK     1      13.264  11.816  35.302  1.00  0.00     0.019 A 
HETATM   12  C18 UNK     1      14.237  11.187  36.062  1.00  0.00     0.119 A 
HETATM   13  N3  UNK     1      15.033  10.195  35.602  1.00  0.00    -0.244 NA
ENDBRANCH   5   8
ENDBRANCH   1   2
BRANCH   1  14
HETATM   14  C6  UNK     1      18.229   4.403  32.427  1.00  0.00    -0.011 A 
HETATM   15  C8  UNK     1      18.429   3.387  31.384  1.00  0.00     0.006 A 
HETATM   16  C10 UNK     1      18.511   2.047  31.764  1.00  0.00     0.090 A 
HETATM   17  C12 UNK     1      18.544   3.685  30.020  1.00  0.00     0.015 A 
HETATM   18  O1  UNK     1      18.406   1.666  33.117  1.00  0.00    -0.275 OA
HETATM   19  C14 UNK     1      18.700   1.019  30.838  1.00  0.00     0.045 A 
HETATM   20  C13 UNK     1      18.217   2.602  34.121  1.00  0.00     0.288 A 
HETATM   21  O2  UNK     1      18.125   2.281  35.301  1.00  0.00    -0.260 OA
HETATM   22  C9  UNK     1      18.133   4.012  33.705  1.00  0.00     0.092 A 
HETATM   23  C15 UNK     1      18.812   1.335  29.488  1.00  0.00    -0.059 A 
HETATM   24  C16 UNK     1      18.734   2.665  29.079  1.00  0.00     0.007 A 
HETATM   25  C20 UNK     1      19.015   0.255  28.481  1.00  0.00     0.048 C 
ENDBRANCH   1  14
TORSDOF 3
ENDMDL
MODEL 7
REMARK VINA RESULT:      -8.3      1.450      1.929
REMARK  3 active torsions:
REMARK  status: ('A' for Active; 'I' for Inactive)
REMARK    1  A    between atoms: C5_10  and  N1_3 
REMARK    2  A    between atoms: C7_12  and  N2_4 
REMARK    3  A    between atoms: C5_10  and  C6_11 
ROOT
HETATM    1  C5  UNK     1      18.102   6.580  32.386  1.00  0.00     0.312 C 
ENDROOT
BRANCH   1   2
HETATM    2  N1  UNK     1      17.874   5.136  32.366  1.00  0.00     0.095 N 
HETATM    3  C1  UNK     1      18.354   4.522  33.611  1.00  0.00     0.292 C 
HETATM    4  C3  UNK     1      18.071   3.018  33.626  1.00  0.00     0.154 C 
HETATM    5  N2  UNK     1      18.618   2.379  32.425  1.00  0.00    -0.362 N 
HETATM    6  C4  UNK     1      18.271   3.021  31.151  1.00  0.00     0.154 C 
HETATM    7  C2  UNK     1      18.549   4.524  31.215  1.00  0.00     0.292 C 
BRANCH   5   8
HETATM    8  C7  UNK     1      18.861   1.000  32.423  1.00  0.00     0.125 A 
HETATM    9  C11 UNK     1      18.437   0.280  33.528  1.00  0.00     0.050 A 
HETATM   10  C17 UNK     1      18.672  -1.090  33.540  1.00  0.00     0.005 A 
HETATM   11  C19 UNK     1      19.316  -1.690  32.463  1.00  0.00     0.019 A 
HETATM   12  C18 UNK     1      19.701  -0.881  31.406  1.00  0.00     0.119 A 
HETATM   13  N3  UNK     1      19.490   0.453  31.358  1.00  0.00    -0.244 NA
ENDBRANCH   5   8
ENDBRANCH   1   2
BRANCH   1  14
HETATM   14  C6  UNK     1      16.822   7.342  32.579  1.00  0.00    -0.011 A 
HETATM   15  C8  UNK     1      16.853   8.686  33.175  1.00  0.00     0.006 A 
HETATM   16  C10 UNK     1      15.648   9.369  33.343  1.00  0.00     0.090 A 
HETATM   17  C12 UNK     1      18.028   9.328  33.587  1.00  0.00     0.015 A 
HETATM   18  O1  UNK     1      14.423   8.793  32.952  1.00  0.00    -0.275 OA
HETATM   19  C14 UNK     1      15.587  10.648  33.899  1.00  0.00     0.045 A 
HETATM   20  C13 UNK     1      14.364   7.528  32.389  1.00  0.00     0.288 A 
HETATM   21  O2  UNK     1      13.303   7.018  32.045  1.00  0.00    -0.260 OA
HETATM   22  C9  UNK     1      15.643   6.819  32.218  1.00  0.00     0.092 A 
HETATM   23  C15 UNK     1      16.765  11.269  34.302  1.00  0.00    -0.059 A 
HETATM   24  C16 UNK     1      17.984  10.610  34.147  1.00  0.00     0.007 A 
HETATM   25  C20 UNK     1      16.725  12.635  34.899  1.00  0.00     0.048 C 
ENDBRANCH   1  14
TORSDOF 3
ENDMDL
MODEL 8
REMARK VINA RESULT:      -8.2      9.454     14.356
REMARK  3 active torsions:
REMARK  status: ('A' for Active; 'I' for Inactive)
REMARK    1  A    between atoms: C5_10  and  N1_3 
REMARK    2  A    between atoms: C7_12  and  N2_4 
REMARK    3  A    between atoms: C5_10  and  C6_11 
ROOT
HETATM    1  C5  UNK     1      19.685  -5.614  36.597  1.00  0.00     0.312 C 
ENDROOT
BRANCH   1   2
HETATM    2  N1  UNK     1      19.735  -4.154  36.555  1.00  0.00     0.095 N 
HETATM    3  C1  UNK     1      18.434  -3.582  36.923  1.00  0.00     0.292 C 
HETATM    4  C3  UNK     1      18.489  -2.053  36.936  1.00  0.00     0.154 C 
HETATM    5  N2  UNK     1      18.996  -1.545  35.658  1.00  0.00    -0.362 N 
HETATM    6  C4  UNK     1      20.235  -2.166  35.174  1.00  0.00     0.154 C 
HETATM    7  C2  UNK     1      20.123  -3.691  35.216  1.00  0.00     0.292 C 
BRANCH   5   8
HETATM    8  C7  UNK     1      18.733  -0.222  35.284  1.00  0.00     0.125 A 
HETATM    9  C11 UNK     1      18.635   0.716  36.300  1.00  0.00     0.050 A 
HETATM   10  C17 UNK     1      18.375   2.034  35.945  1.00  0.00     0.005 A 
HETATM   11  C19 UNK     1      18.220   2.371  34.604  1.00  0.00     0.019 A 
HETATM   12  C18 UNK     1      18.337   1.359  33.665  1.00  0.00     0.119 A 
HETATM   13  N3  UNK     1      18.590   0.067  33.971  1.00  0.00    -0.244 NA
ENDBRANCH   5   8
ENDBRANCH   1   2
BRANCH   1  14
HETATM   14  C6  UNK     1      20.941  -6.198  37.177  1.00  0.00    -0.011 A 
HETATM   15  C8  UNK     1      21.400  -7.525  36.743  1.00  0.00     0.006 A 
HETATM   16  C10 UNK     1      22.570  -8.042  37.300  1.00  0.00     0.090 A 
HETATM   17  C12 UNK     1      20.730  -8.309  35.795  1.00  0.00     0.015 A 
HETATM   18  O1  UNK     1      23.304  -7.314  38.259  1.00  0.00    -0.275 OA
HETATM   19  C14 UNK     1      23.077  -9.293  36.943  1.00  0.00     0.045 A 
HETATM   20  C13 UNK     1      22.894  -6.062  38.687  1.00  0.00     0.288 A 
HETATM   21  O2  UNK     1      23.524  -5.421  39.521  1.00  0.00    -0.260 OA
HETATM   22  C9  UNK     1      21.657  -5.530  38.090  1.00  0.00     0.092 A 
HETATM   23  C15 UNK     1      22.397 -10.056  36.000  1.00  0.00    -0.059 A 
HETATM   24  C16 UNK     1      21.225  -9.566  35.427  1.00  0.00     0.007 A 
HETATM   25  C20 UNK     1      22.919 -11.395  35.603  1.00  0.00     0.048 C 
ENDBRANCH   1  14
TORSDOF 3
ENDMDL
MODEL 9
REMARK VINA RESULT:      -8.2     21.117     23.077
REMARK  3 active torsions:
REMARK  status: ('A' for Active; 'I' for Inactive)
REMARK    1  A    between atoms: C5_10  and  N1_3 
REMARK    2  A    between atoms: C7_12  and  N2_4 
REMARK    3  A    between atoms: C5_10  and  C6_11 
ROOT
HETATM    1  C5  UNK     1       5.531   4.981  12.000  1.00  0.00     0.312 C 
ENDROOT
BRANCH   1   2
HETATM    2  N1  UNK     1       6.777   5.319  11.315  1.00  0.00     0.095 N 
HETATM    3  C1  UNK     1       6.559   6.412  10.358  1.00  0.00     0.292 C 
HETATM    4  C3  UNK     1       7.868   6.813   9.673  1.00  0.00     0.154 C 
HETATM    5  N2  UNK     1       8.512   5.643   9.068  1.00  0.00    -0.362 N 
HETATM    6  C4  UNK     1       8.650   4.472   9.943  1.00  0.00     0.154 C 
HETATM    7  C2  UNK     1       7.316   4.145  10.617  1.00  0.00     0.292 C 
BRANCH   5   8
HETATM    8  C7  UNK     1       9.457   5.820   8.051  1.00  0.00     0.125 A 
HETATM    9  C11 UNK     1       9.006   6.344   6.851  1.00  0.00     0.050 A 
HETATM   10  C17 UNK     1       9.932   6.525   5.831  1.00  0.00     0.005 A 
HETATM   11  C19 UNK     1      11.264   6.180   6.038  1.00  0.00     0.019 A 
HETATM   12  C18 UNK     1      11.614   5.664   7.275  1.00  0.00     0.119 A 
HETATM   13  N3  UNK     1      10.742   5.473   8.290  1.00  0.00    -0.244 NA
ENDBRANCH   5   8
ENDBRANCH   1   2
BRANCH   1  14
HETATM   14  C6  UNK     1       5.571   5.367  13.451  1.00  0.00    -0.011 A 
HETATM   15  C8  UNK     1       5.548   4.325  14.487  1.00  0.00     0.006 A 
HETATM   16  C10 UNK     1       5.586   4.714  15.826  1.00  0.00     0.090 A 
HETATM   17  C12 UNK     1       5.491   2.953  14.209  1.00  0.00     0.015 A 
HETATM   18  O1  UNK     1       5.646   6.075  16.188  1.00  0.00    -0.275 OA
HETATM   19  C14 UNK     1       5.569   3.789  16.872  1.00  0.00     0.045 A 
HETATM   20  C13 UNK     1       5.669   7.078  15.233  1.00  0.00     0.288 A 
HETATM   21  O2  UNK     1       5.721   8.265  15.537  1.00  0.00    -0.260 OA
HETATM   22  C9  UNK     1       5.628   6.652  13.824  1.00  0.00     0.092 A 
HETATM   23  C15 UNK     1       5.511   2.431  16.576  1.00  0.00    -0.059 A 
HETATM   24  C16 UNK     1       5.472   2.013  15.247  1.00  0.00     0.007 A 
HETATM   25  C20 UNK     1       5.492   1.425  17.676  1.00  0.00     0.048 C 
ENDBRANCH   1  14
TORSDOF 3
ENDMDL
MODEL 10
REMARK VINA RESULT:      -8.2      9.111     13.778
REMARK  3 active torsions:
REMARK  status: ('A' for Active; 'I' for Inactive)
REMARK    1  A    between atoms: C5_10  and  N1_3 
REMARK    2  A    between atoms: C7_12  and  N2_4 
REMARK    3  A    between atoms: C5_10  and  C6_11 
ROOT
HETATM    1  C5  UNK     1      19.999  -4.677  37.103  1.00  0.00     0.312 C 
ENDROOT
BRANCH   1   2
HETATM    2  N1  UNK     1      19.451  -3.606  36.273  1.00  0.00     0.095 N 
HETATM    3  C1  UNK     1      20.532  -2.838  35.643  1.00  0.00     0.292 C 
HETATM    4  C3  UNK     1      19.971  -1.748  34.726  1.00  0.00     0.154 C 
HETATM    5  N2  UNK     1      19.018  -0.904  35.453  1.00  0.00    -0.362 N 
HETATM    6  C4  UNK     1      17.981  -1.620  36.205  1.00  0.00     0.154 C 
HETATM    7  C2  UNK     1      18.606  -2.713  37.075  1.00  0.00     0.292 C 
BRANCH   5   8
HETATM    8  C7  UNK     1      18.717   0.375  34.972  1.00  0.00     0.125 A 
HETATM    9  C11 UNK     1      18.765   1.422  35.879  1.00  0.00     0.050 A 
HETATM   10  C17 UNK     1      18.468   2.698  35.417  1.00  0.00     0.005 A 
HETATM   11  C19 UNK     1      18.136   2.888  34.079  1.00  0.00     0.019 A 
HETATM   12  C18 UNK     1      18.117   1.776  33.253  1.00  0.00     0.119 A 
HETATM   13  N3  UNK     1      18.399   0.520  33.666  1.00  0.00    -0.244 NA
ENDBRANCH   5   8
ENDBRANCH   1   2
BRANCH   1  14
HETATM   14  C6  UNK     1      20.098  -5.971  36.349  1.00  0.00    -0.011 A 
HETATM   15  C8  UNK     1      19.921  -7.247  37.057  1.00  0.00     0.006 A 
HETATM   16  C10 UNK     1      20.019  -8.433  36.329  1.00  0.00     0.090 A 
HETATM   17  C12 UNK     1      19.656  -7.346  38.429  1.00  0.00     0.015 A 
HETATM   18  O1  UNK     1      20.282  -8.420  34.944  1.00  0.00    -0.275 OA
HETATM   19  C14 UNK     1      19.863  -9.688  36.923  1.00  0.00     0.045 A 
HETATM   20  C13 UNK     1      20.454  -7.232  34.252  1.00  0.00     0.288 A 
HETATM   21  O2  UNK     1      20.683  -7.208  33.047  1.00  0.00    -0.260 OA
HETATM   22  C9  UNK     1      20.347  -5.988  35.033  1.00  0.00     0.092 A 
HETATM   23  C15 UNK     1      19.601  -9.765  38.286  1.00  0.00    -0.059 A 
HETATM   24  C16 UNK     1      19.497  -8.596  39.039  1.00  0.00     0.007 A 
HETATM   25  C20 UNK     1      19.430 -11.092  38.942  1.00  0.00     0.048 C 
ENDBRANCH   1  14
TORSDOF 3
ENDMDL
