MODEL 1
REMARK VINA RESULT:      -9.1      0.000      0.000
REMARK  3 active torsions:
REMARK  status: ('A' for Active; 'I' for Inactive)
REMARK    1  A    between atoms: C13_19  and  N2_6 
REMARK    2  A    between atoms: C9_15  and  N2_6 
REMARK    3  A    between atoms: C2_8  and  C5_11 
ROOT
HETATM    1  S1  UNK     1      19.289   4.710  30.422  1.00  0.00    -0.061 SA
HETATM    2  N1  UNK     1      17.432   4.736  32.219  1.00  0.00    -0.223 NA
HETATM    3  C5  UNK     1      17.850   6.034  32.024  1.00  0.00     0.082 A 
HETATM    4  C9  UNK     1      18.124   3.950  31.425  1.00  0.00     0.171 A 
HETATM    5  C10 UNK     1      18.844   6.225  31.094  1.00  0.00     0.086 A 
ENDROOT
BRANCH   3   6
HETATM    6  C2  UNK     1      17.236   7.090  32.789  1.00  0.00     0.070 A 
HETATM    7  C3  UNK     1      16.163   7.761  32.337  1.00  0.00     0.034 A 
HETATM    8  C1  UNK     1      15.544   8.822  33.114  1.00  0.00     0.000 A 
HETATM    9  C4  UNK     1      16.078   9.139  34.356  1.00  0.00     0.089 A 
HETATM   10  C7  UNK     1      14.430   9.530  32.657  1.00  0.00     0.033 A 
HETATM   11  O1  UNK     1      17.201   8.447  34.845  1.00  0.00    -0.274 OA
HETATM   12  C8  UNK     1      15.533  10.141  35.155  1.00  0.00     0.039 A 
HETATM   13  C6  UNK     1      17.825   7.437  34.116  1.00  0.00     0.301 A 
HETATM   14  O2  UNK     1      18.821   6.870  34.558  1.00  0.00    -0.259 OA
HETATM   15  C12 UNK     1      14.423  10.844  34.693  1.00  0.00     0.022 A 
HETATM   16  C11 UNK     1      13.872  10.539  33.447  1.00  0.00     0.011 A 
HETATM   17 Br1  UNK     1      12.360  11.492  32.827  1.00  0.00    -0.051 Br
ENDBRANCH   3   6
BRANCH   4  18
HETATM   18  N2  UNK     1      17.968   2.601  31.358  1.00  0.00    -0.335 N 
HETATM   19  H6  UNK     1      17.271   2.182  31.970  1.00  0.00     0.168 HD
BRANCH  18  20
HETATM   20  C13 UNK     1      18.596   1.651  30.511  1.00  0.00     0.034 A 
HETATM   21  C14 UNK     1      19.644   0.879  31.000  1.00  0.00     0.029 A 
HETATM   22  C16 UNK     1      20.262  -0.055  30.167  1.00  0.00     0.002 A 
HETATM   23  C18 UNK     1      19.828  -0.210  28.851  1.00  0.00     0.000 A 
HETATM   24  C17 UNK     1      18.777   0.570  28.366  1.00  0.00     0.002 A 
HETATM   25  C15 UNK     1      18.159   1.502  29.200  1.00  0.00     0.029 A 
ENDBRANCH  18  20
ENDBRANCH   4  18
TORSDOF 3
ENDMDL
MODEL 2
REMARK VINA RESULT:      -8.9      3.101      3.849
REMARK  3 active torsions:
REMARK  status: ('A' for Active; 'I' for Inactive)
REMARK    1  A    between atoms: C13_19  and  N2_6 
REMARK    2  A    between atoms: C9_15  and  N2_6 
REMARK    3  A    between atoms: C2_8  and  C5_11 
ROOT
HETATM    1  S1  UNK     1      18.620   2.476  30.958  1.00  0.00    -0.061 SA
HETATM    2  N1  UNK     1      18.017   3.594  33.209  1.00  0.00    -0.223 NA
HETATM    3  C5  UNK     1      18.195   4.590  32.275  1.00  0.00     0.082 A 
HETATM    4  C9  UNK     1      18.218   2.433  32.625  1.00  0.00     0.171 A 
HETATM    5  C10 UNK     1      18.524   4.188  31.003  1.00  0.00     0.086 A 
ENDROOT
BRANCH   3   6
HETATM    6  C2  UNK     1      18.029   5.964  32.679  1.00  0.00     0.070 A 
HETATM    7  C3  UNK     1      16.832   6.574  32.648  1.00  0.00     0.034 A 
HETATM    8  C1  UNK     1      16.670   7.958  33.060  1.00  0.00     0.000 A 
HETATM    9  C4  UNK     1      17.785   8.659  33.500  1.00  0.00     0.089 A 
HETATM   10  C7  UNK     1      15.432   8.605  33.032  1.00  0.00     0.033 A 
HETATM   11  O1  UNK     1      19.046   8.037  33.539  1.00  0.00    -0.274 OA
HETATM   12  C8  UNK     1      17.701   9.986  33.913  1.00  0.00     0.039 A 
HETATM   13  C6  UNK     1      19.236   6.718  33.135  1.00  0.00     0.301 A 
HETATM   14  O2  UNK     1      20.354   6.212  33.155  1.00  0.00    -0.259 OA
HETATM   15  C12 UNK     1      16.464  10.627  33.882  1.00  0.00     0.022 A 
HETATM   16  C11 UNK     1      15.332   9.938  33.442  1.00  0.00     0.011 A 
HETATM   17 Br1  UNK     1      13.654  10.810  33.408  1.00  0.00    -0.051 Br
ENDBRANCH   3   6
BRANCH   4  18
HETATM   18  N2  UNK     1      18.123   1.233  33.255  1.00  0.00    -0.335 N 
HETATM   19  H6  UNK     1      18.463   0.415  32.753  1.00  0.00     0.168 HD
BRANCH  18  20
HETATM   20  C13 UNK     1      17.663   0.922  34.562  1.00  0.00     0.034 A 
HETATM   21  C14 UNK     1      16.349   0.508  34.750  1.00  0.00     0.029 A 
HETATM   22  C16 UNK     1      15.897   0.203  36.034  1.00  0.00     0.002 A 
HETATM   23  C18 UNK     1      16.763   0.314  37.122  1.00  0.00     0.000 A 
HETATM   24  C17 UNK     1      18.080   0.732  36.927  1.00  0.00     0.002 A 
HETATM   25  C15 UNK     1      18.531   1.036  35.642  1.00  0.00     0.029 A 
ENDBRANCH  18  20
ENDBRANCH   4  18
TORSDOF 3
ENDMDL
MODEL 3
REMARK VINA RESULT:      -8.7      1.721      2.318
REMARK  3 active torsions:
REMARK  status: ('A' for Active; 'I' for Inactive)
REMARK    1  A    between atoms: C13_19  and  N2_6 
REMARK    2  A    between atoms: C9_15  and  N2_6 
REMARK    3  A    between atoms: C2_8  and  C5_11 
ROOT
HETATM    1  S1  UNK     1      18.282   2.030  33.234  1.00  0.00    -0.061 SA
HETATM    2  N1  UNK     1      18.198   4.086  31.669  1.00  0.00    -0.223 NA
HETATM    3  C5  UNK     1      18.188   4.542  32.969  1.00  0.00     0.082 A 
HETATM    4  C9  UNK     1      18.245   2.772  31.687  1.00  0.00     0.171 A 
HETATM    5  C10 UNK     1      18.229   3.586  33.955  1.00  0.00     0.086 A 
ENDROOT
BRANCH   3   6
HETATM    6  C2  UNK     1      18.137   5.962  33.212  1.00  0.00     0.070 A 
HETATM    7  C3  UNK     1      16.979   6.598  33.456  1.00  0.00     0.034 A 
HETATM    8  C1  UNK     1      16.932   8.029  33.705  1.00  0.00     0.000 A 
HETATM    9  C4  UNK     1      18.121   8.748  33.694  1.00  0.00     0.089 A 
HETATM   10  C7  UNK     1      15.737   8.705  33.960  1.00  0.00     0.033 A 
HETATM   11  O1  UNK     1      19.342   8.098  33.439  1.00  0.00    -0.274 OA
HETATM   12  C8  UNK     1      18.150  10.120  33.928  1.00  0.00     0.039 A 
HETATM   13  C6  UNK     1      19.416   6.731  33.181  1.00  0.00     0.301 A 
HETATM   14  O2  UNK     1      20.494   6.198  32.935  1.00  0.00    -0.259 OA
HETATM   15  C12 UNK     1      16.954  10.789  34.181  1.00  0.00     0.022 A 
HETATM   16  C11 UNK     1      15.750  10.083  34.196  1.00  0.00     0.011 A 
HETATM   17 Br1  UNK     1      14.129  10.994  34.545  1.00  0.00    -0.051 Br
ENDBRANCH   3   6
BRANCH   4  18
HETATM   18  N2  UNK     1      18.268   1.992  30.574  1.00  0.00    -0.335 N 
HETATM   19  H6  UNK     1      17.676   2.273  29.796  1.00  0.00     0.168 HD
BRANCH  18  20
HETATM   20  C13 UNK     1      19.047   0.841  30.283  1.00  0.00     0.034 A 
HETATM   21  C14 UNK     1      19.401   0.565  28.967  1.00  0.00     0.029 A 
HETATM   22  C16 UNK     1      20.165  -0.567  28.680  1.00  0.00     0.002 A 
HETATM   23  C18 UNK     1      20.569  -1.414  29.712  1.00  0.00     0.000 A 
HETATM   24  C17 UNK     1      20.209  -1.132  31.030  1.00  0.00     0.002 A 
HETATM   25  C15 UNK     1      19.445  -0.000  31.316  1.00  0.00     0.029 A 
ENDBRANCH  18  20
ENDBRANCH   4  18
TORSDOF 3
ENDMDL
MODEL 4
REMARK VINA RESULT:      -8.7      6.315      8.440
REMARK  3 active torsions:
REMARK  status: ('A' for Active; 'I' for Inactive)
REMARK    1  A    between atoms: C13_19  and  N2_6 
REMARK    2  A    between atoms: C9_15  and  N2_6 
REMARK    3  A    between atoms: C2_8  and  C5_11 
ROOT
HETATM    1  S1  UNK     1      17.658  -2.016  36.918  1.00  0.00    -0.061 SA
HETATM    2  N1  UNK     1      19.572  -1.287  35.341  1.00  0.00    -0.223 NA
HETATM    3  C5  UNK     1      18.425  -0.638  34.942  1.00  0.00     0.082 A 
HETATM    4  C9  UNK     1      19.286  -2.044  36.377  1.00  0.00     0.171 A 
HETATM    5  C10 UNK     1      17.288  -0.901  35.668  1.00  0.00     0.086 A 
ENDROOT
BRANCH   3   6
HETATM    6  C2  UNK     1      18.483   0.256  33.813  1.00  0.00     0.070 A 
HETATM    7  C3  UNK     1      18.297   1.580  33.947  1.00  0.00     0.034 A 
HETATM    8  C1  UNK     1      18.362   2.478  32.806  1.00  0.00     0.000 A 
HETATM    9  C4  UNK     1      18.628   1.946  31.551  1.00  0.00     0.089 A 
HETATM   10  C7  UNK     1      18.169   3.856  32.928  1.00  0.00     0.033 A 
HETATM   11  O1  UNK     1      18.825   0.562  31.392  1.00  0.00    -0.274 OA
HETATM   12  C8  UNK     1      18.707   2.749  30.416  1.00  0.00     0.039 A 
HETATM   13  C6  UNK     1      18.753  -0.325  32.464  1.00  0.00     0.301 A 
HETATM   14  O2  UNK     1      18.902  -1.531  32.289  1.00  0.00    -0.259 OA
HETATM   15  C12 UNK     1      18.514   4.122  30.544  1.00  0.00     0.022 A 
HETATM   16  C11 UNK     1      18.245   4.675  31.797  1.00  0.00     0.011 A 
HETATM   17 Br1  UNK     1      17.990   6.541  31.968  1.00  0.00    -0.051 Br
ENDBRANCH   3   6
BRANCH   4  18
HETATM   18  N2  UNK     1      20.189  -2.825  37.027  1.00  0.00    -0.335 N 
HETATM   19  H6  UNK     1      20.778  -2.374  37.725  1.00  0.00     0.168 HD
BRANCH  18  20
HETATM   20  C13 UNK     1      20.422  -4.222  36.934  1.00  0.00     0.034 A 
HETATM   21  C14 UNK     1      21.261  -4.843  37.852  1.00  0.00     0.029 A 
HETATM   22  C16 UNK     1      21.491  -6.216  37.760  1.00  0.00     0.002 A 
HETATM   23  C18 UNK     1      20.880  -6.958  36.749  1.00  0.00     0.000 A 
HETATM   24  C17 UNK     1      20.040  -6.328  35.830  1.00  0.00     0.002 A 
HETATM   25  C15 UNK     1      19.811  -4.956  35.923  1.00  0.00     0.029 A 
ENDBRANCH  18  20
ENDBRANCH   4  18
TORSDOF 3
ENDMDL
MODEL 5
REMARK VINA RESULT:      -8.6      1.787      2.097
REMARK  3 active torsions:
REMARK  status: ('A' for Active; 'I' for Inactive)
REMARK    1  A    between atoms: C13_19  and  N2_6 
REMARK    2  A    between atoms: C9_15  and  N2_6 
REMARK    3  A    between atoms: C2_8  and  C5_11 
ROOT
HETATM    1  S1  UNK     1      19.315   5.019  30.653  1.00  0.00    -0.061 SA
HETATM    2  N1  UNK     1      17.202   4.990  32.140  1.00  0.00    -0.223 NA
HETATM    3  C5  UNK     1      17.522   6.305  31.886  1.00  0.00     0.082 A 
HETATM    4  C9  UNK     1      18.081   4.221  31.539  1.00  0.00     0.171 A 
HETATM    5  C10 UNK     1      18.629   6.526  31.102  1.00  0.00     0.086 A 
ENDROOT
BRANCH   3   6
HETATM    6  C2  UNK     1      16.698   7.347  32.444  1.00  0.00     0.070 A 
HETATM    7  C3  UNK     1      17.228   8.422  33.052  1.00  0.00     0.034 A 
HETATM    8  C1  UNK     1      16.393   9.472  33.609  1.00  0.00     0.000 A 
HETATM    9  C4  UNK     1      15.013   9.357  33.502  1.00  0.00     0.089 A 
HETATM   10  C7  UNK     1      16.928  10.595  34.245  1.00  0.00     0.033 A 
HETATM   11  O1  UNK     1      14.440   8.238  32.870  1.00  0.00    -0.274 OA
HETATM   12  C8  UNK     1      14.153  10.327  34.010  1.00  0.00     0.039 A 
HETATM   13  C6  UNK     1      15.215   7.208  32.340  1.00  0.00     0.301 A 
HETATM   14  O2  UNK     1      14.685   6.231  31.819  1.00  0.00    -0.259 OA
HETATM   15  C12 UNK     1      14.694  11.444  34.643  1.00  0.00     0.022 A 
HETATM   16  C11 UNK     1      16.078  11.578  34.761  1.00  0.00     0.011 A 
HETATM   17 Br1  UNK     1      16.808  13.099  35.616  1.00  0.00    -0.051 Br
ENDBRANCH   3   6
BRANCH   4  18
HETATM   18  N2  UNK     1      18.064   2.862  31.579  1.00  0.00    -0.335 N 
HETATM   19  H6  UNK     1      17.606   2.425  32.376  1.00  0.00     0.168 HD
BRANCH  18  20
HETATM   20  C13 UNK     1      18.547   1.915  30.638  1.00  0.00     0.034 A 
HETATM   21  C14 UNK     1      19.553   1.029  31.007  1.00  0.00     0.029 A 
HETATM   22  C16 UNK     1      20.028   0.099  30.081  1.00  0.00     0.002 A 
HETATM   23  C18 UNK     1      19.494   0.062  28.793  1.00  0.00     0.000 A 
HETATM   24  C17 UNK     1      18.486   0.956  28.429  1.00  0.00     0.002 A 
HETATM   25  C15 UNK     1      18.011   1.885  29.355  1.00  0.00     0.029 A 
ENDBRANCH  18  20
ENDBRANCH   4  18
TORSDOF 3
ENDMDL
MODEL 6
REMARK VINA RESULT:      -8.6      8.201     11.105
REMARK  3 active torsions:
REMARK  status: ('A' for Active; 'I' for Inactive)
REMARK    1  A    between atoms: C13_19  and  N2_6 
REMARK    2  A    between atoms: C9_15  and  N2_6 
REMARK    3  A    between atoms: C2_8  and  C5_11 
ROOT
HETATM    1  S1  UNK     1      20.296  -3.111  37.083  1.00  0.00    -0.061 SA
HETATM    2  N1  UNK     1      20.076  -4.283  34.790  1.00  0.00    -0.223 NA
HETATM    3  C5  UNK     1      20.234  -2.934  34.562  1.00  0.00     0.082 A 
HETATM    4  C9  UNK     1      20.093  -4.493  36.087  1.00  0.00     0.171 A 
HETATM    5  C10 UNK     1      20.369  -2.136  35.673  1.00  0.00     0.086 A 
ENDROOT
BRANCH   3   6
HETATM    6  C2  UNK     1      20.246  -2.450  33.204  1.00  0.00     0.070 A 
HETATM    7  C3  UNK     1      19.670  -1.286  32.861  1.00  0.00     0.034 A 
HETATM    8  C1  UNK     1      19.690  -0.801  31.491  1.00  0.00     0.000 A 
HETATM    9  C4  UNK     1      20.327  -1.563  30.521  1.00  0.00     0.089 A 
HETATM   10  C7  UNK     1      19.094   0.407  31.118  1.00  0.00     0.033 A 
HETATM   11  O1  UNK     1      20.935  -2.784  30.862  1.00  0.00    -0.274 OA
HETATM   12  C8  UNK     1      20.387  -1.155  29.190  1.00  0.00     0.039 A 
HETATM   13  C6  UNK     1      20.919  -3.283  32.163  1.00  0.00     0.301 A 
HETATM   14  O2  UNK     1      21.435  -4.366  32.424  1.00  0.00    -0.259 OA
HETATM   15  C12 UNK     1      19.791   0.049  28.824  1.00  0.00     0.022 A 
HETATM   16  C11 UNK     1      19.145   0.828  29.786  1.00  0.00     0.011 A 
HETATM   17 Br1  UNK     1      18.342   2.466  29.285  1.00  0.00    -0.051 Br
ENDBRANCH   3   6
BRANCH   4  18
HETATM   18  N2  UNK     1      19.964  -5.717  36.666  1.00  0.00    -0.335 N 
HETATM   19  H6  UNK     1      19.181  -5.850  37.303  1.00  0.00     0.168 HD
BRANCH  18  20
HETATM   20  C13 UNK     1      20.732  -6.897  36.486  1.00  0.00     0.034 A 
HETATM   21  C14 UNK     1      21.667  -7.263  37.447  1.00  0.00     0.029 A 
HETATM   22  C16 UNK     1      22.423  -8.423  37.270  1.00  0.00     0.002 A 
HETATM   23  C18 UNK     1      22.237  -9.209  36.133  1.00  0.00     0.000 A 
HETATM   24  C17 UNK     1      21.297  -8.834  35.171  1.00  0.00     0.002 A 
HETATM   25  C15 UNK     1      20.542  -7.675  35.349  1.00  0.00     0.029 A 
ENDBRANCH  18  20
ENDBRANCH   4  18
TORSDOF 3
ENDMDL
MODEL 7
REMARK VINA RESULT:      -8.3     22.213     23.773
REMARK  3 active torsions:
REMARK  status: ('A' for Active; 'I' for Inactive)
REMARK    1  A    between atoms: C13_19  and  N2_6 
REMARK    2  A    between atoms: C9_15  and  N2_6 
REMARK    3  A    between atoms: C2_8  and  C5_11 
ROOT
HETATM    1  S1  UNK     1      14.683   4.798   9.552  1.00  0.00    -0.061 SA
HETATM    2  N1  UNK     1      14.127   7.171   8.692  1.00  0.00    -0.223 NA
HETATM    3  C5  UNK     1      15.023   7.296   9.730  1.00  0.00     0.082 A 
HETATM    4  C9  UNK     1      13.874   5.894   8.509  1.00  0.00     0.171 A 
HETATM    5  C10 UNK     1      15.442   6.129  10.323  1.00  0.00     0.086 A 
ENDROOT
BRANCH   3   6
HETATM    6  C2  UNK     1      15.458   8.612  10.124  1.00  0.00     0.070 A 
HETATM    7  C3  UNK     1      16.556   9.183   9.601  1.00  0.00     0.034 A 
HETATM    8  C1  UNK     1      16.987  10.513   9.999  1.00  0.00     0.000 A 
HETATM    9  C4  UNK     1      16.237  11.205  10.940  1.00  0.00     0.089 A 
HETATM   10  C7  UNK     1      18.127  11.119   9.466  1.00  0.00     0.033 A 
HETATM   11  O1  UNK     1      15.084  10.623  11.499  1.00  0.00    -0.274 OA
HETATM   12  C8  UNK     1      16.590  12.484  11.364  1.00  0.00     0.039 A 
HETATM   13  C6  UNK     1      14.655   9.345  11.149  1.00  0.00     0.301 A 
HETATM   14  O2  UNK     1      13.661   8.853  11.675  1.00  0.00    -0.259 OA
HETATM   15  C12 UNK     1      17.728  13.083  10.829  1.00  0.00     0.022 A 
HETATM   16  C11 UNK     1      18.496  12.402   9.882  1.00  0.00     0.011 A 
HETATM   17 Br1  UNK     1      20.037  13.221   9.153  1.00  0.00    -0.051 Br
ENDBRANCH   3   6
BRANCH   4  18
HETATM   18  N2  UNK     1      13.029   5.409   7.561  1.00  0.00    -0.335 N 
HETATM   19  H6  UNK     1      13.377   4.661   6.965  1.00  0.00     0.168 HD
BRANCH  18  20
HETATM   20  C13 UNK     1      11.677   5.744   7.285  1.00  0.00     0.034 A 
HETATM   21  C14 UNK     1      10.738   5.717   8.311  1.00  0.00     0.029 A 
HETATM   22  C16 UNK     1       9.409   6.045   8.040  1.00  0.00     0.002 A 
HETATM   23  C18 UNK     1       9.029   6.397   6.745  1.00  0.00     0.000 A 
HETATM   24  C17 UNK     1       9.976   6.420   5.720  1.00  0.00     0.002 A 
HETATM   25  C15 UNK     1      11.304   6.092   5.992  1.00  0.00     0.029 A 
ENDBRANCH  18  20
ENDBRANCH   4  18
TORSDOF 3
ENDMDL
MODEL 8
REMARK VINA RESULT:      -8.3      8.880     11.846
REMARK  3 active torsions:
REMARK  status: ('A' for Active; 'I' for Inactive)
REMARK    1  A    between atoms: C13_19  and  N2_6 
REMARK    2  A    between atoms: C9_15  and  N2_6 
REMARK    3  A    between atoms: C2_8  and  C5_11 
ROOT
HETATM    1  S1  UNK     1      21.117  -5.465  38.119  1.00  0.00    -0.061 SA
HETATM    2  N1  UNK     1      19.552  -5.317  36.068  1.00  0.00    -0.223 NA
HETATM    3  C5  UNK     1      20.122  -4.077  36.256  1.00  0.00     0.082 A 
HETATM    4  C9  UNK     1      20.005  -6.130  36.995  1.00  0.00     0.171 A 
HETATM    5  C10 UNK     1      20.995  -3.957  37.311  1.00  0.00     0.086 A 
ENDROOT
BRANCH   3   6
HETATM    6  C2  UNK     1      19.778  -3.005  35.356  1.00  0.00     0.070 A 
HETATM    7  C3  UNK     1      20.244  -2.958  34.097  1.00  0.00     0.034 A 
HETATM    8  C1  UNK     1      19.890  -1.877  33.193  1.00  0.00     0.000 A 
HETATM    9  C4  UNK     1      19.044  -0.874  33.648  1.00  0.00     0.089 A 
HETATM   10  C7  UNK     1      20.368  -1.813  31.881  1.00  0.00     0.033 A 
HETATM   11  O1  UNK     1      18.547  -0.907  34.964  1.00  0.00    -0.274 OA
HETATM   12  C8  UNK     1      18.661   0.189  32.834  1.00  0.00     0.039 A 
HETATM   13  C6  UNK     1      18.881  -1.921  35.858  1.00  0.00     0.301 A 
HETATM   14  O2  UNK     1      18.453  -1.907  37.009  1.00  0.00    -0.259 OA
HETATM   15  C12 UNK     1      19.141   0.248  31.528  1.00  0.00     0.022 A 
HETATM   16  C11 UNK     1      19.993  -0.751  31.052  1.00  0.00     0.011 A 
HETATM   17 Br1  UNK     1      20.637  -0.671  29.276  1.00  0.00    -0.051 Br
ENDBRANCH   3   6
BRANCH   4  18
HETATM   18  N2  UNK     1      19.649  -7.438  37.107  1.00  0.00    -0.335 N 
HETATM   19  H6  UNK     1      18.741  -7.639  37.521  1.00  0.00     0.168 HD
BRANCH  18  20
HETATM   20  C13 UNK     1      20.329  -8.608  36.680  1.00  0.00     0.034 A 
HETATM   21  C14 UNK     1      21.003  -8.609  35.464  1.00  0.00     0.029 A 
HETATM   22  C16 UNK     1      21.671  -9.760  35.045  1.00  0.00     0.002 A 
HETATM   23  C18 UNK     1      21.659 -10.903  35.844  1.00  0.00     0.000 A 
HETATM   24  C17 UNK     1      20.979 -10.896  37.063  1.00  0.00     0.002 A 
HETATM   25  C15 UNK     1      20.312  -9.745  37.482  1.00  0.00     0.029 A 
ENDBRANCH  18  20
ENDBRANCH   4  18
TORSDOF 3
ENDMDL
MODEL 9
REMARK VINA RESULT:      -8.3     22.736     24.428
REMARK  3 active torsions:
REMARK  status: ('A' for Active; 'I' for Inactive)
REMARK    1  A    between atoms: C13_19  and  N2_6 
REMARK    2  A    between atoms: C9_15  and  N2_6 
REMARK    3  A    between atoms: C2_8  and  C5_11 
ROOT
HETATM    1  S1  UNK     1       9.389   6.188   6.686  1.00  0.00    -0.061 SA
HETATM    2  N1  UNK     1      10.059   7.372   8.884  1.00  0.00    -0.223 NA
HETATM    3  C5  UNK     1      11.215   7.034   8.216  1.00  0.00     0.082 A 
HETATM    4  C9  UNK     1       9.031   6.973   8.169  1.00  0.00     0.171 A 
HETATM    5  C10 UNK     1      11.062   6.389   7.012  1.00  0.00     0.086 A 
ENDROOT
BRANCH   3   6
HETATM    6  C2  UNK     1      12.487   7.368   8.805  1.00  0.00     0.070 A 
HETATM    7  C3  UNK     1      13.210   8.419   8.383  1.00  0.00     0.034 A 
HETATM    8  C1  UNK     1      14.490   8.755   8.984  1.00  0.00     0.000 A 
HETATM    9  C4  UNK     1      14.968   7.967  10.023  1.00  0.00     0.089 A 
HETATM   10  C7  UNK     1      15.254   9.843   8.555  1.00  0.00     0.033 A 
HETATM   11  O1  UNK     1      14.225   6.863  10.477  1.00  0.00    -0.274 OA
HETATM   12  C8  UNK     1      16.185   8.234  10.646  1.00  0.00     0.039 A 
HETATM   13  C6  UNK     1      13.003   6.507   9.911  1.00  0.00     0.301 A 
HETATM   14  O2  UNK     1      12.391   5.521  10.311  1.00  0.00    -0.259 OA
HETATM   15  C12 UNK     1      16.942   9.320  10.214  1.00  0.00     0.022 A 
HETATM   16  C11 UNK     1      16.478  10.123   9.171  1.00  0.00     0.011 A 
HETATM   17 Br1  UNK     1      17.507  11.601   8.591  1.00  0.00    -0.051 Br
ENDBRANCH   3   6
BRANCH   4  18
HETATM   18  N2  UNK     1       7.733   7.147   8.532  1.00  0.00    -0.335 N 
HETATM   19  H6  UNK     1       7.096   7.509   7.825  1.00  0.00     0.168 HD
BRANCH  18  20
HETATM   20  C13 UNK     1       7.079   6.847   9.756  1.00  0.00     0.034 A 
HETATM   21  C14 UNK     1       7.413   5.689  10.449  1.00  0.00     0.029 A 
HETATM   22  C16 UNK     1       6.769   5.394  11.652  1.00  0.00     0.002 A 
HETATM   23  C18 UNK     1       5.797   6.260  12.153  1.00  0.00     0.000 A 
HETATM   24  C17 UNK     1       5.466   7.420  11.451  1.00  0.00     0.002 A 
HETATM   25  C15 UNK     1       6.110   7.714  10.249  1.00  0.00     0.029 A 
ENDBRANCH  18  20
ENDBRANCH   4  18
TORSDOF 3
ENDMDL
MODEL 10
REMARK VINA RESULT:      -8.3     16.575     18.411
REMARK  3 active torsions:
REMARK  status: ('A' for Active; 'I' for Inactive)
REMARK    1  A    between atoms: C13_19  and  N2_6 
REMARK    2  A    between atoms: C9_15  and  N2_6 
REMARK    3  A    between atoms: C2_8  and  C5_11 
ROOT
HETATM    1  S1  UNK     1      26.628  -9.231  39.459  1.00  0.00    -0.061 SA
HETATM    2  N1  UNK     1      26.700  -7.461  37.577  1.00  0.00    -0.223 NA
HETATM    3  C5  UNK     1      27.877  -7.373  38.286  1.00  0.00     0.082 A 
HETATM    4  C9  UNK     1      25.961  -8.410  38.108  1.00  0.00     0.171 A 
HETATM    5  C10 UNK     1      28.026  -8.244  39.339  1.00  0.00     0.086 A 
ENDROOT
BRANCH   3   6
HETATM    6  C2  UNK     1      28.859  -6.394  37.893  1.00  0.00     0.070 A 
HETATM    7  C3  UNK     1      29.907  -6.714  37.115  1.00  0.00     0.034 A 
HETATM    8  C1  UNK     1      30.892  -5.723  36.717  1.00  0.00     0.000 A 
HETATM    9  C4  UNK     1      30.736  -4.413  37.152  1.00  0.00     0.089 A 
HETATM   10  C7  UNK     1      31.987  -6.040  35.909  1.00  0.00     0.033 A 
HETATM   11  O1  UNK     1      29.646  -4.061  37.968  1.00  0.00    -0.274 OA
HETATM   12  C8  UNK     1      31.641  -3.413  36.806  1.00  0.00     0.039 A 
HETATM   13  C6  UNK     1      28.695  -4.992  38.378  1.00  0.00     0.301 A 
HETATM   14  O2  UNK     1      27.769  -4.659  39.113  1.00  0.00    -0.259 OA
HETATM   15  C12 UNK     1      32.731  -3.735  36.001  1.00  0.00     0.022 A 
HETATM   16  C11 UNK     1      32.904  -5.046  35.554  1.00  0.00     0.011 A 
HETATM   17 Br1  UNK     1      34.383  -5.479  34.456  1.00  0.00    -0.051 Br
ENDBRANCH   3   6
BRANCH   4  18
HETATM   18  N2  UNK     1      24.731  -8.768  37.654  1.00  0.00    -0.335 N 
HETATM   19  H6  UNK     1      24.688  -9.520  36.969  1.00  0.00     0.168 HD
BRANCH  18  20
HETATM   20  C13 UNK     1      23.447  -8.290  38.024  1.00  0.00     0.034 A 
HETATM   21  C14 UNK     1      23.286  -7.609  39.226  1.00  0.00     0.029 A 
HETATM   22  C16 UNK     1      22.023  -7.140  39.591  1.00  0.00     0.002 A 
HETATM   23  C18 UNK     1      20.931  -7.356  38.751  1.00  0.00     0.000 A 
HETATM   24  C17 UNK     1      21.099  -8.042  37.548  1.00  0.00     0.002 A 
HETATM   25  C15 UNK     1      22.361  -8.510  37.183  1.00  0.00     0.029 A 
ENDBRANCH  18  20
ENDBRANCH   4  18
TORSDOF 3
ENDMDL
