MODEL 1
REMARK VINA RESULT:      -7.2      0.000      0.000
REMARK  5 active torsions:
REMARK  status: ('A' for Active; 'I' for Inactive)
REMARK    1  A    between atoms: C4_7  and  O1_1 
REMARK    2  A    between atoms: C14_17  and  O3_3 
REMARK    3  A    between atoms: C1_4  and  C3_6 
REMARK    4  A    between atoms: C2_5  and  C5_8 
REMARK    5  A    between atoms: C3_6  and  C7_10 
ROOT
HETATM    1  O2  UNK     1      18.110   9.693  33.023  1.00  0.00    -0.287 OA
HETATM    2  C3  UNK     1      17.659   8.736  33.643  1.00  0.00     0.184 C 
ENDROOT
BRANCH   2   3
HETATM    3  C1  UNK     1      16.343   8.167  33.262  1.00  0.00     0.047 A 
HETATM    4  C4  UNK     1      16.047   7.878  31.930  1.00  0.00     0.079 A 
HETATM    5  C10 UNK     1      14.804   7.344  31.593  1.00  0.00     0.037 A 
HETATM    6  C15 UNK     1      13.856   7.100  32.587  1.00  0.00     0.003 A 
HETATM    7  C11 UNK     1      14.153   7.389  33.919  1.00  0.00     0.001 A 
HETATM    8  C6  UNK     1      15.396   7.924  34.256  1.00  0.00     0.018 A 
BRANCH   4   9
HETATM    9  O1  UNK     1      16.959   8.109  30.944  1.00  0.00    -0.360 OA
HETATM   10  H11 UNK     1      17.515   7.319  30.834  1.00  0.00     0.217 HD
ENDBRANCH   4   9
ENDBRANCH   2   3
BRANCH   2  11
HETATM   11  C7  UNK     1      18.396   8.085  34.761  1.00  0.00     0.056 C 
HETATM   12  C5  UNK     1      19.018   6.900  34.572  1.00  0.00     0.015 C 
BRANCH  12  13
HETATM   13  C2  UNK     1      19.042   6.157  33.321  1.00  0.00    -0.036 A 
HETATM   14  C8  UNK     1      18.147   5.107  33.117  1.00  0.00     0.014 A 
HETATM   15  C12 UNK     1      18.171   4.394  31.919  1.00  0.00     0.037 A 
HETATM   16  C14 UNK     1      19.090   4.729  30.925  1.00  0.00     0.065 A 
HETATM   17  C13 UNK     1      19.986   5.779  31.129  1.00  0.00     0.037 A 
HETATM   18  C9  UNK     1      19.962   6.493  32.327  1.00  0.00     0.014 A 
BRANCH  16  19
HETATM   19  O3  UNK     1      19.114   4.032  29.756  1.00  0.00    -0.361 OA
HETATM   20  H12 UNK     1      18.732   4.584  29.053  1.00  0.00     0.217 HD
ENDBRANCH  16  19
ENDBRANCH  12  13
ENDBRANCH   2  11
TORSDOF 5
ENDMDL
MODEL 2
REMARK VINA RESULT:      -6.9     14.603     16.661
REMARK  5 active torsions:
REMARK  status: ('A' for Active; 'I' for Inactive)
REMARK    1  A    between atoms: C4_7  and  O1_1 
REMARK    2  A    between atoms: C14_17  and  O3_3 
REMARK    3  A    between atoms: C1_4  and  C3_6 
REMARK    4  A    between atoms: C2_5  and  C5_8 
REMARK    5  A    between atoms: C3_6  and  C7_10 
ROOT
HETATM    1  O2  UNK     1      20.610 -11.143  37.144  1.00  0.00    -0.287 OA
HETATM    2  C3  UNK     1      19.990 -10.139  37.479  1.00  0.00     0.184 C 
ENDROOT
BRANCH   2   3
HETATM    3  C1  UNK     1      19.835  -9.017  36.522  1.00  0.00     0.047 A 
HETATM    4  C4  UNK     1      20.925  -8.541  35.794  1.00  0.00     0.079 A 
HETATM    5  C10 UNK     1      20.758  -7.484  34.900  1.00  0.00     0.037 A 
HETATM    6  C15 UNK     1      19.502  -6.901  34.734  1.00  0.00     0.003 A 
HETATM    7  C11 UNK     1      18.411  -7.378  35.462  1.00  0.00     0.001 A 
HETATM    8  C6  UNK     1      18.578  -8.435  36.357  1.00  0.00     0.018 A 
BRANCH   4   9
HETATM    9  O1  UNK     1      22.161  -9.096  35.941  1.00  0.00    -0.360 OA
HETATM   10  H11 UNK     1      22.132  -9.752  36.658  1.00  0.00     0.217 HD
ENDBRANCH   4   9
ENDBRANCH   2   3
BRANCH   2  11
HETATM   11  C7  UNK     1      19.344 -10.005  38.814  1.00  0.00     0.056 C 
HETATM   12  C5  UNK     1      19.782  -9.078  39.695  1.00  0.00     0.015 C 
BRANCH  12  13
HETATM   13  C2  UNK     1      20.877  -8.149  39.459  1.00  0.00    -0.036 A 
HETATM   14  C8  UNK     1      22.193  -8.549  39.694  1.00  0.00     0.014 A 
HETATM   15  C12 UNK     1      23.242  -7.658  39.470  1.00  0.00     0.037 A 
HETATM   16  C14 UNK     1      22.977  -6.368  39.012  1.00  0.00     0.065 A 
HETATM   17  C13 UNK     1      21.661  -5.968  38.777  1.00  0.00     0.037 A 
HETATM   18  C9  UNK     1      20.611  -6.859  39.001  1.00  0.00     0.014 A 
BRANCH  16  19
HETATM   19  O3  UNK     1      24.002  -5.499  38.794  1.00  0.00    -0.361 OA
HETATM   20  H12 UNK     1      24.468  -5.759  37.981  1.00  0.00     0.217 HD
ENDBRANCH  16  19
ENDBRANCH  12  13
ENDBRANCH   2  11
TORSDOF 5
ENDMDL
MODEL 3
REMARK VINA RESULT:      -6.9      3.307      6.845
REMARK  5 active torsions:
REMARK  status: ('A' for Active; 'I' for Inactive)
REMARK    1  A    between atoms: C4_7  and  O1_1 
REMARK    2  A    between atoms: C14_17  and  O3_3 
REMARK    3  A    between atoms: C1_4  and  C3_6 
REMARK    4  A    between atoms: C2_5  and  C5_8 
REMARK    5  A    between atoms: C3_6  and  C7_10 
ROOT
HETATM    1  O2  UNK     1      17.558   2.802  31.407  1.00  0.00    -0.287 OA
HETATM    2  C3  UNK     1      18.363   2.603  30.504  1.00  0.00     0.184 C 
ENDROOT
BRANCH   2   3
HETATM    3  C1  UNK     1      19.061   1.297  30.416  1.00  0.00     0.047 A 
HETATM    4  C4  UNK     1      19.215   0.490  31.542  1.00  0.00     0.079 A 
HETATM    5  C10 UNK     1      19.875  -0.733  31.438  1.00  0.00     0.037 A 
HETATM    6  C15 UNK     1      20.381  -1.151  30.207  1.00  0.00     0.003 A 
HETATM    7  C11 UNK     1      20.226  -0.344  29.080  1.00  0.00     0.001 A 
HETATM    8  C6  UNK     1      19.566   0.881  29.184  1.00  0.00     0.018 A 
BRANCH   4   9
HETATM    9  O1  UNK     1      18.728   0.880  32.754  1.00  0.00    -0.360 OA
HETATM   10  H11 UNK     1      18.348   1.770  32.673  1.00  0.00     0.217 HD
ENDBRANCH   4   9
ENDBRANCH   2   3
BRANCH   2  11
HETATM   11  C7  UNK     1      18.656   3.617  29.453  1.00  0.00     0.056 C 
HETATM   12  C5  UNK     1      18.939   4.893  29.794  1.00  0.00     0.015 C 
BRANCH  12  13
HETATM   13  C2  UNK     1      18.990   5.406  31.155  1.00  0.00    -0.036 A 
HETATM   14  C8  UNK     1      17.808   5.634  31.859  1.00  0.00     0.014 A 
HETATM   15  C12 UNK     1      17.857   6.127  33.162  1.00  0.00     0.037 A 
HETATM   16  C14 UNK     1      19.088   6.392  33.763  1.00  0.00     0.065 A 
HETATM   17  C13 UNK     1      20.271   6.164  33.059  1.00  0.00     0.037 A 
HETATM   18  C9  UNK     1      20.222   5.671  31.755  1.00  0.00     0.014 A 
BRANCH  16  19
HETATM   19  O3  UNK     1      19.135   6.873  35.035  1.00  0.00    -0.361 OA
HETATM   20  H12 UNK     1      18.309   6.641  35.491  1.00  0.00     0.217 HD
ENDBRANCH  16  19
ENDBRANCH  12  13
ENDBRANCH   2  11
TORSDOF 5
ENDMDL
MODEL 4
REMARK VINA RESULT:      -6.8      1.880      4.832
REMARK  5 active torsions:
REMARK  status: ('A' for Active; 'I' for Inactive)
REMARK    1  A    between atoms: C4_7  and  O1_1 
REMARK    2  A    between atoms: C14_17  and  O3_3 
REMARK    3  A    between atoms: C1_4  and  C3_6 
REMARK    4  A    between atoms: C2_5  and  C5_8 
REMARK    5  A    between atoms: C3_6  and  C7_10 
ROOT
HETATM    1  O2  UNK     1      19.298   5.408  34.619  1.00  0.00    -0.287 OA
HETATM    2  C3  UNK     1      19.405   6.168  33.662  1.00  0.00     0.184 C 
ENDROOT
BRANCH   2   3
HETATM    3  C1  UNK     1      19.299   5.632  32.283  1.00  0.00     0.047 A 
HETATM    4  C4  UNK     1      18.490   4.532  32.002  1.00  0.00     0.079 A 
HETATM    5  C10 UNK     1      18.405   4.044  30.699  1.00  0.00     0.037 A 
HETATM    6  C15 UNK     1      19.129   4.655  29.676  1.00  0.00     0.003 A 
HETATM    7  C11 UNK     1      19.938   5.757  29.957  1.00  0.00     0.001 A 
HETATM    8  C6  UNK     1      20.024   6.244  31.261  1.00  0.00     0.018 A 
BRANCH   4   9
HETATM    9  O1  UNK     1      17.774   3.920  32.988  1.00  0.00    -0.360 OA
HETATM   10  H11 UNK     1      17.180   4.570  33.399  1.00  0.00     0.217 HD
ENDBRANCH   4   9
ENDBRANCH   2   3
BRANCH   2  11
HETATM   11  C7  UNK     1      19.609   7.634  33.821  1.00  0.00     0.056 C 
HETATM   12  C5  UNK     1      18.567   8.487  33.693  1.00  0.00     0.015 C 
BRANCH  12  13
HETATM   13  C2  UNK     1      17.196   8.097  33.400  1.00  0.00    -0.036 A 
HETATM   14  C8  UNK     1      16.766   8.005  32.077  1.00  0.00     0.014 A 
HETATM   15  C12 UNK     1      15.451   7.634  31.796  1.00  0.00     0.037 A 
HETATM   16  C14 UNK     1      14.567   7.354  32.838  1.00  0.00     0.065 A 
HETATM   17  C13 UNK     1      14.998   7.446  34.162  1.00  0.00     0.037 A 
HETATM   18  C9  UNK     1      16.313   7.818  34.443  1.00  0.00     0.014 A 
BRANCH  16  19
HETATM   19  O3  UNK     1      13.284   6.992  32.564  1.00  0.00    -0.361 OA
HETATM   20  H12 UNK     1      13.209   6.790  31.616  1.00  0.00     0.217 HD
ENDBRANCH  16  19
ENDBRANCH  12  13
ENDBRANCH   2  11
TORSDOF 5
ENDMDL
MODEL 5
REMARK VINA RESULT:      -6.8      1.909      5.422
REMARK  5 active torsions:
REMARK  status: ('A' for Active; 'I' for Inactive)
REMARK    1  A    between atoms: C4_7  and  O1_1 
REMARK    2  A    between atoms: C14_17  and  O3_3 
REMARK    3  A    between atoms: C1_4  and  C3_6 
REMARK    4  A    between atoms: C2_5  and  C5_8 
REMARK    5  A    between atoms: C3_6  and  C7_10 
ROOT
HETATM    1  O2  UNK     1      16.440   8.312  30.953  1.00  0.00    -0.287 OA
HETATM    2  C3  UNK     1      16.912   7.527  31.769  1.00  0.00     0.184 C 
ENDROOT
BRANCH   2   3
HETATM    3  C1  UNK     1      18.227   6.895  31.506  1.00  0.00     0.047 A 
HETATM    4  C4  UNK     1      18.572   6.466  30.224  1.00  0.00     0.079 A 
HETATM    5  C10 UNK     1      19.813   5.872  29.999  1.00  0.00     0.037 A 
HETATM    6  C15 UNK     1      20.711   5.707  31.054  1.00  0.00     0.003 A 
HETATM    7  C11 UNK     1      20.366   6.138  32.335  1.00  0.00     0.001 A 
HETATM    8  C6  UNK     1      19.124   6.730  32.561  1.00  0.00     0.018 A 
BRANCH   4   9
HETATM    9  O1  UNK     1      17.710   6.618  29.180  1.00  0.00    -0.360 OA
HETATM   10  H11 UNK     1      18.173   7.054  28.446  1.00  0.00     0.217 HD
ENDBRANCH   4   9
ENDBRANCH   2   3
BRANCH   2  11
HETATM   11  C7  UNK     1      16.230   7.197  33.052  1.00  0.00     0.056 C 
HETATM   12  C5  UNK     1      16.255   8.070  34.083  1.00  0.00     0.015 C 
BRANCH  12  13
HETATM   13  C2  UNK     1      16.915   9.367  34.068  1.00  0.00    -0.036 A 
HETATM   14  C8  UNK     1      18.308   9.441  34.097  1.00  0.00     0.014 A 
HETATM   15  C12 UNK     1      18.940  10.684  34.085  1.00  0.00     0.037 A 
HETATM   16  C14 UNK     1      18.181  11.853  34.044  1.00  0.00     0.065 A 
HETATM   17  C13 UNK     1      16.787  11.779  34.014  1.00  0.00     0.037 A 
HETATM   18  C9  UNK     1      16.155  10.536  34.027  1.00  0.00     0.014 A 
BRANCH  16  19
HETATM   19  O3  UNK     1      18.798  13.066  34.032  1.00  0.00    -0.361 OA
HETATM   20  H12 UNK     1      18.256  13.690  33.521  1.00  0.00     0.217 HD
ENDBRANCH  16  19
ENDBRANCH  12  13
ENDBRANCH   2  11
TORSDOF 5
ENDMDL
MODEL 6
REMARK VINA RESULT:      -6.6      2.084      5.679
REMARK  5 active torsions:
REMARK  status: ('A' for Active; 'I' for Inactive)
REMARK    1  A    between atoms: C4_7  and  O1_1 
REMARK    2  A    between atoms: C14_17  and  O3_3 
REMARK    3  A    between atoms: C1_4  and  C3_6 
REMARK    4  A    between atoms: C2_5  and  C5_8 
REMARK    5  A    between atoms: C3_6  and  C7_10 
ROOT
HETATM    1  O2  UNK     1      16.428   8.286  30.715  1.00  0.00    -0.287 OA
HETATM    2  C3  UNK     1      16.714   7.388  31.500  1.00  0.00     0.184 C 
ENDROOT
BRANCH   2   3
HETATM    3  C1  UNK     1      18.117   6.919  31.601  1.00  0.00     0.047 A 
HETATM    4  C4  UNK     1      18.779   6.396  30.490  1.00  0.00     0.079 A 
HETATM    5  C10 UNK     1      20.098   5.959  30.607  1.00  0.00     0.037 A 
HETATM    6  C15 UNK     1      20.756   6.045  31.834  1.00  0.00     0.003 A 
HETATM    7  C11 UNK     1      20.094   6.570  32.944  1.00  0.00     0.001 A 
HETATM    8  C6  UNK     1      18.774   7.005  32.828  1.00  0.00     0.018 A 
BRANCH   4   9
HETATM    9  O1  UNK     1      18.154   6.304  29.283  1.00  0.00    -0.360 OA
HETATM   10  H11 UNK     1      17.623   7.105  29.137  1.00  0.00     0.217 HD
ENDBRANCH   4   9
ENDBRANCH   2   3
BRANCH   2  11
HETATM   11  C7  UNK     1      15.707   6.758  32.398  1.00  0.00     0.056 C 
HETATM   12  C5  UNK     1      15.056   7.499  33.322  1.00  0.00     0.015 C 
BRANCH  12  13
HETATM   13  C2  UNK     1      15.248   8.924  33.540  1.00  0.00    -0.036 A 
HETATM   14  C8  UNK     1      14.289   9.833  33.093  1.00  0.00     0.014 A 
HETATM   15  C12 UNK     1      14.474  11.199  33.301  1.00  0.00     0.037 A 
HETATM   16  C14 UNK     1      15.617  11.658  33.955  1.00  0.00     0.065 A 
HETATM   17  C13 UNK     1      16.576  10.749  34.403  1.00  0.00     0.037 A 
HETATM   18  C9  UNK     1      16.391   9.382  34.195  1.00  0.00     0.014 A 
BRANCH  16  19
HETATM   19  O3  UNK     1      15.798  12.992  34.157  1.00  0.00    -0.361 OA
HETATM   20  H12 UNK     1      15.079  13.477  33.717  1.00  0.00     0.217 HD
ENDBRANCH  16  19
ENDBRANCH  12  13
ENDBRANCH   2  11
TORSDOF 5
ENDMDL
MODEL 7
REMARK VINA RESULT:      -6.6     22.708     24.359
REMARK  5 active torsions:
REMARK  status: ('A' for Active; 'I' for Inactive)
REMARK    1  A    between atoms: C4_7  and  O1_1 
REMARK    2  A    between atoms: C14_17  and  O3_3 
REMARK    3  A    between atoms: C1_4  and  C3_6 
REMARK    4  A    between atoms: C2_5  and  C5_8 
REMARK    5  A    between atoms: C3_6  and  C7_10 
ROOT
HETATM    1  O2  UNK     1      12.260   5.795  10.424  1.00  0.00    -0.287 OA
HETATM    2  C3  UNK     1      12.493   5.589   9.238  1.00  0.00     0.184 C 
ENDROOT
BRANCH   2   3
HETATM    3  C1  UNK     1      11.456   5.889   8.221  1.00  0.00     0.047 A 
HETATM    4  C4  UNK     1      10.100   5.758   8.521  1.00  0.00     0.079 A 
HETATM    5  C10 UNK     1       9.141   6.044   7.550  1.00  0.00     0.037 A 
HETATM    6  C15 UNK     1       9.536   6.460   6.279  1.00  0.00     0.003 A 
HETATM    7  C11 UNK     1      10.892   6.592   5.980  1.00  0.00     0.001 A 
HETATM    8  C6  UNK     1      11.852   6.305   6.950  1.00  0.00     0.018 A 
BRANCH   4   9
HETATM    9  O1  UNK     1       9.693   5.353   9.757  1.00  0.00    -0.360 OA
HETATM   10  H11 UNK     1      10.402   5.526  10.398  1.00  0.00     0.217 HD
ENDBRANCH   4   9
ENDBRANCH   2   3
BRANCH   2  11
HETATM   11  C7  UNK     1      13.805   5.073   8.756  1.00  0.00     0.056 C 
HETATM   12  C5  UNK     1      14.929   5.804   8.922  1.00  0.00     0.015 C 
BRANCH  12  13
HETATM   13  C2  UNK     1      14.993   7.112   9.556  1.00  0.00    -0.036 A 
HETATM   14  C8  UNK     1      14.544   8.241   8.872  1.00  0.00     0.014 A 
HETATM   15  C12 UNK     1      14.607   9.494   9.478  1.00  0.00     0.037 A 
HETATM   16  C14 UNK     1      15.119   9.621  10.770  1.00  0.00     0.065 A 
HETATM   17  C13 UNK     1      15.569   8.491  11.455  1.00  0.00     0.037 A 
HETATM   18  C9  UNK     1      15.506   7.237  10.847  1.00  0.00     0.014 A 
BRANCH  16  19
HETATM   19  O3  UNK     1      15.181  10.845  11.362  1.00  0.00    -0.361 OA
HETATM   20  H12 UNK     1      14.278  11.141  11.568  1.00  0.00     0.217 HD
ENDBRANCH  16  19
ENDBRANCH  12  13
ENDBRANCH   2  11
TORSDOF 5
ENDMDL
MODEL 8
REMARK VINA RESULT:      -6.5      2.126      5.848
REMARK  5 active torsions:
REMARK  status: ('A' for Active; 'I' for Inactive)
REMARK    1  A    between atoms: C4_7  and  O1_1 
REMARK    2  A    between atoms: C14_17  and  O3_3 
REMARK    3  A    between atoms: C1_4  and  C3_6 
REMARK    4  A    between atoms: C2_5  and  C5_8 
REMARK    5  A    between atoms: C3_6  and  C7_10 
ROOT
HETATM    1  O2  UNK     1      16.304   8.470  30.773  1.00  0.00    -0.287 OA
HETATM    2  C3  UNK     1      16.125   7.655  31.672  1.00  0.00     0.184 C 
ENDROOT
BRANCH   2   3
HETATM    3  C1  UNK     1      17.276   7.191  32.484  1.00  0.00     0.047 A 
HETATM    4  C4  UNK     1      18.088   8.101  33.160  1.00  0.00     0.079 A 
HETATM    5  C10 UNK     1      19.166   7.644  33.917  1.00  0.00     0.037 A 
HETATM    6  C15 UNK     1      19.432   6.277  34.000  1.00  0.00     0.003 A 
HETATM    7  C11 UNK     1      18.619   5.367  33.324  1.00  0.00     0.001 A 
HETATM    8  C6  UNK     1      17.541   5.824  32.566  1.00  0.00     0.018 A 
BRANCH   4   9
HETATM    9  O1  UNK     1      17.845   9.440  33.093  1.00  0.00    -0.360 OA
HETATM   10  H11 UNK     1      18.314   9.885  33.819  1.00  0.00     0.217 HD
ENDBRANCH   4   9
ENDBRANCH   2   3
BRANCH   2  11
HETATM   11  C7  UNK     1      14.777   7.123  32.015  1.00  0.00     0.056 C 
HETATM   12  C5  UNK     1      13.956   7.819  32.833  1.00  0.00     0.015 C 
BRANCH  12  13
HETATM   13  C2  UNK     1      14.271   9.101  33.445  1.00  0.00    -0.036 A 
HETATM   14  C8  UNK     1      14.852   9.145  34.712  1.00  0.00     0.014 A 
HETATM   15  C12 UNK     1      15.152  10.374  35.298  1.00  0.00     0.037 A 
HETATM   16  C14 UNK     1      14.872  11.559  34.619  1.00  0.00     0.065 A 
HETATM   17  C13 UNK     1      14.290  11.516  33.351  1.00  0.00     0.037 A 
HETATM   18  C9  UNK     1      13.990  10.286  32.764  1.00  0.00     0.014 A 
BRANCH  16  19
HETATM   19  O3  UNK     1      15.164  12.759  35.192  1.00  0.00    -0.361 OA
HETATM   20  H12 UNK     1      14.385  13.073  35.680  1.00  0.00     0.217 HD
ENDBRANCH  16  19
ENDBRANCH  12  13
ENDBRANCH   2  11
TORSDOF 5
ENDMDL
MODEL 9
REMARK VINA RESULT:      -6.5     22.948     24.574
REMARK  5 active torsions:
REMARK  status: ('A' for Active; 'I' for Inactive)
REMARK    1  A    between atoms: C4_7  and  O1_1 
REMARK    2  A    between atoms: C14_17  and  O3_3 
REMARK    3  A    between atoms: C1_4  and  C3_6 
REMARK    4  A    between atoms: C2_5  and  C5_8 
REMARK    5  A    between atoms: C3_6  and  C7_10 
ROOT
HETATM    1  O2  UNK     1      13.879   6.662   7.263  1.00  0.00    -0.287 OA
HETATM    2  C3  UNK     1      13.107   5.948   7.894  1.00  0.00     0.184 C 
ENDROOT
BRANCH   2   3
HETATM    3  C1  UNK     1      11.648   6.046   7.650  1.00  0.00     0.047 A 
HETATM    4  C4  UNK     1      11.142   6.120   6.353  1.00  0.00     0.079 A 
HETATM    5  C10 UNK     1       9.766   6.214   6.146  1.00  0.00     0.037 A 
HETATM    6  C15 UNK     1       8.895   6.234   7.235  1.00  0.00     0.003 A 
HETATM    7  C11 UNK     1       9.402   6.159   8.533  1.00  0.00     0.001 A 
HETATM    8  C6  UNK     1      10.778   6.066   8.740  1.00  0.00     0.018 A 
BRANCH   4   9
HETATM    9  O1  UNK     1      11.975   6.102   5.274  1.00  0.00    -0.360 OA
HETATM   10  H11 UNK     1      11.890   5.247   4.821  1.00  0.00     0.217 HD
ENDBRANCH   4   9
ENDBRANCH   2   3
BRANCH   2  11
HETATM   11  C7  UNK     1      13.576   4.944   8.889  1.00  0.00     0.056 C 
HETATM   12  C5  UNK     1      14.396   5.313   9.898  1.00  0.00     0.015 C 
BRANCH  12  13
HETATM   13  C2  UNK     1      14.893   6.661  10.124  1.00  0.00    -0.036 A 
HETATM   14  C8  UNK     1      16.241   6.952   9.911  1.00  0.00     0.014 A 
HETATM   15  C12 UNK     1      16.718   8.244  10.129  1.00  0.00     0.037 A 
HETATM   16  C14 UNK     1      15.848   9.246  10.560  1.00  0.00     0.065 A 
HETATM   17  C13 UNK     1      14.500   8.955  10.773  1.00  0.00     0.037 A 
HETATM   18  C9  UNK     1      14.023   7.663  10.555  1.00  0.00     0.014 A 
BRANCH  16  19
HETATM   19  O3  UNK     1      16.314  10.507  10.773  1.00  0.00    -0.361 OA
HETATM   20  H12 UNK     1      17.079  10.463  11.371  1.00  0.00     0.217 HD
ENDBRANCH  16  19
ENDBRANCH  12  13
ENDBRANCH   2  11
TORSDOF 5
ENDMDL
MODEL 10
REMARK VINA RESULT:      -6.4     14.234     15.859
REMARK  5 active torsions:
REMARK  status: ('A' for Active; 'I' for Inactive)
REMARK    1  A    between atoms: C4_7  and  O1_1 
REMARK    2  A    between atoms: C14_17  and  O3_3 
REMARK    3  A    between atoms: C1_4  and  C3_6 
REMARK    4  A    between atoms: C2_5  and  C5_8 
REMARK    5  A    between atoms: C3_6  and  C7_10 
ROOT
HETATM    1  O2  UNK     1      21.662  -5.188  37.314  1.00  0.00    -0.287 OA
HETATM    2  C3  UNK     1      20.862  -5.995  37.774  1.00  0.00     0.184 C 
ENDROOT
BRANCH   2   3
HETATM    3  C1  UNK     1      19.720  -6.453  36.945  1.00  0.00     0.047 A 
HETATM    4  C4  UNK     1      19.922  -6.938  35.653  1.00  0.00     0.079 A 
HETATM    5  C10 UNK     1      18.835  -7.362  34.890  1.00  0.00     0.037 A 
HETATM    6  C15 UNK     1      17.546  -7.301  35.417  1.00  0.00     0.003 A 
HETATM    7  C11 UNK     1      17.344  -6.816  36.710  1.00  0.00     0.001 A 
HETATM    8  C6  UNK     1      18.431  -6.391  37.473  1.00  0.00     0.018 A 
BRANCH   4   9
HETATM    9  O1  UNK     1      21.175  -7.006  35.119  1.00  0.00    -0.360 OA
HETATM   10  H11 UNK     1      21.277  -6.302  34.457  1.00  0.00     0.217 HD
ENDBRANCH   4   9
ENDBRANCH   2   3
BRANCH   2  11
HETATM   11  C7  UNK     1      21.001  -6.575  39.139  1.00  0.00     0.056 C 
HETATM   12  C5  UNK     1      21.410  -7.853  39.300  1.00  0.00     0.015 C 
BRANCH  12  13
HETATM   13  C2  UNK     1      21.745  -8.769  38.220  1.00  0.00    -0.036 A 
HETATM   14  C8  UNK     1      22.954  -8.631  37.538  1.00  0.00     0.014 A 
HETATM   15  C12 UNK     1      23.273  -9.507  36.502  1.00  0.00     0.037 A 
HETATM   16  C14 UNK     1      22.385 -10.522  36.146  1.00  0.00     0.065 A 
HETATM   17  C13 UNK     1      21.175 -10.661  36.828  1.00  0.00     0.037 A 
HETATM   18  C9  UNK     1      20.855  -9.783  37.865  1.00  0.00     0.014 A 
BRANCH  16  19
HETATM   19  O3  UNK     1      22.697 -11.377  35.134  1.00  0.00    -0.361 OA
HETATM   20  H12 UNK     1      22.692 -10.887  34.295  1.00  0.00     0.217 HD
ENDBRANCH  16  19
ENDBRANCH  12  13
ENDBRANCH   2  11
TORSDOF 5
ENDMDL
