MODEL 1
REMARK VINA RESULT:      -8.7      0.000      0.000
REMARK  7 active torsions:
REMARK  status: ('A' for Active; 'I' for Inactive)
REMARK    1  A    between atoms: C22_29  and  O3_3 
REMARK    2  A    between atoms: C24_31  and  O3_3 
REMARK    3  A    between atoms: C1_8  and  N1_5 
REMARK       I    between atoms: C12_19  and  N1_5 
REMARK    4  A    between atoms: C9_16  and  N2_6 
REMARK    5  A    between atoms: C14_21  and  N3_7 
REMARK    6  A    between atoms: C12_19  and  C9_16 
REMARK    7  A    between atoms: C14_21  and  C15_22 
ROOT
HETATM    1  N2  UNK     1      26.268  -8.415  38.348  1.00  0.00     0.100 N 
HETATM    2  N3  UNK     1      23.800  -9.358  37.176  1.00  0.00     0.096 N 
HETATM    3  C7  UNK     1      26.215  -9.673  37.594  1.00  0.00     0.303 C 
HETATM    4  C8  UNK     1      24.971  -8.140  38.979  1.00  0.00     0.303 C 
HETATM    5  C10 UNK     1      25.097  -9.634  36.546  1.00  0.00     0.303 C 
HETATM    6  C11 UNK     1      23.853  -8.100  37.931  1.00  0.00     0.303 C 
ENDROOT
BRANCH   2   7
HETATM    7  C14 UNK     1      22.736  -9.318  36.174  1.00  0.00     0.312 C 
BRANCH   7   8
HETATM    8  C15 UNK     1      21.383  -9.421  36.787  1.00  0.00    -0.011 A 
HETATM    9  C16 UNK     1      20.466  -8.274  36.738  1.00  0.00     0.009 A 
HETATM   10  C18 UNK     1      19.204  -8.401  37.321  1.00  0.00     0.090 A 
HETATM   11  C19 UNK     1      20.783  -7.049  36.137  1.00  0.00     0.051 A 
HETATM   12  C21 UNK     1      18.274  -7.360  37.320  1.00  0.00     0.041 A 
HETATM   13  O2  UNK     1      18.807  -9.600  37.945  1.00  0.00    -0.275 OA
HETATM   14  C23 UNK     1      18.608  -6.152  36.717  1.00  0.00     0.039 A 
HETATM   15  C22 UNK     1      19.861  -5.996  36.127  1.00  0.00     0.069 A 
HETATM   16  C20 UNK     1      19.650 -10.699  38.005  1.00  0.00     0.288 A 
HETATM   17  C17 UNK     1      20.978 -10.550  37.386  1.00  0.00     0.092 A 
HETATM   18  O4  UNK     1      19.314 -11.748  38.545  1.00  0.00    -0.260 OA
BRANCH  15  19
HETATM   19  O3  UNK     1      20.190  -4.814  35.536  1.00  0.00    -0.351 OA
BRANCH  19  20
HETATM   20  C24 UNK     1      20.065  -3.635  36.331  1.00  0.00     0.171 C 
HETATM   21  C25 UNK     1      20.200  -2.421  35.437  1.00  0.00     0.034 C 
ENDBRANCH  19  20
ENDBRANCH  15  19
ENDBRANCH   7   8
ENDBRANCH   2   7
BRANCH   1  22
HETATM   22  C9  UNK     1      27.333  -8.453  39.348  1.00  0.00     0.374 C 
BRANCH  22  23
HETATM   23  C12 UNK     1      28.141  -7.168  39.275  1.00  0.00     0.248 C 
HETATM   24  O1  UNK     1      27.705  -6.114  39.745  1.00  0.00    -0.271 OA
HETATM   25  N1  UNK     1      29.389  -7.268  38.647  1.00  0.00    -0.350 N 
HETATM   26  C13 UNK     1      29.891  -8.521  38.098  1.00  0.00     0.153 C 
BRANCH  25  27
HETATM   27  C1  UNK     1      30.273  -6.137  38.499  1.00  0.00     0.086 C 
HETATM   28  C2  UNK     1      31.728  -6.598  38.376  1.00  0.00     0.025 C 
HETATM   29  C4  UNK     1      32.675  -5.420  38.163  1.00  0.00     0.002 C 
HETATM   30  C6  UNK     1      32.257  -4.571  36.966  1.00  0.00     0.000 C 
HETATM   31  C5  UNK     1      30.806  -4.109  37.084  1.00  0.00     0.002 C 
HETATM   32  C3  UNK     1      29.857  -5.285  37.297  1.00  0.00     0.025 C 
ENDBRANCH  25  27
ENDBRANCH  22  23
ENDBRANCH   1  22
TORSDOF 7
ENDMDL
MODEL 2
REMARK VINA RESULT:      -8.5     10.416     15.811
REMARK  7 active torsions:
REMARK  status: ('A' for Active; 'I' for Inactive)
REMARK    1  A    between atoms: C22_29  and  O3_3 
REMARK    2  A    between atoms: C24_31  and  O3_3 
REMARK    3  A    between atoms: C1_8  and  N1_5 
REMARK       I    between atoms: C12_19  and  N1_5 
REMARK    4  A    between atoms: C9_16  and  N2_6 
REMARK    5  A    between atoms: C14_21  and  N3_7 
REMARK    6  A    between atoms: C12_19  and  C9_16 
REMARK    7  A    between atoms: C14_21  and  C15_22 
ROOT
HETATM    1  N2  UNK     1      18.598   5.810  32.003  1.00  0.00     0.100 N 
HETATM    2  N3  UNK     1      18.682   3.056  31.127  1.00  0.00     0.096 N 
HETATM    3  C7  UNK     1      19.455   5.392  30.887  1.00  0.00     0.303 C 
HETATM    4  C8  UNK     1      18.412   4.703  32.949  1.00  0.00     0.303 C 
HETATM    5  C10 UNK     1      18.869   4.163  30.181  1.00  0.00     0.303 C 
HETATM    6  C11 UNK     1      17.826   3.475  32.244  1.00  0.00     0.303 C 
ENDROOT
BRANCH   2   7
HETATM    7  C14 UNK     1      18.121   1.887  30.452  1.00  0.00     0.312 C 
BRANCH   7   8
HETATM    8  C15 UNK     1      19.080   0.750  30.407  1.00  0.00    -0.011 A 
HETATM    9  C16 UNK     1      19.215  -0.143  31.566  1.00  0.00     0.009 A 
HETATM   10  C18 UNK     1      20.123  -1.201  31.494  1.00  0.00     0.090 A 
HETATM   11  C19 UNK     1      18.482   0.003  32.751  1.00  0.00     0.051 A 
HETATM   12  C21 UNK     1      20.313  -2.094  32.549  1.00  0.00     0.041 A 
HETATM   13  O2  UNK     1      20.898  -1.417  30.337  1.00  0.00    -0.275 OA
HETATM   14  C23 UNK     1      19.574  -1.932  33.717  1.00  0.00     0.039 A 
HETATM   15  C22 UNK     1      18.660  -0.885  33.817  1.00  0.00     0.069 A 
HETATM   16  C20 UNK     1      20.791  -0.593  29.228  1.00  0.00     0.288 A 
HETATM   17  C17 UNK     1      19.830   0.519  29.320  1.00  0.00     0.092 A 
HETATM   18  O4  UNK     1      21.461  -0.773  28.217  1.00  0.00    -0.260 OA
BRANCH  15  19
HETATM   19  O3  UNK     1      17.936  -0.726  34.960  1.00  0.00    -0.351 OA
BRANCH  19  20
HETATM   20  C24 UNK     1      16.526  -0.919  34.867  1.00  0.00     0.171 C 
HETATM   21  C25 UNK     1      15.823   0.257  35.511  1.00  0.00     0.034 C 
ENDBRANCH  19  20
ENDBRANCH  15  19
ENDBRANCH   7   8
ENDBRANCH   2   7
BRANCH   1  22
HETATM   22  C9  UNK     1      19.157   6.980  32.676  1.00  0.00     0.374 C 
BRANCH  22  23
HETATM   23  C12 UNK     1      18.121   8.092  32.702  1.00  0.00     0.248 C 
HETATM   24  O1  UNK     1      17.134   8.059  31.962  1.00  0.00    -0.271 OA
HETATM   25  N1  UNK     1      18.366   9.132  33.606  1.00  0.00    -0.350 N 
HETATM   26  C13 UNK     1      19.537   9.155  34.474  1.00  0.00     0.153 C 
BRANCH  25  27
HETATM   27  C1  UNK     1      17.477  10.260  33.747  1.00  0.00     0.086 C 
HETATM   28  C2  UNK     1      16.345   9.938  34.727  1.00  0.00     0.025 C 
HETATM   29  C4  UNK     1      15.423  11.136  34.933  1.00  0.00     0.002 C 
HETATM   30  C6  UNK     1      16.199  12.377  35.366  1.00  0.00     0.000 C 
HETATM   31  C5  UNK     1      17.330  12.701  34.392  1.00  0.00     0.002 C 
HETATM   32  C3  UNK     1      18.254  11.504  34.184  1.00  0.00     0.025 C 
ENDBRANCH  25  27
ENDBRANCH  22  23
ENDBRANCH   1  22
TORSDOF 7
ENDMDL
MODEL 3
REMARK VINA RESULT:      -8.4      2.786      4.061
REMARK  7 active torsions:
REMARK  status: ('A' for Active; 'I' for Inactive)
REMARK    1  A    between atoms: C22_29  and  O3_3 
REMARK    2  A    between atoms: C24_31  and  O3_3 
REMARK    3  A    between atoms: C1_8  and  N1_5 
REMARK       I    between atoms: C12_19  and  N1_5 
REMARK    4  A    between atoms: C9_16  and  N2_6 
REMARK    5  A    between atoms: C14_21  and  N3_7 
REMARK    6  A    between atoms: C12_19  and  C9_16 
REMARK    7  A    between atoms: C14_21  and  C15_22 
ROOT
HETATM    1  N2  UNK     1      29.764  -9.085  37.845  1.00  0.00     0.100 N 
HETATM    2  N3  UNK     1      26.917  -9.450  37.494  1.00  0.00     0.096 N 
HETATM    3  C7  UNK     1      29.163  -9.148  36.507  1.00  0.00     0.303 C 
HETATM    4  C8  UNK     1      28.973  -9.872  38.799  1.00  0.00     0.303 C 
HETATM    5  C10 UNK     1      27.708  -8.665  36.539  1.00  0.00     0.303 C 
HETATM    6  C11 UNK     1      27.519  -9.388  38.832  1.00  0.00     0.303 C 
ENDROOT
BRANCH   2   7
HETATM    7  C14 UNK     1      25.532  -8.986  37.525  1.00  0.00     0.312 C 
BRANCH   7   8
HETATM    8  C15 UNK     1      24.616  -9.899  36.787  1.00  0.00    -0.011 A 
HETATM    9  C16 UNK     1      23.216  -9.513  36.567  1.00  0.00     0.009 A 
HETATM   10  C18 UNK     1      22.382 -10.390  35.870  1.00  0.00     0.090 A 
HETATM   11  C19 UNK     1      22.660  -8.309  37.017  1.00  0.00     0.051 A 
HETATM   12  C21 UNK     1      21.039 -10.101  35.620  1.00  0.00     0.041 A 
HETATM   13  O2  UNK     1      22.864 -11.621  35.384  1.00  0.00    -0.275 OA
HETATM   14  C23 UNK     1      20.507  -8.900  36.075  1.00  0.00     0.039 A 
HETATM   15  C22 UNK     1      21.316  -8.005  36.772  1.00  0.00     0.069 A 
HETATM   16  C20 UNK     1      24.181 -12.011  35.574  1.00  0.00     0.288 A 
HETATM   17  C17 UNK     1      25.048 -11.076  36.310  1.00  0.00     0.092 A 
HETATM   18  O4  UNK     1      24.610 -13.080  35.154  1.00  0.00    -0.260 OA
BRANCH  15  19
HETATM   19  O3  UNK     1      20.796  -6.828  37.219  1.00  0.00    -0.351 OA
BRANCH  19  20
HETATM   20  C24 UNK     1      21.077  -6.465  38.570  1.00  0.00     0.171 C 
HETATM   21  C25 UNK     1      20.175  -7.258  39.491  1.00  0.00     0.034 C 
ENDBRANCH  19  20
ENDBRANCH  15  19
ENDBRANCH   7   8
ENDBRANCH   2   7
BRANCH   1  22
HETATM   22  C9  UNK     1      31.150  -9.547  37.814  1.00  0.00     0.374 C 
BRANCH  22  23
HETATM   23  C12 UNK     1      32.079  -8.349  37.705  1.00  0.00     0.248 C 
HETATM   24  O1  UNK     1      32.204  -7.553  38.639  1.00  0.00    -0.271 OA
HETATM   25  N1  UNK     1      32.766  -8.220  36.492  1.00  0.00    -0.350 N 
HETATM   26  C13 UNK     1      32.608  -9.169  35.397  1.00  0.00     0.153 C 
BRANCH  25  27
HETATM   27  C1  UNK     1      33.683  -7.136  36.234  1.00  0.00     0.086 C 
HETATM   28  C2  UNK     1      34.665  -7.510  35.120  1.00  0.00     0.025 C 
HETATM   29  C4  UNK     1      35.610  -6.357  34.794  1.00  0.00     0.002 C 
HETATM   30  C6  UNK     1      34.846  -5.080  34.457  1.00  0.00     0.000 C 
HETATM   31  C5  UNK     1      33.864  -4.703  35.565  1.00  0.00     0.002 C 
HETATM   32  C3  UNK     1      32.918  -5.855  35.894  1.00  0.00     0.025 C 
ENDBRANCH  25  27
ENDBRANCH  22  23
ENDBRANCH   1  22
TORSDOF 7
ENDMDL
MODEL 4
REMARK VINA RESULT:      -8.2     30.928     35.416
REMARK  7 active torsions:
REMARK  status: ('A' for Active; 'I' for Inactive)
REMARK    1  A    between atoms: C22_29  and  O3_3 
REMARK    2  A    between atoms: C24_31  and  O3_3 
REMARK    3  A    between atoms: C1_8  and  N1_5 
REMARK       I    between atoms: C12_19  and  N1_5 
REMARK    4  A    between atoms: C9_16  and  N2_6 
REMARK    5  A    between atoms: C14_21  and  N3_7 
REMARK    6  A    between atoms: C12_19  and  C9_16 
REMARK    7  A    between atoms: C14_21  and  C15_22 
ROOT
HETATM    1  N2  UNK     1      14.971   7.485   9.513  1.00  0.00     0.100 N 
HETATM    2  N3  UNK     1      16.831   9.697   9.444  1.00  0.00     0.096 N 
HETATM    3  C7  UNK     1      16.415   7.270   9.664  1.00  0.00     0.303 C 
HETATM    4  C8  UNK     1      14.712   8.672   8.690  1.00  0.00     0.303 C 
HETATM    5  C10 UNK     1      17.090   8.508  10.266  1.00  0.00     0.303 C 
HETATM    6  C11 UNK     1      15.386   9.910   9.292  1.00  0.00     0.303 C 
ENDROOT
BRANCH   2   7
HETATM    7  C14 UNK     1      17.473  10.876  10.021  1.00  0.00     0.312 C 
BRANCH   7   8
HETATM    8  C15 UNK     1      18.479  11.476   9.102  1.00  0.00    -0.011 A 
HETATM    9  C16 UNK     1      19.811  11.834   9.606  1.00  0.00     0.009 A 
HETATM   10  C18 UNK     1      20.734  12.394   8.719  1.00  0.00     0.090 A 
HETATM   11  C19 UNK     1      20.218  11.647  10.933  1.00  0.00     0.051 A 
HETATM   12  C21 UNK     1      22.020  12.763   9.116  1.00  0.00     0.041 A 
HETATM   13  O2  UNK     1      20.403  12.614   7.368  1.00  0.00    -0.275 OA
HETATM   14  C23 UNK     1      22.404  12.569  10.439  1.00  0.00     0.039 A 
HETATM   15  C22 UNK     1      21.505  12.011  11.346  1.00  0.00     0.069 A 
HETATM   16  C20 UNK     1      19.154  12.284   6.864  1.00  0.00     0.288 A 
HETATM   17  C17 UNK     1      18.193  11.695   7.810  1.00  0.00     0.092 A 
HETATM   18  O4  UNK     1      18.857  12.471   5.689  1.00  0.00    -0.260 OA
BRANCH  15  19
HETATM   19  O3  UNK     1      21.880  11.820  12.641  1.00  0.00    -0.351 OA
BRANCH  19  20
HETATM   20  C24 UNK     1      21.412  12.768  13.599  1.00  0.00     0.171 C 
HETATM   21  C25 UNK     1      21.406  12.124  14.969  1.00  0.00     0.034 C 
ENDBRANCH  19  20
ENDBRANCH  15  19
ENDBRANCH   7   8
ENDBRANCH   2   7
BRANCH   1  22
HETATM   22  C9  UNK     1      14.328   6.305   8.938  1.00  0.00     0.374 C 
BRANCH  22  23
HETATM   23  C12 UNK     1      12.866   6.275   9.349  1.00  0.00     0.248 C 
HETATM   24  O1  UNK     1      12.539   6.130  10.530  1.00  0.00    -0.271 OA
HETATM   25  N1  UNK     1      11.938   6.420   8.311  1.00  0.00    -0.350 N 
HETATM   26  C13 UNK     1      12.340   6.591   6.920  1.00  0.00     0.153 C 
BRANCH  25  27
HETATM   27  C1  UNK     1      10.513   6.411   8.539  1.00  0.00     0.086 C 
HETATM   28  C2  UNK     1      10.032   7.784   9.018  1.00  0.00     0.025 C 
HETATM   29  C4  UNK     1       8.519   7.813   9.214  1.00  0.00     0.002 C 
HETATM   30  C6  UNK     1       7.779   7.371   7.954  1.00  0.00     0.000 C 
HETATM   31  C5  UNK     1       8.256   6.003   7.473  1.00  0.00     0.002 C 
HETATM   32  C3  UNK     1       9.769   5.971   7.276  1.00  0.00     0.025 C 
ENDBRANCH  25  27
ENDBRANCH  22  23
ENDBRANCH   1  22
TORSDOF 7
ENDMDL
MODEL 5
REMARK VINA RESULT:      -8.1      6.158     10.420
REMARK  7 active torsions:
REMARK  status: ('A' for Active; 'I' for Inactive)
REMARK    1  A    between atoms: C22_29  and  O3_3 
REMARK    2  A    between atoms: C24_31  and  O3_3 
REMARK    3  A    between atoms: C1_8  and  N1_5 
REMARK       I    between atoms: C12_19  and  N1_5 
REMARK    4  A    between atoms: C9_16  and  N2_6 
REMARK    5  A    between atoms: C14_21  and  N3_7 
REMARK    6  A    between atoms: C12_19  and  C9_16 
REMARK    7  A    between atoms: C14_21  and  C15_22 
ROOT
HETATM    1  N2  UNK     1      20.084  -2.898  37.239  1.00  0.00     0.100 N 
HETATM    2  N3  UNK     1      18.968  -1.578  34.921  1.00  0.00     0.096 N 
HETATM    3  C7  UNK     1      20.916  -2.571  36.074  1.00  0.00     0.303 C 
HETATM    4  C8  UNK     1      18.694  -3.127  36.827  1.00  0.00     0.303 C 
HETATM    5  C10 UNK     1      20.359  -1.350  35.331  1.00  0.00     0.303 C 
HETATM    6  C11 UNK     1      18.137  -1.907  36.086  1.00  0.00     0.303 C 
ENDROOT
BRANCH   2   7
HETATM    7  C14 UNK     1      18.438  -0.412  34.216  1.00  0.00     0.312 C 
BRANCH   7   8
HETATM    8  C15 UNK     1      18.889  -0.360  32.798  1.00  0.00    -0.011 A 
HETATM    9  C16 UNK     1      18.766   0.890  32.036  1.00  0.00     0.009 A 
HETATM   10  C18 UNK     1      19.199   0.908  30.708  1.00  0.00     0.090 A 
HETATM   11  C19 UNK     1      18.237   2.075  32.562  1.00  0.00     0.051 A 
HETATM   12  C21 UNK     1      19.116   2.053  29.913  1.00  0.00     0.041 A 
HETATM   13  O2  UNK     1      19.744  -0.242  30.104  1.00  0.00    -0.275 OA
HETATM   14  C23 UNK     1      18.588   3.220  30.455  1.00  0.00     0.039 A 
HETATM   15  C22 UNK     1      18.149   3.231  31.778  1.00  0.00     0.069 A 
HETATM   16  C20 UNK     1      19.874  -1.434  30.799  1.00  0.00     0.288 A 
HETATM   17  C17 UNK     1      19.413  -1.438  32.198  1.00  0.00     0.092 A 
HETATM   18  O4  UNK     1      20.348  -2.440  30.283  1.00  0.00    -0.260 OA
BRANCH  15  19
HETATM   19  O3  UNK     1      17.632   4.373  32.310  1.00  0.00    -0.351 OA
BRANCH  19  20
HETATM   20  C24 UNK     1      18.420   5.047  33.290  1.00  0.00     0.171 C 
HETATM   21  C25 UNK     1      19.179   6.174  32.622  1.00  0.00     0.034 C 
ENDBRANCH  19  20
ENDBRANCH  15  19
ENDBRANCH   7   8
ENDBRANCH   2   7
BRANCH   1  22
HETATM   22  C9  UNK     1      20.615  -4.061  37.945  1.00  0.00     0.374 C 
BRANCH  22  23
HETATM   23  C12 UNK     1      20.420  -5.303  37.091  1.00  0.00     0.248 C 
HETATM   24  O1  UNK     1      20.449  -5.240  35.859  1.00  0.00    -0.271 OA
HETATM   25  N1  UNK     1      20.207  -6.497  37.791  1.00  0.00    -0.350 N 
HETATM   26  C13 UNK     1      20.175  -6.555  39.247  1.00  0.00     0.153 C 
BRANCH  25  27
HETATM   27  C1  UNK     1      20.004  -7.760  37.124  1.00  0.00     0.086 C 
HETATM   28  C2  UNK     1      21.341  -8.358  36.676  1.00  0.00     0.025 C 
HETATM   29  C4  UNK     1      21.154  -9.721  36.016  1.00  0.00     0.002 C 
HETATM   30  C6  UNK     1      20.387 -10.684  36.917  1.00  0.00     0.000 C 
HETATM   31  C5  UNK     1      19.053 -10.091  37.366  1.00  0.00     0.002 C 
HETATM   32  C3  UNK     1      19.236  -8.728  38.028  1.00  0.00     0.025 C 
ENDBRANCH  25  27
ENDBRANCH  22  23
ENDBRANCH   1  22
TORSDOF 7
ENDMDL
MODEL 6
REMARK VINA RESULT:      -8.1      2.678     10.539
REMARK  7 active torsions:
REMARK  status: ('A' for Active; 'I' for Inactive)
REMARK    1  A    between atoms: C22_29  and  O3_3 
REMARK    2  A    between atoms: C24_31  and  O3_3 
REMARK    3  A    between atoms: C1_8  and  N1_5 
REMARK       I    between atoms: C12_19  and  N1_5 
REMARK    4  A    between atoms: C9_16  and  N2_6 
REMARK    5  A    between atoms: C14_21  and  N3_7 
REMARK    6  A    between atoms: C12_19  and  C9_16 
REMARK    7  A    between atoms: C14_21  and  C15_22 
ROOT
HETATM    1  N2  UNK     1      26.648  -8.930  37.320  1.00  0.00     0.100 N 
HETATM    2  N3  UNK     1      29.509  -8.684  37.652  1.00  0.00     0.096 N 
HETATM    3  C7  UNK     1      27.373  -9.744  38.304  1.00  0.00     0.303 C 
HETATM    4  C8  UNK     1      27.520  -8.596  36.188  1.00  0.00     0.303 C 
HETATM    5  C10 UNK     1      28.637  -9.020  38.784  1.00  0.00     0.303 C 
HETATM    6  C11 UNK     1      28.783  -7.871  36.668  1.00  0.00     0.303 C 
ENDROOT
BRANCH   2   7
HETATM    7  C14 UNK     1      30.712  -7.992  38.112  1.00  0.00     0.312 C 
BRANCH   7   8
HETATM    8  C15 UNK     1      30.560  -6.511  38.067  1.00  0.00    -0.011 A 
HETATM    9  C16 UNK     1      31.457  -5.707  37.227  1.00  0.00     0.009 A 
HETATM   10  C18 UNK     1      31.290  -4.321  37.205  1.00  0.00     0.090 A 
HETATM   11  C19 UNK     1      32.480  -6.250  36.437  1.00  0.00     0.051 A 
HETATM   12  C21 UNK     1      32.100  -3.484  36.435  1.00  0.00     0.041 A 
HETATM   13  O2  UNK     1      30.285  -3.697  37.969  1.00  0.00    -0.275 OA
HETATM   14  C23 UNK     1      33.109  -4.043  35.658  1.00  0.00     0.039 A 
HETATM   15  C22 UNK     1      33.299  -5.424  35.659  1.00  0.00     0.069 A 
HETATM   16  C20 UNK     1      29.423  -4.430  38.770  1.00  0.00     0.288 A 
HETATM   17  C17 UNK     1      29.611  -5.890  38.782  1.00  0.00     0.092 A 
HETATM   18  O4  UNK     1      28.544  -3.896  39.439  1.00  0.00    -0.260 OA
BRANCH  15  19
HETATM   19  O3  UNK     1      34.287  -5.973  34.899  1.00  0.00    -0.351 OA
BRANCH  19  20
HETATM   20  C24 UNK     1      35.122  -6.946  35.524  1.00  0.00     0.171 C 
HETATM   21  C25 UNK     1      36.454  -6.987  34.807  1.00  0.00     0.034 C 
ENDBRANCH  19  20
ENDBRANCH  15  19
ENDBRANCH   7   8
ENDBRANCH   2   7
BRANCH   1  22
HETATM   22  C9  UNK     1      25.444  -9.621  36.862  1.00  0.00     0.374 C 
BRANCH  22  23
HETATM   23  C12 UNK     1      24.215  -8.857  37.327  1.00  0.00     0.248 C 
HETATM   24  O1  UNK     1      24.316  -7.888  38.084  1.00  0.00    -0.271 OA
HETATM   25  N1  UNK     1      22.988  -9.326  36.844  1.00  0.00    -0.350 N 
HETATM   26  C13 UNK     1      22.885 -10.473  35.949  1.00  0.00     0.153 C 
BRANCH  25  27
HETATM   27  C1  UNK     1      21.732  -8.709  37.194  1.00  0.00     0.086 C 
HETATM   28  C2  UNK     1      20.671  -8.992  36.126  1.00  0.00     0.025 C 
HETATM   29  C4  UNK     1      19.319  -8.393  36.504  1.00  0.00     0.002 C 
HETATM   30  C6  UNK     1      18.861  -8.862  37.882  1.00  0.00     0.000 C 
HETATM   31  C5  UNK     1      19.916  -8.582  38.951  1.00  0.00     0.002 C 
HETATM   32  C3  UNK     1      21.269  -9.179  38.575  1.00  0.00     0.025 C 
ENDBRANCH  25  27
ENDBRANCH  22  23
ENDBRANCH   1  22
TORSDOF 7
ENDMDL
MODEL 7
REMARK VINA RESULT:      -8.0      6.957     12.130
REMARK  7 active torsions:
REMARK  status: ('A' for Active; 'I' for Inactive)
REMARK    1  A    between atoms: C22_29  and  O3_3 
REMARK    2  A    between atoms: C24_31  and  O3_3 
REMARK    3  A    between atoms: C1_8  and  N1_5 
REMARK       I    between atoms: C12_19  and  N1_5 
REMARK    4  A    between atoms: C9_16  and  N2_6 
REMARK    5  A    between atoms: C14_21  and  N3_7 
REMARK    6  A    between atoms: C12_19  and  C9_16 
REMARK    7  A    between atoms: C14_21  and  C15_22 
ROOT
HETATM    1  N2  UNK     1      18.424  -1.529  36.428  1.00  0.00     0.100 N 
HETATM    2  N3  UNK     1      18.000   1.005  35.102  1.00  0.00     0.096 N 
HETATM    3  C7  UNK     1      18.997  -1.257  35.104  1.00  0.00     0.303 C 
HETATM    4  C8  UNK     1      17.182  -0.770  36.614  1.00  0.00     0.303 C 
HETATM    5  C10 UNK     1      19.242   0.245  34.914  1.00  0.00     0.303 C 
HETATM    6  C11 UNK     1      17.426   0.731  36.425  1.00  0.00     0.303 C 
ENDROOT
BRANCH   2   7
HETATM    7  C14 UNK     1      18.236   2.436  34.923  1.00  0.00     0.312 C 
BRANCH   7   8
HETATM    8  C15 UNK     1      18.275   2.824  33.486  1.00  0.00    -0.011 A 
HETATM    9  C16 UNK     1      18.298   4.244  33.110  1.00  0.00     0.009 A 
HETATM   10  C18 UNK     1      18.335   4.576  31.754  1.00  0.00     0.090 A 
HETATM   11  C19 UNK     1      18.285   5.295  34.036  1.00  0.00     0.051 A 
HETATM   12  C21 UNK     1      18.358   5.900  31.312  1.00  0.00     0.041 A 
HETATM   13  O2  UNK     1      18.351   3.579  30.760  1.00  0.00    -0.275 OA
HETATM   14  C23 UNK     1      18.345   6.929  32.248  1.00  0.00     0.039 A 
HETATM   15  C22 UNK     1      18.309   6.627  33.607  1.00  0.00     0.069 A 
HETATM   16  C20 UNK     1      18.332   2.231  31.085  1.00  0.00     0.288 A 
HETATM   17  C17 UNK     1      18.293   1.896  32.518  1.00  0.00     0.092 A 
HETATM   18  O4  UNK     1      18.346   1.355  30.227  1.00  0.00    -0.260 OA
BRANCH  15  19
HETATM   19  O3  UNK     1      18.296   7.634  34.525  1.00  0.00    -0.351 OA
BRANCH  19  20
HETATM   20  C24 UNK     1      18.749   8.914  34.090  1.00  0.00     0.171 C 
HETATM   21  C25 UNK     1      20.187   9.103  34.523  1.00  0.00     0.034 C 
ENDBRANCH  19  20
ENDBRANCH  15  19
ENDBRANCH   7   8
ENDBRANCH   2   7
BRANCH   1  22
HETATM   22  C9  UNK     1      18.190  -2.960  36.608  1.00  0.00     0.374 C 
BRANCH  22  23
HETATM   23  C12 UNK     1      19.464  -3.621  37.107  1.00  0.00     0.248 C 
HETATM   24  O1  UNK     1      20.401  -2.949  37.548  1.00  0.00    -0.271 OA
HETATM   25  N1  UNK     1      19.496  -5.019  37.029  1.00  0.00    -0.350 N 
HETATM   26  C13 UNK     1      18.381  -5.799  36.506  1.00  0.00     0.153 C 
BRANCH  25  27
HETATM   27  C1  UNK     1      20.635  -5.792  37.462  1.00  0.00     0.086 C 
HETATM   28  C2  UNK     1      20.501  -6.175  38.938  1.00  0.00     0.025 C 
HETATM   29  C4  UNK     1      21.670  -7.040  39.403  1.00  0.00     0.002 C 
HETATM   30  C6  UNK     1      21.843  -8.273  38.521  1.00  0.00     0.000 C 
HETATM   31  C5  UNK     1      21.976  -7.897  37.047  1.00  0.00     0.002 C 
HETATM   32  C3  UNK     1      20.809  -7.031  36.579  1.00  0.00     0.025 C 
ENDBRANCH  25  27
ENDBRANCH  22  23
ENDBRANCH   1  22
TORSDOF 7
ENDMDL
MODEL 8
REMARK VINA RESULT:      -8.0     32.278     35.319
REMARK  7 active torsions:
REMARK  status: ('A' for Active; 'I' for Inactive)
REMARK    1  A    between atoms: C22_29  and  O3_3 
REMARK    2  A    between atoms: C24_31  and  O3_3 
REMARK    3  A    between atoms: C1_8  and  N1_5 
REMARK       I    between atoms: C12_19  and  N1_5 
REMARK    4  A    between atoms: C9_16  and  N2_6 
REMARK    5  A    between atoms: C14_21  and  N3_7 
REMARK    6  A    between atoms: C12_19  and  C9_16 
REMARK    7  A    between atoms: C14_21  and  C15_22 
ROOT
HETATM    1  N2  UNK     1       8.887   7.147   7.812  1.00  0.00     0.100 N 
HETATM    2  N3  UNK     1      11.715   6.587   7.589  1.00  0.00     0.096 N 
HETATM    3  C7  UNK     1       9.769   7.202   8.985  1.00  0.00     0.303 C 
HETATM    4  C8  UNK     1       9.398   6.182   6.831  1.00  0.00     0.303 C 
HETATM    5  C10 UNK     1      11.204   7.551   8.572  1.00  0.00     0.303 C 
HETATM    6  C11 UNK     1      10.832   6.532   6.418  1.00  0.00     0.303 C 
ENDROOT
BRANCH   2   7
HETATM    7  C14 UNK     1      13.082   6.924   7.195  1.00  0.00     0.312 C 
BRANCH   7   8
HETATM    8  C15 UNK     1      14.069   6.610   8.264  1.00  0.00    -0.011 A 
HETATM    9  C16 UNK     1      14.801   7.697   8.928  1.00  0.00     0.009 A 
HETATM   10  C18 UNK     1      15.721   7.371   9.927  1.00  0.00     0.090 A 
HETATM   11  C19 UNK     1      14.634   9.053   8.617  1.00  0.00     0.051 A 
HETATM   12  C21 UNK     1      16.459   8.342  10.606  1.00  0.00     0.041 A 
HETATM   13  O2  UNK     1      15.947   6.032  10.300  1.00  0.00    -0.275 OA
HETATM   14  C23 UNK     1      16.277   9.683  10.283  1.00  0.00     0.039 A 
HETATM   15  C22 UNK     1      15.366  10.037   9.290  1.00  0.00     0.069 A 
HETATM   16  C20 UNK     1      15.269   4.986   9.692  1.00  0.00     0.288 A 
HETATM   17  C17 UNK     1      14.304   5.345   8.640  1.00  0.00     0.092 A 
HETATM   18  O4  UNK     1      15.459   3.816  10.009  1.00  0.00    -0.260 OA
BRANCH  15  19
HETATM   19  O3  UNK     1      15.187  11.350   8.973  1.00  0.00    -0.351 OA
BRANCH  19  20
HETATM   20  C24 UNK     1      15.484  11.740   7.633  1.00  0.00     0.171 C 
HETATM   21  C25 UNK     1      16.920  12.215   7.564  1.00  0.00     0.034 C 
ENDBRANCH  19  20
ENDBRANCH  15  19
ENDBRANCH   7   8
ENDBRANCH   2   7
BRANCH   1  22
HETATM   22  C9  UNK     1       7.521   6.813   8.206  1.00  0.00     0.374 C 
BRANCH  22  23
HETATM   23  C12 UNK     1       7.544   5.623   9.151  1.00  0.00     0.248 C 
HETATM   24  O1  UNK     1       8.269   4.649   8.930  1.00  0.00    -0.271 OA
HETATM   25  N1  UNK     1       6.700   5.712  10.265  1.00  0.00    -0.350 N 
HETATM   26  C13 UNK     1       5.850   6.870  10.511  1.00  0.00     0.153 C 
BRANCH  25  27
HETATM   27  C1  UNK     1       6.608   4.663  11.252  1.00  0.00     0.086 C 
HETATM   28  C2  UNK     1       6.003   5.196  12.554  1.00  0.00     0.025 C 
HETATM   29  C4  UNK     1       5.846   4.091  13.594  1.00  0.00     0.002 C 
HETATM   30  C6  UNK     1       5.045   2.912  13.048  1.00  0.00     0.000 C 
HETATM   31  C5  UNK     1       5.644   2.378  11.749  1.00  0.00     0.002 C 
HETATM   32  C3  UNK     1       5.802   3.482  10.706  1.00  0.00     0.025 C 
ENDBRANCH  25  27
ENDBRANCH  22  23
ENDBRANCH   1  22
TORSDOF 7
ENDMDL
MODEL 9
REMARK VINA RESULT:      -7.9      6.788     12.252
REMARK  7 active torsions:
REMARK  status: ('A' for Active; 'I' for Inactive)
REMARK    1  A    between atoms: C22_29  and  O3_3 
REMARK    2  A    between atoms: C24_31  and  O3_3 
REMARK    3  A    between atoms: C1_8  and  N1_5 
REMARK       I    between atoms: C12_19  and  N1_5 
REMARK    4  A    between atoms: C9_16  and  N2_6 
REMARK    5  A    between atoms: C14_21  and  N3_7 
REMARK    6  A    between atoms: C12_19  and  C9_16 
REMARK    7  A    between atoms: C14_21  and  C15_22 
ROOT
HETATM    1  N2  UNK     1      19.260  -1.695  35.743  1.00  0.00     0.100 N 
HETATM    2  N3  UNK     1      18.619   0.750  34.340  1.00  0.00     0.096 N 
HETATM    3  C7  UNK     1      19.524  -0.381  36.342  1.00  0.00     0.303 C 
HETATM    4  C8  UNK     1      19.334  -1.615  34.280  1.00  0.00     0.303 C 
HETATM    5  C10 UNK     1      18.547   0.671  35.804  1.00  0.00     0.303 C 
HETATM    6  C11 UNK     1      18.356  -0.565  33.741  1.00  0.00     0.303 C 
ENDROOT
BRANCH   2   7
HETATM    7  C14 UNK     1      17.684   1.750  33.828  1.00  0.00     0.312 C 
BRANCH   7   8
HETATM    8  C15 UNK     1      18.168   2.381  32.569  1.00  0.00    -0.011 A 
HETATM    9  C16 UNK     1      18.337   3.838  32.497  1.00  0.00     0.009 A 
HETATM   10  C18 UNK     1      18.793   4.400  31.302  1.00  0.00     0.090 A 
HETATM   11  C19 UNK     1      18.065   4.708  33.561  1.00  0.00     0.051 A 
HETATM   12  C21 UNK     1      18.979   5.775  31.149  1.00  0.00     0.041 A 
HETATM   13  O2  UNK     1      19.089   3.594  30.185  1.00  0.00    -0.275 OA
HETATM   14  C23 UNK     1      18.705   6.621  32.218  1.00  0.00     0.039 A 
HETATM   15  C22 UNK     1      18.248   6.088  33.422  1.00  0.00     0.069 A 
HETATM   16  C20 UNK     1      18.941   2.217  30.225  1.00  0.00     0.288 A 
HETATM   17  C17 UNK     1      18.459   1.639  31.491  1.00  0.00     0.092 A 
HETATM   18  O4  UNK     1      19.197   1.507  29.259  1.00  0.00    -0.260 OA
BRANCH  15  19
HETATM   19  O3  UNK     1      17.979   6.916  34.470  1.00  0.00    -0.351 OA
BRANCH  19  20
HETATM   20  C24 UNK     1      17.403   8.185  34.164  1.00  0.00     0.171 C 
HETATM   21  C25 UNK     1      15.896   8.075  34.246  1.00  0.00     0.034 C 
ENDBRANCH  19  20
ENDBRANCH  15  19
ENDBRANCH   7   8
ENDBRANCH   2   7
BRANCH   1  22
HETATM   22  C9  UNK     1      20.193  -2.695  36.256  1.00  0.00     0.374 C 
BRANCH  22  23
HETATM   23  C12 UNK     1      19.419  -3.922  36.711  1.00  0.00     0.248 C 
HETATM   24  O1  UNK     1      18.206  -4.021  36.507  1.00  0.00    -0.271 OA
HETATM   25  N1  UNK     1      20.168  -4.908  37.365  1.00  0.00    -0.350 N 
HETATM   26  C13 UNK     1      21.601  -4.775  37.598  1.00  0.00     0.153 C 
BRANCH  25  27
HETATM   27  C1  UNK     1      19.578  -6.129  37.856  1.00  0.00     0.086 C 
HETATM   28  C2  UNK     1      19.527  -7.190  36.753  1.00  0.00     0.025 C 
HETATM   29  C4  UNK     1      18.956  -8.508  37.266  1.00  0.00     0.002 C 
HETATM   30  C6  UNK     1      19.715  -9.013  38.490  1.00  0.00     0.000 C 
HETATM   31  C5  UNK     1      19.769  -7.958  39.593  1.00  0.00     0.002 C 
HETATM   32  C3  UNK     1      20.340  -6.638  39.082  1.00  0.00     0.025 C 
ENDBRANCH  25  27
ENDBRANCH  22  23
ENDBRANCH   1  22
TORSDOF 7
ENDMDL
MODEL 10
REMARK VINA RESULT:      -7.9      1.533      2.011
REMARK  7 active torsions:
REMARK  status: ('A' for Active; 'I' for Inactive)
REMARK    1  A    between atoms: C22_29  and  O3_3 
REMARK    2  A    between atoms: C24_31  and  O3_3 
REMARK    3  A    between atoms: C1_8  and  N1_5 
REMARK       I    between atoms: C12_19  and  N1_5 
REMARK    4  A    between atoms: C9_16  and  N2_6 
REMARK    5  A    between atoms: C14_21  and  N3_7 
REMARK    6  A    between atoms: C12_19  and  C9_16 
REMARK    7  A    between atoms: C14_21  and  C15_22 
ROOT
HETATM    1  N2  UNK     1      26.086  -8.836  37.229  1.00  0.00     0.100 N 
HETATM    2  N3  UNK     1      23.575  -8.487  38.617  1.00  0.00     0.096 N 
HETATM    3  C7  UNK     1      24.891  -9.596  36.844  1.00  0.00     0.303 C 
HETATM    4  C8  UNK     1      26.045  -8.507  38.658  1.00  0.00     0.303 C 
HETATM    5  C10 UNK     1      23.615  -8.818  37.188  1.00  0.00     0.303 C 
HETATM    6  C11 UNK     1      24.771  -7.728  39.002  1.00  0.00     0.303 C 
ENDROOT
BRANCH   2   7
HETATM    7  C14 UNK     1      22.360  -7.742  38.943  1.00  0.00     0.312 C 
BRANCH   7   8
HETATM    8  C15 UNK     1      21.134  -8.416  38.432  1.00  0.00    -0.011 A 
HETATM    9  C16 UNK     1      20.330  -7.779  37.381  1.00  0.00     0.009 A 
HETATM   10  C18 UNK     1      19.186  -8.435  36.922  1.00  0.00     0.090 A 
HETATM   11  C19 UNK     1      20.643  -6.541  36.803  1.00  0.00     0.051 A 
HETATM   12  C21 UNK     1      18.367  -7.899  35.927  1.00  0.00     0.041 A 
HETATM   13  O2  UNK     1      18.803  -9.684  37.450  1.00  0.00    -0.275 OA
HETATM   14  C23 UNK     1      18.696  -6.669  35.367  1.00  0.00     0.039 A 
HETATM   15  C22 UNK     1      19.832  -5.991  35.804  1.00  0.00     0.069 A 
HETATM   16  C20 UNK     1      19.542 -10.310  38.442  1.00  0.00     0.288 A 
HETATM   17  C17 UNK     1      20.745  -9.605  38.915  1.00  0.00     0.092 A 
HETATM   18  O4  UNK     1      19.217 -11.397  38.908  1.00  0.00    -0.260 OA
BRANCH  15  19
HETATM   19  O3  UNK     1      20.156  -4.787  35.256  1.00  0.00    -0.351 OA
BRANCH  19  20
HETATM   20  C24 UNK     1      20.023  -3.638  36.091  1.00  0.00     0.171 C 
HETATM   21  C25 UNK     1      20.124  -2.393  35.236  1.00  0.00     0.034 C 
ENDBRANCH  19  20
ENDBRANCH  15  19
ENDBRANCH   7   8
ENDBRANCH   2   7
BRANCH   1  22
HETATM   22  C9  UNK     1      27.301  -9.579  36.901  1.00  0.00     0.374 C 
BRANCH  22  23
HETATM   23  C12 UNK     1      28.411  -8.603  36.548  1.00  0.00     0.248 C 
HETATM   24  O1  UNK     1      28.275  -7.791  35.628  1.00  0.00    -0.271 OA
HETATM   25  N1  UNK     1      29.572  -8.692  37.325  1.00  0.00    -0.350 N 
HETATM   26  C13 UNK     1      29.716  -9.657  38.408  1.00  0.00     0.153 C 
BRANCH  25  27
HETATM   27  C1  UNK     1      30.713  -7.836  37.111  1.00  0.00     0.086 C 
HETATM   28  C2  UNK     1      30.947  -6.931  38.325  1.00  0.00     0.025 C 
HETATM   29  C4  UNK     1      32.183  -6.055  38.143  1.00  0.00     0.002 C 
HETATM   30  C6  UNK     1      33.421  -6.887  37.821  1.00  0.00     0.000 C 
HETATM   31  C5  UNK     1      33.193  -7.791  36.612  1.00  0.00     0.002 C 
HETATM   32  C3  UNK     1      31.957  -8.669  36.791  1.00  0.00     0.025 C 
ENDBRANCH  25  27
ENDBRANCH  22  23
ENDBRANCH   1  22
TORSDOF 7
ENDMDL
