MODEL 1
REMARK VINA RESULT:      -7.1      0.000      0.000
REMARK  1 active torsions:
REMARK  status: ('A' for Active; 'I' for Inactive)
REMARK    1  A    between atoms: C3_6  and  C8_11 
ROOT
HETATM    1  O1  UNK     1      18.791   1.231  31.646  1.00  0.00    -0.274 OA
HETATM    2  O2  UNK     1      17.724   2.040  33.497  1.00  0.00    -0.259 OA
HETATM    3  C1  UNK     1      19.524  -1.088  31.601  1.00  0.00    -0.001 A 
HETATM    4  C2  UNK     1      19.415   0.155  30.985  1.00  0.00     0.089 A 
HETATM    5  C3  UNK     1      18.392  -0.233  33.565  1.00  0.00     0.086 A 
HETATM    6  C4  UNK     1      18.982  -1.257  32.940  1.00  0.00     0.035 A 
HETATM    7  C5  UNK     1      20.148  -2.129  30.912  1.00  0.00     0.014 A 
HETATM    8  C6  UNK     1      19.913   0.385  29.703  1.00  0.00     0.038 A 
HETATM    9  C7  UNK     1      18.265   1.098  32.929  1.00  0.00     0.302 A 
HETATM   10  C9  UNK     1      20.653  -1.915  29.626  1.00  0.00     0.001 A 
HETATM   11  C10 UNK     1      20.534  -0.660  29.023  1.00  0.00     0.003 A 
ENDROOT
BRANCH   5  12
HETATM   12  C8  UNK     1      17.878  -0.503  34.913  1.00  0.00     0.161 C 
HETATM   13  C11 UNK     1      16.429  -0.891  35.052  1.00  0.00     0.097 C 
HETATM   14  O3  UNK     1      18.616  -0.406  35.894  1.00  0.00    -0.293 OA
ENDBRANCH   5  12
TORSDOF 1
ENDMDL
MODEL 2
REMARK VINA RESULT:      -7.0      1.957      3.705
REMARK  1 active torsions:
REMARK  status: ('A' for Active; 'I' for Inactive)
REMARK    1  A    between atoms: C3_6  and  C8_11 
ROOT
HETATM    1  O1  UNK     1      18.751   0.492  32.672  1.00  0.00    -0.274 OA
HETATM    2  O2  UNK     1      17.889   2.334  33.713  1.00  0.00    -0.259 OA
HETATM    3  C1  UNK     1      19.491   0.655  30.361  1.00  0.00    -0.001 A 
HETATM    4  C2  UNK     1      19.304  -0.096  31.518  1.00  0.00     0.089 A 
HETATM    5  C3  UNK     1      18.579   2.611  31.463  1.00  0.00     0.086 A 
HETATM    6  C4  UNK     1      19.105   2.057  30.365  1.00  0.00     0.035 A 
HETATM    7  C5  UNK     1      20.044   0.036  29.238  1.00  0.00     0.014 A 
HETATM    8  C6  UNK     1      19.653  -1.444  31.582  1.00  0.00     0.038 A 
HETATM    9  C7  UNK     1      18.371   1.831  32.704  1.00  0.00     0.302 A 
HETATM   10  C9  UNK     1      20.399  -1.315  29.286  1.00  0.00     0.001 A 
HETATM   11  C10 UNK     1      20.204  -2.053  30.457  1.00  0.00     0.003 A 
ENDROOT
BRANCH   5  12
HETATM   12  C8  UNK     1      18.221   4.030  31.367  1.00  0.00     0.161 C 
HETATM   13  C11 UNK     1      19.060   4.912  30.480  1.00  0.00     0.097 C 
HETATM   14  O3  UNK     1      17.265   4.478  32.001  1.00  0.00    -0.293 OA
ENDBRANCH   5  12
TORSDOF 1
ENDMDL
MODEL 3
REMARK VINA RESULT:      -6.8     14.411     16.381
REMARK  1 active torsions:
REMARK  status: ('A' for Active; 'I' for Inactive)
REMARK    1  A    between atoms: C3_6  and  C8_11 
ROOT
HETATM    1  O1  UNK     1      19.273   1.031  15.331  1.00  0.00    -0.274 OA
HETATM    2  O2  UNK     1      19.276  -0.530  13.663  1.00  0.00    -0.259 OA
HETATM    3  C1  UNK     1      18.899   0.331  17.629  1.00  0.00    -0.001 A 
HETATM    4  C2  UNK     1      19.143   1.337  16.699  1.00  0.00     0.089 A 
HETATM    5  C3  UNK     1      18.902  -1.327  15.863  1.00  0.00     0.086 A 
HETATM    6  C4  UNK     1      18.779  -1.042  17.164  1.00  0.00     0.035 A 
HETATM    7  C5  UNK     1      18.778   0.675  18.977  1.00  0.00     0.014 A 
HETATM    8  C6  UNK     1      19.268   2.673  17.079  1.00  0.00     0.038 A 
HETATM    9  C7  UNK     1      19.162  -0.273  14.856  1.00  0.00     0.302 A 
HETATM   10  C9  UNK     1      18.900   2.010  19.373  1.00  0.00     0.001 A 
HETATM   11  C10 UNK     1      19.146   3.007  18.425  1.00  0.00     0.003 A 
ENDROOT
BRANCH   5  12
HETATM   12  C8  UNK     1      18.765  -2.740  15.492  1.00  0.00     0.161 C 
HETATM   13  C11 UNK     1      19.998  -3.605  15.536  1.00  0.00     0.097 C 
HETATM   14  O3  UNK     1      17.672  -3.194  15.151  1.00  0.00    -0.293 OA
ENDBRANCH   5  12
TORSDOF 1
ENDMDL
MODEL 4
REMARK VINA RESULT:      -6.7      2.784      3.957
REMARK  1 active torsions:
REMARK  status: ('A' for Active; 'I' for Inactive)
REMARK    1  A    between atoms: C3_6  and  C8_11 
ROOT
HETATM    1  O1  UNK     1      18.924   1.262  28.537  1.00  0.00    -0.274 OA
HETATM    2  O2  UNK     1      18.088   3.387  28.447  1.00  0.00    -0.259 OA
HETATM    3  C1  UNK     1      19.618   0.335  30.675  1.00  0.00    -0.001 A 
HETATM    4  C2  UNK     1      19.453   0.204  29.300  1.00  0.00     0.089 A 
HETATM    5  C3  UNK     1      18.731   2.587  30.584  1.00  0.00     0.086 A 
HETATM    6  C4  UNK     1      19.232   1.585  31.312  1.00  0.00     0.035 A 
HETATM    7  C5  UNK     1      20.145  -0.738  31.397  1.00  0.00     0.014 A 
HETATM    8  C6  UNK     1      19.803  -0.967  28.628  1.00  0.00     0.038 A 
HETATM    9  C7  UNK     1      18.548   2.470  29.119  1.00  0.00     0.302 A 
HETATM   10  C9  UNK     1      20.500  -1.919  30.737  1.00  0.00     0.001 A 
HETATM   11  C10 UNK     1      20.328  -2.032  29.355  1.00  0.00     0.003 A 
ENDROOT
BRANCH   5  12
HETATM   12  C8  UNK     1      18.373   3.807  31.317  1.00  0.00     0.161 C 
HETATM   13  C11 UNK     1      19.101   5.080  30.968  1.00  0.00     0.097 C 
HETATM   14  O3  UNK     1      17.508   3.779  32.193  1.00  0.00    -0.293 OA
ENDBRANCH   5  12
TORSDOF 1
ENDMDL
MODEL 5
REMARK VINA RESULT:      -6.7      3.656      6.172
REMARK  1 active torsions:
REMARK  status: ('A' for Active; 'I' for Inactive)
REMARK    1  A    between atoms: C3_6  and  C8_11 
ROOT
HETATM    1  O1  UNK     1      18.098   3.178  33.143  1.00  0.00    -0.274 OA
HETATM    2  O2  UNK     1      18.223   0.971  32.565  1.00  0.00    -0.259 OA
HETATM    3  C1  UNK     1      18.512   4.884  31.460  1.00  0.00    -0.001 A 
HETATM    4  C2  UNK     1      18.196   4.532  32.768  1.00  0.00     0.089 A 
HETATM    5  C3  UNK     1      18.644   2.544  30.844  1.00  0.00     0.086 A 
HETATM    6  C4  UNK     1      18.738   3.829  30.484  1.00  0.00     0.035 A 
HETATM    7  C5  UNK     1      18.599   6.237  31.128  1.00  0.00     0.014 A 
HETATM    8  C6  UNK     1      17.968   5.493  33.752  1.00  0.00     0.038 A 
HETATM    9  C7  UNK     1      18.310   2.147  32.231  1.00  0.00     0.302 A 
HETATM   10  C9  UNK     1      18.372   7.213  32.103  1.00  0.00     0.001 A 
HETATM   11  C10 UNK     1      18.056   6.841  33.412  1.00  0.00     0.003 A 
ENDROOT
BRANCH   5  12
HETATM   12  C8  UNK     1      18.891   1.555  29.789  1.00  0.00     0.161 C 
HETATM   13  C11 UNK     1      17.947   1.523  28.616  1.00  0.00     0.097 C 
HETATM   14  O3  UNK     1      19.840   0.774  29.873  1.00  0.00    -0.293 OA
ENDBRANCH   5  12
TORSDOF 1
ENDMDL
MODEL 6
REMARK VINA RESULT:      -6.5      6.968      8.088
REMARK  1 active torsions:
REMARK  status: ('A' for Active; 'I' for Inactive)
REMARK    1  A    between atoms: C3_6  and  C8_11 
ROOT
HETATM    1  O1  UNK     1      18.538   7.376  33.783  1.00  0.00    -0.274 OA
HETATM    2  O2  UNK     1      16.821   8.351  34.933  1.00  0.00    -0.259 OA
HETATM    3  C1  UNK     1      18.242   6.810  31.436  1.00  0.00    -0.001 A 
HETATM    4  C2  UNK     1      19.036   6.842  32.578  1.00  0.00     0.089 A 
HETATM    5  C3  UNK     1      16.420   7.844  32.653  1.00  0.00     0.086 A 
HETATM    6  C4  UNK     1      16.889   7.338  31.507  1.00  0.00     0.035 A 
HETATM    7  C5  UNK     1      18.773   6.273  30.261  1.00  0.00     0.014 A 
HETATM    8  C6  UNK     1      20.341   6.352  32.579  1.00  0.00     0.038 A 
HETATM    9  C7  UNK     1      17.247   7.888  33.880  1.00  0.00     0.302 A 
HETATM   10  C9  UNK     1      20.080   5.777  30.246  1.00  0.00     0.001 A 
HETATM   11  C10 UNK     1      20.863   5.818  31.402  1.00  0.00     0.003 A 
ENDROOT
BRANCH   5  12
HETATM   12  C8  UNK     1      15.043   8.351  32.624  1.00  0.00     0.161 C 
HETATM   13  C11 UNK     1      13.923   7.348  32.525  1.00  0.00     0.097 C 
HETATM   14  O3  UNK     1      14.821   9.561  32.673  1.00  0.00    -0.293 OA
ENDBRANCH   5  12
TORSDOF 1
ENDMDL
MODEL 7
REMARK VINA RESULT:      -6.5     23.864     26.070
REMARK  1 active torsions:
REMARK  status: ('A' for Active; 'I' for Inactive)
REMARK    1  A    between atoms: C3_6  and  C8_11 
ROOT
HETATM    1  O1  UNK     1      11.187   7.447   9.571  1.00  0.00    -0.274 OA
HETATM    2  O2  UNK     1      12.789   7.973  11.112  1.00  0.00    -0.259 OA
HETATM    3  C1  UNK     1      11.851   6.639   7.375  1.00  0.00    -0.001 A 
HETATM    4  C2  UNK     1      10.855   6.987   8.282  1.00  0.00     0.089 A 
HETATM    5  C3  UNK     1      13.553   7.196   9.008  1.00  0.00     0.086 A 
HETATM    6  C4  UNK     1      13.243   6.758   7.782  1.00  0.00     0.035 A 
HETATM    7  C5  UNK     1      11.481   6.187   6.107  1.00  0.00     0.014 A 
HETATM    8  C6  UNK     1       9.502   6.898   7.955  1.00  0.00     0.038 A 
HETATM    9  C7  UNK     1      12.509   7.572   9.988  1.00  0.00     0.302 A 
HETATM   10  C9  UNK     1      10.129   6.091   5.765  1.00  0.00     0.001 A 
HETATM   11  C10 UNK     1       9.142   6.445   6.688  1.00  0.00     0.003 A 
ENDROOT
BRANCH   5  12
HETATM   12  C8  UNK     1      14.984   7.281   9.323  1.00  0.00     0.161 C 
HETATM   13  C11 UNK     1      15.736   5.995   9.547  1.00  0.00     0.097 C 
HETATM   14  O3  UNK     1      15.541   8.376   9.407  1.00  0.00    -0.293 OA
ENDBRANCH   5  12
TORSDOF 1
ENDMDL
MODEL 8
REMARK VINA RESULT:      -6.4      1.420      2.494
REMARK  1 active torsions:
REMARK  status: ('A' for Active; 'I' for Inactive)
REMARK    1  A    between atoms: C3_6  and  C8_11 
ROOT
HETATM    1  O1  UNK     1      19.602  -1.779  32.904  1.00  0.00    -0.274 OA
HETATM    2  O2  UNK     1      18.731  -1.472  34.994  1.00  0.00    -0.259 OA
HETATM    3  C1  UNK     1      19.389  -0.015  31.244  1.00  0.00    -0.001 A 
HETATM    4  C2  UNK     1      19.832  -1.283  31.607  1.00  0.00     0.089 A 
HETATM    5  C3  UNK     1      18.465   0.314  33.460  1.00  0.00     0.086 A 
HETATM    6  C4  UNK     1      18.682   0.790  32.229  1.00  0.00     0.035 A 
HETATM    7  C5  UNK     1      19.638   0.442  29.948  1.00  0.00     0.014 A 
HETATM    8  C6  UNK     1      20.515  -2.105  30.711  1.00  0.00     0.038 A 
HETATM    9  C7  UNK     1      18.928  -1.032  33.867  1.00  0.00     0.302 A 
HETATM   10  C9  UNK     1      20.321  -0.371  29.039  1.00  0.00     0.001 A 
HETATM   11  C10 UNK     1      20.759  -1.642  29.420  1.00  0.00     0.003 A 
ENDROOT
BRANCH   5  12
HETATM   12  C8  UNK     1      17.743   1.200  34.380  1.00  0.00     0.161 C 
HETATM   13  C11 UNK     1      18.551   2.151  35.224  1.00  0.00     0.097 C 
HETATM   14  O3  UNK     1      16.515   1.155  34.458  1.00  0.00    -0.293 OA
ENDBRANCH   5  12
TORSDOF 1
ENDMDL
MODEL 9
REMARK VINA RESULT:      -6.3      3.884      5.838
REMARK  1 active torsions:
REMARK  status: ('A' for Active; 'I' for Inactive)
REMARK    1  A    between atoms: C3_6  and  C8_11 
ROOT
HETATM    1  O1  UNK     1      19.561  -1.095  34.737  1.00  0.00    -0.274 OA
HETATM    2  O2  UNK     1      20.679  -2.996  34.140  1.00  0.00    -0.259 OA
HETATM    3  C1  UNK     1      18.518  -0.954  36.929  1.00  0.00    -0.001 A 
HETATM    4  C2  UNK     1      18.813  -0.383  35.695  1.00  0.00     0.089 A 
HETATM    5  C3  UNK     1      19.704  -2.971  36.300  1.00  0.00     0.086 A 
HETATM    6  C4  UNK     1      18.995  -2.299  37.213  1.00  0.00     0.035 A 
HETATM    7  C5  UNK     1      17.775  -0.216  37.853  1.00  0.00     0.014 A 
HETATM    8  C6  UNK     1      18.386   0.900  35.359  1.00  0.00     0.038 A 
HETATM    9  C7  UNK     1      20.030  -2.383  34.980  1.00  0.00     0.302 A 
HETATM   10  C9  UNK     1      17.339   1.073  37.531  1.00  0.00     0.001 A 
HETATM   11  C10 UNK     1      17.645   1.630  36.286  1.00  0.00     0.003 A 
ENDROOT
BRANCH   5  12
HETATM   12  C8  UNK     1      20.139  -4.320  36.679  1.00  0.00     0.161 C 
HETATM   13  C11 UNK     1      19.144  -5.444  36.555  1.00  0.00     0.097 C 
HETATM   14  O3  UNK     1      21.283  -4.515  37.092  1.00  0.00    -0.293 OA
ENDBRANCH   5  12
TORSDOF 1
ENDMDL
MODEL 10
REMARK VINA RESULT:      -6.3     13.125     15.641
REMARK  1 active torsions:
REMARK  status: ('A' for Active; 'I' for Inactive)
REMARK    1  A    between atoms: C3_6  and  C8_11 
ROOT
HETATM    1  O1  UNK     1      19.329   1.491  15.401  1.00  0.00    -0.274 OA
HETATM    2  O2  UNK     1      19.409   3.480  16.522  1.00  0.00    -0.259 OA
HETATM    3  C1  UNK     1      19.035  -0.577  16.647  1.00  0.00    -0.001 A 
HETATM    4  C2  UNK     1      19.201   0.089  15.436  1.00  0.00     0.089 A 
HETATM    5  C3  UNK     1      19.118   1.531  17.838  1.00  0.00     0.086 A 
HETATM    6  C4  UNK     1      18.995   0.200  17.876  1.00  0.00     0.035 A 
HETATM    7  C5  UNK     1      18.910  -1.968  16.639  1.00  0.00     0.014 A 
HETATM    8  C6  UNK     1      19.248  -0.596  14.223  1.00  0.00     0.038 A 
HETATM    9  C7  UNK     1      19.296   2.260  16.561  1.00  0.00     0.302 A 
HETATM   10  C9  UNK     1      18.955  -2.668  15.430  1.00  0.00     0.001 A 
HETATM   11  C10 UNK     1      19.122  -1.983  14.224  1.00  0.00     0.003 A 
ENDROOT
BRANCH   5  12
HETATM   12  C8  UNK     1      19.067   2.225  19.129  1.00  0.00     0.161 C 
HETATM   13  C11 UNK     1      18.186   1.648  20.207  1.00  0.00     0.097 C 
HETATM   14  O3  UNK     1      19.722   3.251  19.315  1.00  0.00    -0.293 OA
ENDBRANCH   5  12
TORSDOF 1
ENDMDL
