MODEL 1
REMARK VINA RESULT:      -9.8      0.000      0.000
REMARK  3 active torsions:
REMARK  status: ('A' for Active; 'I' for Inactive)
REMARK    1  A    between atoms: C5_14  and  N1_7 
REMARK       I    between atoms: C7_16  and  N1_7 
REMARK       I    between atoms: C14_23  and  N2_8 
REMARK       I    between atoms: C16_25  and  N2_8 
REMARK       I    between atoms: C16_25  and  N3_9 
REMARK    2  A    between atoms: C2_11  and  C7_16 
REMARK    3  A    between atoms: C14_23  and  C6_15 
ROOT
HETATM    1  O2  UNK     1      21.139  -3.733  37.564  1.00  0.00    -0.267 OA
HETATM    2  N1  UNK     1      19.025  -3.638  36.531  1.00  0.00    -0.316 N 
HETATM    3  C7  UNK     1      20.145  -4.259  37.066  1.00  0.00     0.262 C 
HETATM    4  H2  UNK     1      18.267  -4.213  36.172  1.00  0.00     0.169 HD
ENDROOT
BRANCH   2   5
HETATM    5  C5  UNK     1      18.770  -2.248  36.438  1.00  0.00     0.092 A 
HETATM    6  C6  UNK     1      19.020  -1.391  35.430  1.00  0.00     0.066 A 
HETATM    7  C11 UNK     1      18.592  -0.076  35.774  1.00  0.00     0.027 A 
HETATM    8  C15 UNK     1      18.041  -0.024  37.035  1.00  0.00     0.053 A 
HETATM    9  S1  UNK     1      18.040  -1.557  37.798  1.00  0.00    -0.083 SA
BRANCH   6  10
HETATM   10  C14 UNK     1      19.633  -1.759  34.180  1.00  0.00     0.262 C 
HETATM   11  O4  UNK     1      20.490  -2.659  34.096  1.00  0.00    -0.267 OA
HETATM   12  N2  UNK     1      19.183  -1.070  33.034  1.00  0.00    -0.275 N 
HETATM   13  C16 UNK     1      19.609  -1.287  31.718  1.00  0.00     0.320 C 
HETATM   14  H9  UNK     1      18.482  -0.344  33.137  1.00  0.00     0.173 HD
HETATM   15  O5  UNK     1      20.445  -2.118  31.367  1.00  0.00    -0.247 OA
HETATM   16  N3  UNK     1      18.972  -0.440  30.828  1.00  0.00    -0.352 N 
HETATM   17  H10 UNK     1      18.285   0.239  31.135  1.00  0.00     0.160 HD
HETATM   18  H11 UNK     1      19.175  -0.475  29.834  1.00  0.00     0.160 HD
ENDBRANCH   6  10
ENDBRANCH   2   5
BRANCH   3  19
HETATM   19  C2  UNK     1      20.056  -5.721  36.991  1.00  0.00     0.108 A 
HETATM   20  C4  UNK     1      19.949  -6.368  38.159  1.00  0.00     0.037 A 
HETATM   21  C1  UNK     1      19.853  -7.819  38.187  1.00  0.00    -0.001 A 
HETATM   22  C3  UNK     1      19.875  -8.519  36.985  1.00  0.00     0.089 A 
HETATM   23  C8  UNK     1      19.740  -8.535  39.382  1.00  0.00     0.014 A 
HETATM   24  C10 UNK     1      19.789  -9.909  36.943  1.00  0.00     0.038 A 
HETATM   25  O1  UNK     1      19.989  -7.834  35.760  1.00  0.00    -0.274 OA
HETATM   26  C13 UNK     1      19.677 -10.615  38.139  1.00  0.00     0.003 A 
HETATM   27  C12 UNK     1      19.652  -9.930  39.356  1.00  0.00     0.001 A 
HETATM   28  C9  UNK     1      20.082  -6.446  35.700  1.00  0.00     0.304 A 
HETATM   29  O3  UNK     1      20.180  -5.857  34.630  1.00  0.00    -0.259 OA
ENDBRANCH   3  19
TORSDOF 3
ENDMDL
MODEL 2
REMARK VINA RESULT:      -9.4      8.391     10.690
REMARK  3 active torsions:
REMARK  status: ('A' for Active; 'I' for Inactive)
REMARK    1  A    between atoms: C5_14  and  N1_7 
REMARK       I    between atoms: C7_16  and  N1_7 
REMARK       I    between atoms: C14_23  and  N2_8 
REMARK       I    between atoms: C16_25  and  N2_8 
REMARK       I    between atoms: C16_25  and  N3_9 
REMARK    2  A    between atoms: C2_11  and  C7_16 
REMARK    3  A    between atoms: C14_23  and  C6_15 
ROOT
HETATM    1  O2  UNK     1      17.533   3.838  32.919  1.00  0.00    -0.267 OA
HETATM    2  N1  UNK     1      19.083   5.194  31.778  1.00  0.00    -0.316 N 
HETATM    3  C7  UNK     1      18.361   4.036  32.032  1.00  0.00     0.262 C 
HETATM    4  H2  UNK     1      19.722   5.213  30.987  1.00  0.00     0.169 HD
ENDROOT
BRANCH   2   5
HETATM    5  C5  UNK     1      19.029   6.419  32.487  1.00  0.00     0.092 A 
HETATM    6  C6  UNK     1      18.034   7.321  32.575  1.00  0.00     0.066 A 
HETATM    7  C11 UNK     1      18.421   8.413  33.405  1.00  0.00     0.027 A 
HETATM    8  C15 UNK     1      19.700   8.263  33.894  1.00  0.00     0.053 A 
HETATM    9  S1  UNK     1      20.427   6.811  33.354  1.00  0.00    -0.083 SA
BRANCH   6  10
HETATM   10  C14 UNK     1      16.757   7.194  31.921  1.00  0.00     0.262 C 
HETATM   11  O4  UNK     1      16.651   7.020  30.693  1.00  0.00    -0.267 OA
HETATM   12  N2  UNK     1      15.619   7.236  32.754  1.00  0.00    -0.275 N 
HETATM   13  C16 UNK     1      14.288   7.096  32.343  1.00  0.00     0.320 C 
HETATM   14  H9  UNK     1      15.740   7.376  33.751  1.00  0.00     0.173 HD
HETATM   15  O5  UNK     1      13.914   6.915  31.185  1.00  0.00    -0.247 OA
HETATM   16  N3  UNK     1      13.411   7.189  33.409  1.00  0.00    -0.352 N 
HETATM   17  H10 UNK     1      13.736   7.339  34.358  1.00  0.00     0.160 HD
HETATM   18  H11 UNK     1      12.409   7.109  33.273  1.00  0.00     0.160 HD
ENDBRANCH   6  10
ENDBRANCH   2   5
BRANCH   3  19
HETATM   19  C2  UNK     1      18.681   2.965  31.082  1.00  0.00     0.108 A 
HETATM   20  C4  UNK     1      19.040   1.789  31.614  1.00  0.00     0.037 A 
HETATM   21  C1  UNK     1      19.375   0.666  30.753  1.00  0.00    -0.001 A 
HETATM   22  C3  UNK     1      19.317   0.835  29.373  1.00  0.00     0.089 A 
HETATM   23  C8  UNK     1      19.754  -0.577  31.264  1.00  0.00     0.014 A 
HETATM   24  C10 UNK     1      19.626  -0.200  28.493  1.00  0.00     0.038 A 
HETATM   25  O1  UNK     1      18.939   2.074  28.819  1.00  0.00    -0.274 OA
HETATM   26  C13 UNK     1      20.003  -1.437  29.011  1.00  0.00     0.003 A 
HETATM   27  C12 UNK     1      20.066  -1.626  30.393  1.00  0.00     0.001 A 
HETATM   28  C9  UNK     1      18.613   3.167  29.617  1.00  0.00     0.304 A 
HETATM   29  O3  UNK     1      18.285   4.242  29.127  1.00  0.00    -0.259 OA
ENDBRANCH   3  19
TORSDOF 3
ENDMDL
MODEL 3
REMARK VINA RESULT:      -9.4      4.310      9.409
REMARK  3 active torsions:
REMARK  status: ('A' for Active; 'I' for Inactive)
REMARK    1  A    between atoms: C5_14  and  N1_7 
REMARK       I    between atoms: C7_16  and  N1_7 
REMARK       I    between atoms: C14_23  and  N2_8 
REMARK       I    between atoms: C16_25  and  N2_8 
REMARK       I    between atoms: C16_25  and  N3_9 
REMARK    2  A    between atoms: C2_11  and  C7_16 
REMARK    3  A    between atoms: C14_23  and  C6_15 
ROOT
HETATM    1  O2  UNK     1      16.464   0.953  34.223  1.00  0.00    -0.267 OA
HETATM    2  N1  UNK     1      18.733   0.665  34.783  1.00  0.00    -0.316 N 
HETATM    3  C7  UNK     1      17.661   1.192  34.076  1.00  0.00     0.262 C 
HETATM    4  H2  UNK     1      19.674   0.979  34.559  1.00  0.00     0.169 HD
ENDROOT
BRANCH   2   5
HETATM    5  C5  UNK     1      18.691  -0.273  35.842  1.00  0.00     0.092 A 
HETATM    6  C6  UNK     1      19.279  -1.480  35.950  1.00  0.00     0.066 A 
HETATM    7  C11 UNK     1      18.960  -2.083  37.201  1.00  0.00     0.027 A 
HETATM    8  C15 UNK     1      18.139  -1.283  37.966  1.00  0.00     0.053 A 
HETATM    9  S1  UNK     1      17.759   0.188  37.177  1.00  0.00    -0.083 SA
BRANCH   6  10
HETATM   10  C14 UNK     1      20.116  -2.072  34.938  1.00  0.00     0.262 C 
HETATM   11  O4  UNK     1      21.148  -2.711  35.216  1.00  0.00    -0.267 OA
HETATM   12  N2  UNK     1      19.684  -1.928  33.603  1.00  0.00    -0.275 N 
HETATM   13  C16 UNK     1      20.315  -2.451  32.469  1.00  0.00     0.320 C 
HETATM   14  H9  UNK     1      18.836  -1.404  33.412  1.00  0.00     0.173 HD
HETATM   15  O5  UNK     1      21.348  -3.117  32.471  1.00  0.00    -0.247 OA
HETATM   16  N3  UNK     1      19.634  -2.125  31.309  1.00  0.00    -0.352 N 
HETATM   17  H10 UNK     1      18.783  -1.573  31.325  1.00  0.00     0.160 HD
HETATM   18  H11 UNK     1      19.969  -2.430  30.401  1.00  0.00     0.160 HD
ENDBRANCH   6  10
ENDBRANCH   2   5
BRANCH   3  19
HETATM   19  C2  UNK     1      18.093   2.144  33.045  1.00  0.00     0.108 A 
HETATM   20  C4  UNK     1      17.991   3.442  33.359  1.00  0.00     0.037 A 
HETATM   21  C1  UNK     1      18.396   4.461  32.403  1.00  0.00    -0.001 A 
HETATM   22  C3  UNK     1      18.886   4.064  31.162  1.00  0.00     0.089 A 
HETATM   23  C8  UNK     1      18.307   5.825  32.687  1.00  0.00     0.014 A 
HETATM   24  C10 UNK     1      19.289   4.989  30.202  1.00  0.00     0.038 A 
HETATM   25  O1  UNK     1      18.990   2.697  30.838  1.00  0.00    -0.274 OA
HETATM   26  C13 UNK     1      19.197   6.348  30.494  1.00  0.00     0.003 A 
HETATM   27  C12 UNK     1      18.708   6.766  31.733  1.00  0.00     0.001 A 
HETATM   28  C9  UNK     1      18.611   1.699  31.732  1.00  0.00     0.304 A 
HETATM   29  O3  UNK     1      18.706   0.512  31.442  1.00  0.00    -0.259 OA
ENDBRANCH   3  19
TORSDOF 3
ENDMDL
MODEL 4
REMARK VINA RESULT:      -9.4      5.286     10.943
REMARK  3 active torsions:
REMARK  status: ('A' for Active; 'I' for Inactive)
REMARK    1  A    between atoms: C5_14  and  N1_7 
REMARK       I    between atoms: C7_16  and  N1_7 
REMARK       I    between atoms: C14_23  and  N2_8 
REMARK       I    between atoms: C16_25  and  N2_8 
REMARK       I    between atoms: C16_25  and  N3_9 
REMARK    2  A    between atoms: C2_11  and  C7_16 
REMARK    3  A    between atoms: C14_23  and  C6_15 
ROOT
HETATM    1  O2  UNK     1      17.528   1.620  29.679  1.00  0.00    -0.267 OA
HETATM    2  N1  UNK     1      19.493   1.321  30.941  1.00  0.00    -0.316 N 
HETATM    3  C7  UNK     1      18.425   2.032  30.412  1.00  0.00     0.262 C 
HETATM    4  H2  UNK     1      20.148   1.800  31.554  1.00  0.00     0.169 HD
ENDROOT
BRANCH   2   5
HETATM    5  C5  UNK     1      19.796  -0.049  30.755  1.00  0.00     0.092 A 
HETATM    6  C6  UNK     1      19.590  -1.097  31.575  1.00  0.00     0.066 A 
HETATM    7  C11 UNK     1      20.054  -2.302  30.973  1.00  0.00     0.027 A 
HETATM    8  C15 UNK     1      20.589  -2.084  29.722  1.00  0.00     0.053 A 
HETATM    9  S1  UNK     1      20.528  -0.431  29.278  1.00  0.00    -0.083 SA
BRANCH   6  10
HETATM   10  C14 UNK     1      18.983  -1.006  32.878  1.00  0.00     0.262 C 
HETATM   11  O4  UNK     1      17.907  -0.411  33.072  1.00  0.00    -0.267 OA
HETATM   12  N2  UNK     1      19.653  -1.667  33.929  1.00  0.00    -0.275 N 
HETATM   13  C16 UNK     1      19.228  -1.742  35.261  1.00  0.00     0.320 C 
HETATM   14  H9  UNK     1      20.526  -2.145  33.736  1.00  0.00     0.173 HD
HETATM   15  O5  UNK     1      18.201  -1.239  35.712  1.00  0.00    -0.247 OA
HETATM   16  N3  UNK     1      20.117  -2.462  36.041  1.00  0.00    -0.352 N 
HETATM   17  H10 UNK     1      20.961  -2.870  35.652  1.00  0.00     0.160 HD
HETATM   18  H11 UNK     1      19.950  -2.605  37.031  1.00  0.00     0.160 HD
ENDBRANCH   6  10
ENDBRANCH   2   5
BRANCH   3  19
HETATM   19  C2  UNK     1      18.437   3.440  30.827  1.00  0.00     0.108 A 
HETATM   20  C4  UNK     1      18.224   3.675  32.128  1.00  0.00     0.037 A 
HETATM   21  C1  UNK     1      18.219   5.038  32.635  1.00  0.00    -0.001 A 
HETATM   22  C3  UNK     1      18.437   6.088  31.748  1.00  0.00     0.089 A 
HETATM   23  C8  UNK     1      18.001   5.330  33.984  1.00  0.00     0.014 A 
HETATM   24  C10 UNK     1      18.443   7.416  32.169  1.00  0.00     0.038 A 
HETATM   25  O1  UNK     1      18.659   5.834  30.380  1.00  0.00    -0.274 OA
HETATM   26  C13 UNK     1      18.225   7.698  33.516  1.00  0.00     0.003 A 
HETATM   27  C12 UNK     1      18.005   6.658  34.422  1.00  0.00     0.001 A 
HETATM   28  C9  UNK     1      18.670   4.541  29.865  1.00  0.00     0.304 A 
HETATM   29  O3  UNK     1      18.866   4.329  28.674  1.00  0.00    -0.259 OA
ENDBRANCH   3  19
TORSDOF 3
ENDMDL
MODEL 5
REMARK VINA RESULT:      -9.3      5.839     10.826
REMARK  3 active torsions:
REMARK  status: ('A' for Active; 'I' for Inactive)
REMARK    1  A    between atoms: C5_14  and  N1_7 
REMARK       I    between atoms: C7_16  and  N1_7 
REMARK       I    between atoms: C14_23  and  N2_8 
REMARK       I    between atoms: C16_25  and  N2_8 
REMARK       I    between atoms: C16_25  and  N3_9 
REMARK    2  A    between atoms: C2_11  and  C7_16 
REMARK    3  A    between atoms: C14_23  and  C6_15 
ROOT
HETATM    1  O2  UNK     1      17.544   2.024  30.142  1.00  0.00    -0.267 OA
HETATM    2  N1  UNK     1      19.274   1.297  31.565  1.00  0.00    -0.316 N 
HETATM    3  C7  UNK     1      18.281   2.157  31.118  1.00  0.00     0.262 C 
HETATM    4  H2  UNK     1      19.790   1.536  32.408  1.00  0.00     0.169 HD
ENDROOT
BRANCH   2   5
HETATM    5  C5  UNK     1      19.668   0.062  30.996  1.00  0.00     0.092 A 
HETATM    6  C6  UNK     1      19.699  -1.169  31.542  1.00  0.00     0.066 A 
HETATM    7  C11 UNK     1      20.168  -2.124  30.594  1.00  0.00     0.027 A 
HETATM    8  C15 UNK     1      20.465  -1.546  29.379  1.00  0.00     0.053 A 
HETATM    9  S1  UNK     1      20.178   0.142  29.385  1.00  0.00    -0.083 SA
BRANCH   6  10
HETATM   10  C14 UNK     1      19.310  -1.471  32.895  1.00  0.00     0.262 C 
HETATM   11  O4  UNK     1      20.018  -2.158  33.654  1.00  0.00    -0.267 OA
HETATM   12  N2  UNK     1      18.093  -0.911  33.338  1.00  0.00    -0.275 N 
HETATM   13  C16 UNK     1      17.541  -1.040  34.617  1.00  0.00     0.320 C 
HETATM   14  H9  UNK     1      17.543  -0.353  32.694  1.00  0.00     0.173 HD
HETATM   15  O5  UNK     1      18.041  -1.666  35.550  1.00  0.00    -0.247 OA
HETATM   16  N3  UNK     1      16.335  -0.370  34.724  1.00  0.00    -0.352 N 
HETATM   17  H10 UNK     1      15.937   0.142  33.944  1.00  0.00     0.160 HD
HETATM   18  H11 UNK     1      15.809  -0.370  35.592  1.00  0.00     0.160 HD
ENDBRANCH   6  10
ENDBRANCH   2   5
BRANCH   3  19
HETATM   19  C2  UNK     1      18.155   3.347  31.968  1.00  0.00     0.108 A 
HETATM   20  C4  UNK     1      18.009   4.516  31.332  1.00  0.00     0.037 A 
HETATM   21  C1  UNK     1      17.875   5.751  32.088  1.00  0.00    -0.001 A 
HETATM   22  C3  UNK     1      17.903   5.696  33.478  1.00  0.00     0.089 A 
HETATM   23  C8  UNK     1      17.720   6.992  31.467  1.00  0.00     0.014 A 
HETATM   24  C10 UNK     1      17.782   6.842  34.261  1.00  0.00     0.038 A 
HETATM   25  O1  UNK     1      18.058   4.463  34.142  1.00  0.00    -0.274 OA
HETATM   26  C13 UNK     1      17.628   8.076  33.633  1.00  0.00     0.003 A 
HETATM   27  C12 UNK     1      17.597   8.151  32.239  1.00  0.00     0.001 A 
HETATM   28  C9  UNK     1      18.188   3.264  33.446  1.00  0.00     0.304 A 
HETATM   29  O3  UNK     1      18.322   2.196  34.031  1.00  0.00    -0.259 OA
ENDBRANCH   3  19
TORSDOF 3
ENDMDL
MODEL 6
REMARK VINA RESULT:      -8.9      1.827      2.414
REMARK  3 active torsions:
REMARK  status: ('A' for Active; 'I' for Inactive)
REMARK    1  A    between atoms: C5_14  and  N1_7 
REMARK       I    between atoms: C7_16  and  N1_7 
REMARK       I    between atoms: C14_23  and  N2_8 
REMARK       I    between atoms: C16_25  and  N2_8 
REMARK       I    between atoms: C16_25  and  N3_9 
REMARK    2  A    between atoms: C2_11  and  C7_16 
REMARK    3  A    between atoms: C14_23  and  C6_15 
ROOT
HETATM    1  O2  UNK     1      18.300  -5.416  36.484  1.00  0.00    -0.267 OA
HETATM    2  N1  UNK     1      20.068  -3.863  36.555  1.00  0.00    -0.316 N 
HETATM    3  C7  UNK     1      19.492  -5.126  36.568  1.00  0.00     0.262 C 
HETATM    4  H2  UNK     1      21.080  -3.783  36.611  1.00  0.00     0.169 HD
ENDROOT
BRANCH   2   5
HETATM    5  C5  UNK     1      19.410  -2.615  36.443  1.00  0.00     0.092 A 
HETATM    6  C6  UNK     1      19.278  -1.802  35.377  1.00  0.00     0.066 A 
HETATM    7  C11 UNK     1      18.530  -0.639  35.724  1.00  0.00     0.027 A 
HETATM    8  C15 UNK     1      18.143  -0.649  37.046  1.00  0.00     0.053 A 
HETATM    9  S1  UNK     1      18.680  -2.055  37.862  1.00  0.00    -0.083 SA
BRANCH   6  10
HETATM   10  C14 UNK     1      19.817  -2.077  34.070  1.00  0.00     0.262 C 
HETATM   11  O4  UNK     1      20.652  -2.978  33.869  1.00  0.00    -0.267 OA
HETATM   12  N2  UNK     1      19.318  -1.293  33.008  1.00  0.00    -0.275 N 
HETATM   13  C16 UNK     1      19.669  -1.410  31.658  1.00  0.00     0.320 C 
HETATM   14  H9  UNK     1      18.636  -0.569  33.206  1.00  0.00     0.173 HD
HETATM   15  O5  UNK     1      20.471  -2.220  31.198  1.00  0.00    -0.247 OA
HETATM   16  N3  UNK     1      18.999  -0.486  30.874  1.00  0.00    -0.352 N 
HETATM   17  H10 UNK     1      18.341   0.176  31.271  1.00  0.00     0.160 HD
HETATM   18  H11 UNK     1      19.148  -0.444  29.871  1.00  0.00     0.160 HD
ENDBRANCH   6  10
ENDBRANCH   2   5
BRANCH   3  19
HETATM   19  C2  UNK     1      20.493  -6.190  36.697  1.00  0.00     0.108 A 
HETATM   20  C4  UNK     1      20.352  -7.240  35.877  1.00  0.00     0.037 A 
HETATM   21  C1  UNK     1      21.296  -8.344  35.930  1.00  0.00    -0.001 A 
HETATM   22  C3  UNK     1      22.344  -8.291  36.844  1.00  0.00     0.089 A 
HETATM   23  C8  UNK     1      21.187  -9.458  35.094  1.00  0.00     0.014 A 
HETATM   24  C10 UNK     1      23.281  -9.317  36.946  1.00  0.00     0.038 A 
HETATM   25  O1  UNK     1      22.487  -7.185  37.705  1.00  0.00    -0.274 OA
HETATM   26  C13 UNK     1      23.165 -10.424  36.108  1.00  0.00     0.003 A 
HETATM   27  C12 UNK     1      22.121 -10.495  35.184  1.00  0.00     0.001 A 
HETATM   28  C9  UNK     1      21.600  -6.113  37.678  1.00  0.00     0.304 A 
HETATM   29  O3  UNK     1      21.733  -5.154  38.429  1.00  0.00    -0.259 OA
ENDBRANCH   3  19
TORSDOF 3
ENDMDL
MODEL 7
REMARK VINA RESULT:      -8.7      2.952      7.683
REMARK  3 active torsions:
REMARK  status: ('A' for Active; 'I' for Inactive)
REMARK    1  A    between atoms: C5_14  and  N1_7 
REMARK       I    between atoms: C7_16  and  N1_7 
REMARK       I    between atoms: C14_23  and  N2_8 
REMARK       I    between atoms: C16_25  and  N2_8 
REMARK       I    between atoms: C16_25  and  N3_9 
REMARK    2  A    between atoms: C2_11  and  C7_16 
REMARK    3  A    between atoms: C14_23  and  C6_15 
ROOT
HETATM    1  O2  UNK     1      20.173  -5.386  35.035  1.00  0.00    -0.267 OA
HETATM    2  N1  UNK     1      19.594  -5.249  37.313  1.00  0.00    -0.316 N 
HETATM    3  C7  UNK     1      19.826  -4.760  36.035  1.00  0.00     0.262 C 
HETATM    4  H2  UNK     1      19.288  -4.605  38.039  1.00  0.00     0.169 HD
ENDROOT
BRANCH   2   5
HETATM    5  C5  UNK     1      19.705  -6.588  37.759  1.00  0.00     0.092 A 
HETATM    6  C6  UNK     1      20.780  -7.260  38.213  1.00  0.00     0.066 A 
HETATM    7  C11 UNK     1      20.426  -8.598  38.554  1.00  0.00     0.027 A 
HETATM    8  C15 UNK     1      19.091  -8.853  38.331  1.00  0.00     0.053 A 
HETATM    9  S1  UNK     1      18.270  -7.483  37.714  1.00  0.00    -0.083 SA
BRANCH   6  10
HETATM   10  C14 UNK     1      22.100  -6.698  38.337  1.00  0.00     0.262 C 
HETATM   11  O4  UNK     1      22.317  -5.476  38.239  1.00  0.00    -0.267 OA
HETATM   12  N2  UNK     1      23.144  -7.605  38.619  1.00  0.00    -0.275 N 
HETATM   13  C16 UNK     1      24.490  -7.280  38.816  1.00  0.00     0.320 C 
HETATM   14  H9  UNK     1      22.932  -8.594  38.696  1.00  0.00     0.173 HD
HETATM   15  O5  UNK     1      24.964  -6.147  38.772  1.00  0.00    -0.247 OA
HETATM   16  N3  UNK     1      25.256  -8.405  39.071  1.00  0.00    -0.352 N 
HETATM   17  H10 UNK     1      24.848  -9.333  39.103  1.00  0.00     0.160 HD
HETATM   18  H11 UNK     1      26.255  -8.334  39.234  1.00  0.00     0.160 HD
ENDBRANCH   6  10
ENDBRANCH   2   5
BRANCH   3  19
HETATM   19  C2  UNK     1      19.608  -3.312  35.948  1.00  0.00     0.108 A 
HETATM   20  C4  UNK     1      18.863  -2.766  36.918  1.00  0.00     0.037 A 
HETATM   21  C1  UNK     1      18.592  -1.337  36.919  1.00  0.00    -0.001 A 
HETATM   22  C3  UNK     1      19.117  -0.552  35.897  1.00  0.00     0.089 A 
HETATM   23  C8  UNK     1      17.821  -0.726  37.910  1.00  0.00     0.014 A 
HETATM   24  C10 UNK     1      18.893   0.822  35.839  1.00  0.00     0.038 A 
HETATM   25  O1  UNK     1      19.899  -1.131  34.879  1.00  0.00    -0.274 OA
HETATM   26  C13 UNK     1      18.124   1.424  36.832  1.00  0.00     0.003 A 
HETATM   27  C12 UNK     1      17.589   0.652  37.866  1.00  0.00     0.001 A 
HETATM   28  C9  UNK     1      20.176  -2.496  34.851  1.00  0.00     0.304 A 
HETATM   29  O3  UNK     1      20.857  -2.992  33.961  1.00  0.00    -0.259 OA
ENDBRANCH   3  19
TORSDOF 3
ENDMDL
MODEL 8
REMARK VINA RESULT:      -8.6      7.146      9.426
REMARK  3 active torsions:
REMARK  status: ('A' for Active; 'I' for Inactive)
REMARK    1  A    between atoms: C5_14  and  N1_7 
REMARK       I    between atoms: C7_16  and  N1_7 
REMARK       I    between atoms: C14_23  and  N2_8 
REMARK       I    between atoms: C16_25  and  N2_8 
REMARK       I    between atoms: C16_25  and  N3_9 
REMARK    2  A    between atoms: C2_11  and  C7_16 
REMARK    3  A    between atoms: C14_23  and  C6_15 
ROOT
HETATM    1  O2  UNK     1      24.086  -8.239  39.676  1.00  0.00    -0.267 OA
HETATM    2  N1  UNK     1      23.952  -8.520  37.342  1.00  0.00    -0.316 N 
HETATM    3  C7  UNK     1      24.590  -8.313  38.557  1.00  0.00     0.262 C 
HETATM    4  H2  UNK     1      24.512  -8.579  36.495  1.00  0.00     0.169 HD
ENDROOT
BRANCH   2   5
HETATM    5  C5  UNK     1      22.566  -8.693  37.113  1.00  0.00     0.092 A 
HETATM    6  C6  UNK     1      21.920  -9.641  36.407  1.00  0.00     0.066 A 
HETATM    7  C11 UNK     1      20.512  -9.423  36.448  1.00  0.00     0.027 A 
HETATM    8  C15 UNK     1      20.182  -8.310  37.190  1.00  0.00     0.053 A 
HETATM    9  S1  UNK     1      21.566  -7.535  37.835  1.00  0.00    -0.083 SA
BRANCH   6  10
HETATM   10  C14 UNK     1      22.567 -10.723  35.711  1.00  0.00     0.262 C 
HETATM   11  O4  UNK     1      22.301 -11.009  34.529  1.00  0.00    -0.267 OA
HETATM   12  N2  UNK     1      23.558 -11.426  36.428  1.00  0.00    -0.275 N 
HETATM   13  C16 UNK     1      24.337 -12.482  35.942  1.00  0.00     0.320 C 
HETATM   14  H9  UNK     1      23.753 -11.164  37.389  1.00  0.00     0.173 HD
HETATM   15  O5  UNK     1      24.270 -12.955  34.809  1.00  0.00    -0.247 OA
HETATM   16  N3  UNK     1      25.216 -12.954  36.902  1.00  0.00    -0.352 N 
HETATM   17  H10 UNK     1      25.258 -12.552  37.832  1.00  0.00     0.160 HD
HETATM   18  H11 UNK     1      25.849 -13.721  36.702  1.00  0.00     0.160 HD
ENDBRANCH   6  10
ENDBRANCH   2   5
BRANCH   3  19
HETATM   19  C2  UNK     1      26.043  -8.178  38.403  1.00  0.00     0.108 A 
HETATM   20  C4  UNK     1      26.564  -6.987  38.722  1.00  0.00     0.037 A 
HETATM   21  C1  UNK     1      27.995  -6.757  38.604  1.00  0.00    -0.001 A 
HETATM   22  C3  UNK     1      28.809  -7.792  38.154  1.00  0.00     0.089 A 
HETATM   23  C8  UNK     1      28.582  -5.530  38.925  1.00  0.00     0.014 A 
HETATM   24  C10 UNK     1      30.186  -7.636  38.017  1.00  0.00     0.038 A 
HETATM   25  O1  UNK     1      28.255  -9.043  37.819  1.00  0.00    -0.274 OA
HETATM   26  C13 UNK     1      30.763  -6.410  38.340  1.00  0.00     0.003 A 
HETATM   27  C12 UNK     1      29.963  -5.359  38.793  1.00  0.00     0.001 A 
HETATM   28  C9  UNK     1      26.890  -9.294  37.923  1.00  0.00     0.304 A 
HETATM   29  O3  UNK     1      26.416 -10.386  37.630  1.00  0.00    -0.259 OA
ENDBRANCH   3  19
TORSDOF 3
ENDMDL
MODEL 9
REMARK VINA RESULT:      -8.5      5.424      6.983
REMARK  3 active torsions:
REMARK  status: ('A' for Active; 'I' for Inactive)
REMARK    1  A    between atoms: C5_14  and  N1_7 
REMARK       I    between atoms: C7_16  and  N1_7 
REMARK       I    between atoms: C14_23  and  N2_8 
REMARK       I    between atoms: C16_25  and  N2_8 
REMARK       I    between atoms: C16_25  and  N3_9 
REMARK    2  A    between atoms: C2_11  and  C7_16 
REMARK    3  A    between atoms: C14_23  and  C6_15 
ROOT
HETATM    1  O2  UNK     1      22.832  -8.298  40.199  1.00  0.00    -0.267 OA
HETATM    2  N1  UNK     1      22.541  -7.786  37.919  1.00  0.00    -0.316 N 
HETATM    3  C7  UNK     1      23.256  -7.955  39.097  1.00  0.00     0.262 C 
HETATM    4  H2  UNK     1      23.040  -7.517  37.075  1.00  0.00     0.169 HD
ENDROOT
BRANCH   2   5
HETATM    5  C5  UNK     1      21.152  -7.972  37.718  1.00  0.00     0.092 A 
HETATM    6  C6  UNK     1      20.195  -7.071  37.425  1.00  0.00     0.066 A 
HETATM    7  C11 UNK     1      18.926  -7.710  37.311  1.00  0.00     0.027 A 
HETATM    8  C15 UNK     1      19.008  -9.067  37.529  1.00  0.00     0.053 A 
HETATM    9  S1  UNK     1      20.610  -9.567  37.868  1.00  0.00    -0.083 SA
BRANCH   6  10
HETATM   10  C14 UNK     1      20.428  -5.661  37.251  1.00  0.00     0.262 C 
HETATM   11  O4  UNK     1      21.572  -5.170  37.240  1.00  0.00    -0.267 OA
HETATM   12  N2  UNK     1      19.286  -4.857  37.051  1.00  0.00    -0.275 N 
HETATM   13  C16 UNK     1      19.277  -3.476  36.824  1.00  0.00     0.320 C 
HETATM   14  H9  UNK     1      18.369  -5.289  37.062  1.00  0.00     0.173 HD
HETATM   15  O5  UNK     1      20.272  -2.756  36.767  1.00  0.00    -0.247 OA
HETATM   16  N3  UNK     1      17.990  -2.991  36.670  1.00  0.00    -0.352 N 
HETATM   17  H10 UNK     1      17.180  -3.599  36.721  1.00  0.00     0.160 HD
HETATM   18  H11 UNK     1      17.817  -2.006  36.501  1.00  0.00     0.160 HD
ENDBRANCH   6  10
ENDBRANCH   2   5
BRANCH   3  19
HETATM   19  C2  UNK     1      24.685  -7.671  38.923  1.00  0.00     0.108 A 
HETATM   20  C4  UNK     1      25.498  -8.735  38.879  1.00  0.00     0.037 A 
HETATM   21  C1  UNK     1      26.931  -8.555  38.707  1.00  0.00    -0.001 A 
HETATM   22  C3  UNK     1      27.440  -7.265  38.591  1.00  0.00     0.089 A 
HETATM   23  C8  UNK     1      27.816  -9.635  38.655  1.00  0.00     0.014 A 
HETATM   24  C10 UNK     1      28.802  -7.025  38.426  1.00  0.00     0.038 A 
HETATM   25  O1  UNK     1      26.580  -6.151  38.639  1.00  0.00    -0.274 OA
HETATM   26  C13 UNK     1      29.677  -8.108  38.376  1.00  0.00     0.003 A 
HETATM   27  C12 UNK     1      29.186  -9.410  38.489  1.00  0.00     0.001 A 
HETATM   28  C9  UNK     1      25.204  -6.290  38.802  1.00  0.00     0.304 A 
HETATM   29  O3  UNK     1      24.463  -5.315  38.842  1.00  0.00    -0.259 OA
ENDBRANCH   3  19
TORSDOF 3
ENDMDL
MODEL 10
REMARK VINA RESULT:      -8.5      1.514      1.890
REMARK  3 active torsions:
REMARK  status: ('A' for Active; 'I' for Inactive)
REMARK    1  A    between atoms: C5_14  and  N1_7 
REMARK       I    between atoms: C7_16  and  N1_7 
REMARK       I    between atoms: C14_23  and  N2_8 
REMARK       I    between atoms: C16_25  and  N2_8 
REMARK       I    between atoms: C16_25  and  N3_9 
REMARK    2  A    between atoms: C2_11  and  C7_16 
REMARK    3  A    between atoms: C14_23  and  C6_15 
ROOT
HETATM    1  O2  UNK     1      21.068  -1.901  35.869  1.00  0.00    -0.267 OA
HETATM    2  N1  UNK     1      18.730  -2.167  35.938  1.00  0.00    -0.316 N 
HETATM    3  C7  UNK     1      20.053  -2.584  35.991  1.00  0.00     0.262 C 
HETATM    4  H2  UNK     1      17.991  -2.852  36.079  1.00  0.00     0.169 HD
ENDROOT
BRANCH   2   5
HETATM    5  C5  UNK     1      18.246  -0.853  35.730  1.00  0.00     0.092 A 
HETATM    6  C6  UNK     1      18.234  -0.105  34.610  1.00  0.00     0.066 A 
HETATM    7  C11 UNK     1      17.645   1.167  34.864  1.00  0.00     0.027 A 
HETATM    8  C15 UNK     1      17.247   1.300  36.176  1.00  0.00     0.053 A 
HETATM    9  S1  UNK     1      17.582  -0.106  37.094  1.00  0.00    -0.083 SA
BRANCH   6  10
HETATM   10  C14 UNK     1      18.745  -0.538  33.335  1.00  0.00     0.262 C 
HETATM   11  O4  UNK     1      18.954  -1.737  33.072  1.00  0.00    -0.267 OA
HETATM   12  N2  UNK     1      18.964   0.470  32.372  1.00  0.00    -0.275 N 
HETATM   13  C16 UNK     1      19.418   0.277  31.063  1.00  0.00     0.320 C 
HETATM   14  H9  UNK     1      18.781   1.437  32.618  1.00  0.00     0.173 HD
HETATM   15  O5  UNK     1      19.696  -0.808  30.556  1.00  0.00    -0.247 OA
HETATM   16  N3  UNK     1      19.528   1.476  30.378  1.00  0.00    -0.352 N 
HETATM   17  H10 UNK     1      19.295   2.363  30.811  1.00  0.00     0.160 HD
HETATM   18  H11 UNK     1      19.847   1.502  29.415  1.00  0.00     0.160 HD
ENDBRANCH   6  10
ENDBRANCH   2   5
BRANCH   3  19
HETATM   19  C2  UNK     1      20.169  -4.027  36.226  1.00  0.00     0.108 A 
HETATM   20  C4  UNK     1      20.111  -4.425  37.504  1.00  0.00     0.037 A 
HETATM   21  C1  UNK     1      20.216  -5.837  37.837  1.00  0.00    -0.001 A 
HETATM   22  C3  UNK     1      20.378  -6.762  36.810  1.00  0.00     0.089 A 
HETATM   23  C8  UNK     1      20.161  -6.297  39.155  1.00  0.00     0.014 A 
HETATM   24  C10 UNK     1      20.487  -8.127  37.062  1.00  0.00     0.038 A 
HETATM   25  O1  UNK     1      20.440  -6.337  35.468  1.00  0.00    -0.274 OA
HETATM   26  C13 UNK     1      20.430  -8.578  38.379  1.00  0.00     0.003 A 
HETATM   27  C12 UNK     1      20.267  -7.665  39.424  1.00  0.00     0.001 A 
HETATM   28  C9  UNK     1      20.342  -4.993  35.118  1.00  0.00     0.304 A 
HETATM   29  O3  UNK     1      20.396  -4.632  33.948  1.00  0.00    -0.259 OA
ENDBRANCH   3  19
TORSDOF 3
ENDMDL
