MODEL 1
REMARK VINA RESULT:      -8.4      0.000      0.000
REMARK  3 active torsions:
REMARK  status: ('A' for Active; 'I' for Inactive)
REMARK    1  A    between atoms: C11_17  and  O2_3 
REMARK    2  A    between atoms: C17_23  and  O2_3 
REMARK    3  A    between atoms: C2_8  and  C5_11 
ROOT
HETATM    1  O1  UNK     1      18.731   4.317  30.411  1.00  0.00    -0.274 OA
HETATM    2  O3  UNK     1      18.609   6.569  30.091  1.00  0.00    -0.259 OA
HETATM    3  C1  UNK     1      18.265   3.369  32.593  1.00  0.00    -0.001 A 
HETATM    4  C2  UNK     1      18.078   5.784  32.280  1.00  0.00     0.076 A 
HETATM    5  C3  UNK     1      18.629   3.203  31.264  1.00  0.00     0.092 A 
HETATM    6  C4  UNK     1      17.986   4.708  33.081  1.00  0.00     0.034 A 
HETATM    7  C8  UNK     1      18.176   2.242  33.414  1.00  0.00     0.017 A 
HETATM    8  C9  UNK     1      18.485   5.615  30.852  1.00  0.00     0.301 A 
HETATM    9  C10 UNK     1      18.907   1.947  30.730  1.00  0.00     0.075 A 
HETATM   10  C11 UNK     1      18.817   0.827  31.553  1.00  0.00     0.081 A 
HETATM   11  C12 UNK     1      18.451   0.974  32.893  1.00  0.00     0.038 A 
ENDROOT
BRANCH   4  12
HETATM   12  C5  UNK     1      17.798   7.114  32.757  1.00  0.00     0.115 A 
HETATM   13  S1  UNK     1      16.161   7.615  32.850  1.00  0.00    -0.067 SA
HETATM   14  C6  UNK     1      16.666   9.152  33.449  1.00  0.00     0.035 A 
HETATM   15  C13 UNK     1      15.884  10.258  33.816  1.00  0.00     0.021 A 
HETATM   16  C7  UNK     1      18.061   9.171  33.534  1.00  0.00     0.075 A 
HETATM   17  C15 UNK     1      16.535  11.404  34.277  1.00  0.00     0.002 A 
HETATM   18  C16 UNK     1      17.922  11.449  34.372  1.00  0.00     0.002 A 
HETATM   19  C14 UNK     1      18.694  10.343  34.005  1.00  0.00     0.033 A 
HETATM   20  N1  UNK     1      18.694   8.003  33.137  1.00  0.00    -0.239 NA
ENDBRANCH   4  12
BRANCH  10  21
HETATM   21  O2  UNK     1      19.085  -0.410  31.054  1.00  0.00    -0.279 OA
BRANCH  21  22
HETATM   22  C17 UNK     1      20.433  -0.611  30.712  1.00  0.00     0.260 C 
HETATM   23  O4  UNK     1      21.387  -0.510  31.472  1.00  0.00    -0.265 OA
HETATM   24  C18 UNK     1      20.546  -0.969  29.259  1.00  0.00     0.126 C 
ENDBRANCH  21  22
ENDBRANCH  10  21
TORSDOF 3
ENDMDL
MODEL 2
REMARK VINA RESULT:      -8.4     15.330     18.521
REMARK  3 active torsions:
REMARK  status: ('A' for Active; 'I' for Inactive)
REMARK    1  A    between atoms: C11_17  and  O2_3 
REMARK    2  A    between atoms: C17_23  and  O2_3 
REMARK    3  A    between atoms: C2_8  and  C5_11 
ROOT
HETATM    1  O1  UNK     1      17.087  -3.846  15.626  1.00  0.00    -0.274 OA
HETATM    2  O3  UNK     1      16.376  -2.004  16.763  1.00  0.00    -0.259 OA
HETATM    3  C1  UNK     1      19.375  -3.983  14.836  1.00  0.00    -0.001 A 
HETATM    4  C2  UNK     1      18.665  -2.012  16.091  1.00  0.00     0.076 A 
HETATM    5  C3  UNK     1      18.106  -4.537  14.946  1.00  0.00     0.092 A 
HETATM    6  C4  UNK     1      19.628  -2.686  15.439  1.00  0.00     0.034 A 
HETATM    7  C8  UNK     1      20.364  -4.694  14.153  1.00  0.00     0.017 A 
HETATM    8  C9  UNK     1      17.293  -2.594  16.200  1.00  0.00     0.301 A 
HETATM    9  C10 UNK     1      17.797  -5.778  14.396  1.00  0.00     0.075 A 
HETATM   10  C11 UNK     1      18.787  -6.482  13.715  1.00  0.00     0.081 A 
HETATM   11  C12 UNK     1      20.069  -5.942  13.594  1.00  0.00     0.038 A 
ENDROOT
BRANCH   4  12
HETATM   12  C5  UNK     1      18.911  -0.727  16.695  1.00  0.00     0.115 A 
HETATM   13  S1  UNK     1      19.089  -0.651  18.399  1.00  0.00    -0.067 SA
HETATM   14  C6  UNK     1      19.328   1.054  18.297  1.00  0.00     0.035 A 
HETATM   15  C13 UNK     1      19.564   1.976  19.329  1.00  0.00     0.021 A 
HETATM   16  C7  UNK     1      19.253   1.445  16.957  1.00  0.00     0.075 A 
HETATM   17  C15 UNK     1      19.727   3.321  18.988  1.00  0.00     0.002 A 
HETATM   18  C16 UNK     1      19.658   3.736  17.663  1.00  0.00     0.002 A 
HETATM   19  C14 UNK     1      19.423   2.812  16.641  1.00  0.00     0.033 A 
HETATM   20  N1  UNK     1      19.016   0.420  16.055  1.00  0.00    -0.239 NA
ENDBRANCH   4  12
BRANCH  10  21
HETATM   21  O2  UNK     1      18.507  -7.696  13.167  1.00  0.00    -0.279 OA
BRANCH  21  22
HETATM   22  C17 UNK     1      17.324  -7.724  12.411  1.00  0.00     0.260 C 
HETATM   23  O4  UNK     1      17.038  -6.960  11.499  1.00  0.00    -0.265 OA
HETATM   24  C18 UNK     1      16.438  -8.840  12.885  1.00  0.00     0.126 C 
ENDBRANCH  21  22
ENDBRANCH  10  21
TORSDOF 3
ENDMDL
MODEL 3
REMARK VINA RESULT:      -8.3      2.021      3.155
REMARK  3 active torsions:
REMARK  status: ('A' for Active; 'I' for Inactive)
REMARK    1  A    between atoms: C11_17  and  O2_3 
REMARK    2  A    between atoms: C17_23  and  O2_3 
REMARK    3  A    between atoms: C2_8  and  C5_11 
ROOT
HETATM    1  O1  UNK     1      17.409   5.454  33.750  1.00  0.00    -0.274 OA
HETATM    2  O3  UNK     1      16.610   7.029  35.190  1.00  0.00    -0.259 OA
HETATM    3  C1  UNK     1      18.293   6.111  31.591  1.00  0.00    -0.001 A 
HETATM    4  C2  UNK     1      17.489   7.835  33.124  1.00  0.00     0.076 A 
HETATM    5  C3  UNK     1      17.977   5.118  32.508  1.00  0.00     0.092 A 
HETATM    6  C4  UNK     1      18.033   7.497  31.942  1.00  0.00     0.034 A 
HETATM    7  C8  UNK     1      18.854   5.745  30.366  1.00  0.00     0.017 A 
HETATM    8  C9  UNK     1      17.132   6.771  34.109  1.00  0.00     0.301 A 
HETATM    9  C10 UNK     1      18.204   3.771  32.239  1.00  0.00     0.075 A 
HETATM   10  C11 UNK     1      18.763   3.411  31.015  1.00  0.00     0.081 A 
HETATM   11  C12 UNK     1      19.089   4.396  30.080  1.00  0.00     0.038 A 
ENDROOT
BRANCH   4  12
HETATM   12  C5  UNK     1      17.233   9.208  33.479  1.00  0.00     0.115 A 
HETATM   13  S1  UNK     1      15.610   9.760  33.463  1.00  0.00    -0.067 SA
HETATM   14  C6  UNK     1      16.139  11.326  33.955  1.00  0.00     0.035 A 
HETATM   15  C13 UNK     1      15.378  12.481  34.197  1.00  0.00     0.021 A 
HETATM   16  C7  UNK     1      17.530  11.314  34.097  1.00  0.00     0.075 A 
HETATM   17  C15 UNK     1      16.047  13.642  34.591  1.00  0.00     0.002 A 
HETATM   18  C16 UNK     1      17.429  13.655  34.740  1.00  0.00     0.002 A 
HETATM   19  C14 UNK     1      18.180  12.502  34.497  1.00  0.00     0.033 A 
HETATM   20  N1  UNK     1      18.140  10.099  33.823  1.00  0.00    -0.239 NA
ENDBRANCH   4  12
BRANCH  10  21
HETATM   21  O2  UNK     1      18.993   2.100  30.729  1.00  0.00    -0.279 OA
BRANCH  21  22
HETATM   22  C17 UNK     1      18.462   1.681  29.497  1.00  0.00     0.260 C 
HETATM   23  O4  UNK     1      17.431   2.094  28.984  1.00  0.00    -0.265 OA
HETATM   24  C18 UNK     1      19.349   0.636  28.886  1.00  0.00     0.126 C 
ENDBRANCH  21  22
ENDBRANCH  10  21
TORSDOF 3
ENDMDL
MODEL 4
REMARK VINA RESULT:      -8.2     14.852     16.894
REMARK  3 active torsions:
REMARK  status: ('A' for Active; 'I' for Inactive)
REMARK    1  A    between atoms: C11_17  and  O2_3 
REMARK    2  A    between atoms: C17_23  and  O2_3 
REMARK    3  A    between atoms: C2_8  and  C5_11 
ROOT
HETATM    1  O1  UNK     1      25.709  -5.192  38.809  1.00  0.00    -0.274 OA
HETATM    2  O3  UNK     1      23.433  -5.285  38.796  1.00  0.00    -0.259 OA
HETATM    3  C1  UNK     1      27.015  -7.229  38.667  1.00  0.00    -0.001 A 
HETATM    4  C2  UNK     1      24.577  -7.370  38.603  1.00  0.00     0.076 A 
HETATM    5  C3  UNK     1      26.954  -5.847  38.779  1.00  0.00     0.092 A 
HETATM    6  C4  UNK     1      25.774  -7.980  38.576  1.00  0.00     0.034 A 
HETATM    7  C8  UNK     1      28.266  -7.850  38.643  1.00  0.00     0.017 A 
HETATM    8  C9  UNK     1      24.503  -5.884  38.740  1.00  0.00     0.301 A 
HETATM    9  C10 UNK     1      28.103  -5.066  38.866  1.00  0.00     0.075 A 
HETATM   10  C11 UNK     1      29.348  -5.690  38.842  1.00  0.00     0.081 A 
HETATM   11  C12 UNK     1      29.430  -7.080  38.730  1.00  0.00     0.038 A 
ENDROOT
BRANCH   4  12
HETATM   12  C5  UNK     1      23.344  -8.109  38.509  1.00  0.00     0.115 A 
HETATM   13  S1  UNK     1      22.346  -8.204  39.900  1.00  0.00    -0.067 SA
HETATM   14  C6  UNK     1      21.209  -9.156  39.018  1.00  0.00     0.035 A 
HETATM   15  C13 UNK     1      19.991  -9.704  39.450  1.00  0.00     0.021 A 
HETATM   16  C7  UNK     1      21.679  -9.334  37.713  1.00  0.00     0.075 A 
HETATM   17  C15 UNK     1      19.239 -10.446  38.537  1.00  0.00     0.002 A 
HETATM   18  C16 UNK     1      19.685 -10.638  37.233  1.00  0.00     0.002 A 
HETATM   19  C14 UNK     1      20.898 -10.089  36.810  1.00  0.00     0.033 A 
HETATM   20  N1  UNK     1      22.897  -8.731  37.437  1.00  0.00    -0.239 NA
ENDBRANCH   4  12
BRANCH  10  21
HETATM   21  O2  UNK     1      30.485  -4.948  38.928  1.00  0.00    -0.279 OA
BRANCH  21  22
HETATM   22  C17 UNK     1      31.301  -5.014  37.787  1.00  0.00     0.260 C 
HETATM   23  O4  UNK     1      30.947  -4.782  36.638  1.00  0.00    -0.265 OA
HETATM   24  C18 UNK     1      32.694  -5.420  38.174  1.00  0.00     0.126 C 
ENDBRANCH  21  22
ENDBRANCH  10  21
TORSDOF 3
ENDMDL
MODEL 5
REMARK VINA RESULT:      -8.0      3.066      8.823
REMARK  3 active torsions:
REMARK  status: ('A' for Active; 'I' for Inactive)
REMARK    1  A    between atoms: C11_17  and  O2_3 
REMARK    2  A    between atoms: C17_23  and  O2_3 
REMARK    3  A    between atoms: C2_8  and  C5_11 
ROOT
HETATM    1  O1  UNK     1      17.807   4.658  34.249  1.00  0.00    -0.274 OA
HETATM    2  O3  UNK     1      18.516   2.495  34.349  1.00  0.00    -0.259 OA
HETATM    3  C1  UNK     1      17.636   5.786  32.110  1.00  0.00    -0.001 A 
HETATM    4  C2  UNK     1      18.354   3.453  32.171  1.00  0.00     0.076 A 
HETATM    5  C3  UNK     1      17.512   5.807  33.492  1.00  0.00     0.092 A 
HETATM    6  C4  UNK     1      18.068   4.559  31.463  1.00  0.00     0.034 A 
HETATM    7  C8  UNK     1      17.337   6.945  31.389  1.00  0.00     0.017 A 
HETATM    8  C9  UNK     1      18.239   3.471  33.660  1.00  0.00     0.301 A 
HETATM    9  C10 UNK     1      17.099   6.948  34.176  1.00  0.00     0.075 A 
HETATM   10  C11 UNK     1      16.803   8.100  33.452  1.00  0.00     0.081 A 
HETATM   11  C12 UNK     1      16.921   8.099  32.060  1.00  0.00     0.038 A 
ENDROOT
BRANCH   4  12
HETATM   12  C5  UNK     1      18.779   2.232  31.534  1.00  0.00     0.115 A 
HETATM   13  S1  UNK     1      19.005   2.238  29.835  1.00  0.00    -0.067 SA
HETATM   14  C6  UNK     1      19.460   0.575  29.890  1.00  0.00     0.035 A 
HETATM   15  C13 UNK     1      19.838  -0.273  28.837  1.00  0.00     0.021 A 
HETATM   16  C7  UNK     1      19.406   0.132  31.215  1.00  0.00     0.075 A 
HETATM   17  C15 UNK     1      20.166  -1.597  29.140  1.00  0.00     0.002 A 
HETATM   18  C16 UNK     1      20.120  -2.062  30.450  1.00  0.00     0.002 A 
HETATM   19  C14 UNK     1      19.743  -1.211  31.493  1.00  0.00     0.033 A 
HETATM   20  N1  UNK     1      19.017   1.087  32.142  1.00  0.00    -0.239 NA
ENDBRANCH   4  12
BRANCH  10  21
HETATM   21  O2  UNK     1      16.400   9.227  34.098  1.00  0.00    -0.279 OA
BRANCH  21  22
HETATM   22  C17 UNK     1      15.024   9.266  34.378  1.00  0.00     0.260 C 
HETATM   23  O4  UNK     1      14.176   8.518  33.909  1.00  0.00    -0.265 OA
HETATM   24  C18 UNK     1      14.728  10.374  35.346  1.00  0.00     0.126 C 
ENDBRANCH  21  22
ENDBRANCH  10  21
TORSDOF 3
ENDMDL
MODEL 6
REMARK VINA RESULT:      -8.0      8.267     11.104
REMARK  3 active torsions:
REMARK  status: ('A' for Active; 'I' for Inactive)
REMARK    1  A    between atoms: C11_17  and  O2_3 
REMARK    2  A    between atoms: C17_23  and  O2_3 
REMARK    3  A    between atoms: C2_8  and  C5_11 
ROOT
HETATM    1  O1  UNK     1      21.645  -5.679  37.133  1.00  0.00    -0.274 OA
HETATM    2  O3  UNK     1      21.932  -3.442  37.453  1.00  0.00    -0.259 OA
HETATM    3  C1  UNK     1      19.489  -6.545  36.441  1.00  0.00    -0.001 A 
HETATM    4  C2  UNK     1      19.768  -4.136  36.728  1.00  0.00     0.076 A 
HETATM    5  C3  UNK     1      20.812  -6.763  36.799  1.00  0.00     0.092 A 
HETATM    6  C4  UNK     1      18.986  -5.182  36.412  1.00  0.00     0.034 A 
HETATM    7  C8  UNK     1      18.687  -7.643  36.118  1.00  0.00     0.017 A 
HETATM    8  C9  UNK     1      21.188  -4.363  37.130  1.00  0.00     0.301 A 
HETATM    9  C10 UNK     1      21.360  -8.042  36.844  1.00  0.00     0.075 A 
HETATM   10  C11 UNK     1      20.556  -9.133  36.521  1.00  0.00     0.081 A 
HETATM   11  C12 UNK     1      19.223  -8.935  36.158  1.00  0.00     0.038 A 
ENDROOT
BRANCH   4  12
HETATM   12  C5  UNK     1      19.276  -2.782  36.696  1.00  0.00     0.115 A 
HETATM   13  S1  UNK     1      19.528  -1.860  35.273  1.00  0.00    -0.067 SA
HETATM   14  C6  UNK     1      18.723  -0.519  35.999  1.00  0.00     0.035 A 
HETATM   15  C13 UNK     1      18.469   0.755  35.467  1.00  0.00     0.021 A 
HETATM   16  C7  UNK     1      18.316  -0.875  37.289  1.00  0.00     0.075 A 
HETATM   17  C15 UNK     1      17.790   1.681  36.262  1.00  0.00     0.002 A 
HETATM   18  C16 UNK     1      17.376   1.351  37.548  1.00  0.00     0.002 A 
HETATM   19  C14 UNK     1      17.631   0.080  38.071  1.00  0.00     0.033 A 
HETATM   20  N1  UNK     1      18.638  -2.169  37.673  1.00  0.00    -0.239 NA
ENDBRANCH   4  12
BRANCH  10  21
HETATM   21  O2  UNK     1      21.069 -10.393  36.560  1.00  0.00    -0.279 OA
BRANCH  21  22
HETATM   22  C17 UNK     1      21.917 -10.700  35.483  1.00  0.00     0.260 C 
HETATM   23  O4  UNK     1      21.665 -10.520  34.299  1.00  0.00    -0.265 OA
HETATM   24  C18 UNK     1      23.199 -11.292  35.992  1.00  0.00     0.126 C 
ENDBRANCH  21  22
ENDBRANCH  10  21
TORSDOF 3
ENDMDL
MODEL 7
REMARK VINA RESULT:      -8.0      7.143     11.281
REMARK  3 active torsions:
REMARK  status: ('A' for Active; 'I' for Inactive)
REMARK    1  A    between atoms: C11_17  and  O2_3 
REMARK    2  A    between atoms: C17_23  and  O2_3 
REMARK    3  A    between atoms: C2_8  and  C5_11 
ROOT
HETATM    1  O1  UNK     1      18.664  -1.006  35.334  1.00  0.00    -0.274 OA
HETATM    2  O3  UNK     1      18.678  -1.973  37.397  1.00  0.00    -0.259 OA
HETATM    3  C1  UNK     1      19.850  -2.045  33.493  1.00  0.00    -0.001 A 
HETATM    4  C2  UNK     1      19.851  -3.137  35.677  1.00  0.00     0.076 A 
HETATM    5  C3  UNK     1      19.070  -1.009  33.988  1.00  0.00     0.092 A 
HETATM    6  C4  UNK     1      20.230  -3.124  34.388  1.00  0.00     0.034 A 
HETATM    7  C8  UNK     1      20.239  -2.016  32.151  1.00  0.00     0.017 A 
HETATM    8  C9  UNK     1      19.025  -2.018  36.221  1.00  0.00     0.301 A 
HETATM    9  C10 UNK     1      18.666   0.055  33.184  1.00  0.00     0.075 A 
HETATM   10  C11 UNK     1      19.057   0.079  31.847  1.00  0.00     0.081 A 
HETATM   11  C12 UNK     1      19.841  -0.955  31.331  1.00  0.00     0.038 A 
ENDROOT
BRANCH   4  12
HETATM   12  C5  UNK     1      20.222  -4.207  36.569  1.00  0.00     0.115 A 
HETATM   13  S1  UNK     1      19.101  -5.481  36.817  1.00  0.00    -0.067 SA
HETATM   14  C6  UNK     1      20.211  -6.246  37.893  1.00  0.00     0.035 A 
HETATM   15  C13 UNK     1      20.068  -7.449  38.603  1.00  0.00     0.021 A 
HETATM   16  C7  UNK     1      21.367  -5.466  37.985  1.00  0.00     0.075 A 
HETATM   17  C15 UNK     1      21.121  -7.863  39.420  1.00  0.00     0.002 A 
HETATM   18  C16 UNK     1      22.282  -7.105  39.529  1.00  0.00     0.002 A 
HETATM   19  C14 UNK     1      22.418  -5.909  38.819  1.00  0.00     0.033 A 
HETATM   20  N1  UNK     1      21.360  -4.306  37.225  1.00  0.00    -0.239 NA
ENDBRANCH   4  12
BRANCH  10  21
HETATM   21  O2  UNK     1      18.676   1.108  31.043  1.00  0.00    -0.279 OA
BRANCH  21  22
HETATM   22  C17 UNK     1      19.101   0.982  29.710  1.00  0.00     0.260 C 
HETATM   23  O4  UNK     1      20.202   0.594  29.344  1.00  0.00    -0.265 OA
HETATM   24  C18 UNK     1      18.001   1.400  28.779  1.00  0.00     0.126 C 
ENDBRANCH  21  22
ENDBRANCH  10  21
TORSDOF 3
ENDMDL
MODEL 8
REMARK VINA RESULT:      -7.9     15.270     19.731
REMARK  3 active torsions:
REMARK  status: ('A' for Active; 'I' for Inactive)
REMARK    1  A    between atoms: C11_17  and  O2_3 
REMARK    2  A    between atoms: C17_23  and  O2_3 
REMARK    3  A    between atoms: C2_8  and  C5_11 
ROOT
HETATM    1  O1  UNK     1      19.265   0.281  14.783  1.00  0.00    -0.274 OA
HETATM    2  O3  UNK     1      19.318  -1.126  12.991  1.00  0.00    -0.259 OA
HETATM    3  C1  UNK     1      18.921  -0.600  17.015  1.00  0.00    -0.001 A 
HETATM    4  C2  UNK     1      19.018  -2.146  15.127  1.00  0.00     0.076 A 
HETATM    5  C3  UNK     1      19.117   0.482  16.167  1.00  0.00     0.092 A 
HETATM    6  C4  UNK     1      18.879  -1.936  16.447  1.00  0.00     0.034 A 
HETATM    7  C8  UNK     1      18.775  -0.366  18.384  1.00  0.00     0.017 A 
HETATM    8  C9  UNK     1      19.213  -0.986  14.206  1.00  0.00     0.301 A 
HETATM    9  C10 UNK     1      19.171   1.789  16.645  1.00  0.00     0.075 A 
HETATM   10  C11 UNK     1      19.025   2.016  18.011  1.00  0.00     0.081 A 
HETATM   11  C12 UNK     1      18.827   0.941  18.880  1.00  0.00     0.038 A 
ENDROOT
BRANCH   4  12
HETATM   12  C5  UNK     1      18.982  -3.470  14.558  1.00  0.00     0.115 A 
HETATM   13  S1  UNK     1      20.471  -4.234  14.185  1.00  0.00    -0.067 SA
HETATM   14  C6  UNK     1      19.616  -5.619  13.616  1.00  0.00     0.035 A 
HETATM   15  C13 UNK     1      20.125  -6.816  13.087  1.00  0.00     0.021 A 
HETATM   16  C7  UNK     1      18.243  -5.396  13.753  1.00  0.00     0.075 A 
HETATM   17  C15 UNK     1      19.218  -7.802  12.691  1.00  0.00     0.002 A 
HETATM   18  C16 UNK     1      17.847  -7.604  12.817  1.00  0.00     0.002 A 
HETATM   19  C14 UNK     1      17.348  -6.410  13.345  1.00  0.00     0.033 A 
HETATM   20  N1  UNK     1      17.896  -4.166  14.292  1.00  0.00    -0.239 NA
ENDBRANCH   4  12
BRANCH  10  21
HETATM   21  O2  UNK     1      19.073   3.285  18.501  1.00  0.00    -0.279 OA
BRANCH  21  22
HETATM   22  C17 UNK     1      20.318   3.643  19.043  1.00  0.00     0.260 C 
HETATM   23  O4  UNK     1      20.826   3.162  20.048  1.00  0.00    -0.265 OA
HETATM   24  C18 UNK     1      20.951   4.719  18.210  1.00  0.00     0.126 C 
ENDBRANCH  21  22
ENDBRANCH  10  21
TORSDOF 3
ENDMDL
MODEL 9
REMARK VINA RESULT:      -7.7      2.881      8.656
REMARK  3 active torsions:
REMARK  status: ('A' for Active; 'I' for Inactive)
REMARK    1  A    between atoms: C11_17  and  O2_3 
REMARK    2  A    between atoms: C17_23  and  O2_3 
REMARK    3  A    between atoms: C2_8  and  C5_11 
ROOT
HETATM    1  O1  UNK     1      18.185   5.936  30.273  1.00  0.00    -0.274 OA
HETATM    2  O3  UNK     1      18.800   4.209  28.921  1.00  0.00    -0.259 OA
HETATM    3  C1  UNK     1      17.852   5.569  32.646  1.00  0.00    -0.001 A 
HETATM    4  C2  UNK     1      18.557   3.701  31.239  1.00  0.00     0.076 A 
HETATM    5  C3  UNK     1      17.842   6.419  31.549  1.00  0.00     0.092 A 
HETATM    6  C4  UNK     1      18.228   4.179  32.451  1.00  0.00     0.034 A 
HETATM    7  C8  UNK     1      17.505   6.079  33.899  1.00  0.00     0.017 A 
HETATM    8  C9  UNK     1      18.533   4.606  30.051  1.00  0.00     0.301 A 
HETATM    9  C10 UNK     1      17.496   7.763  31.665  1.00  0.00     0.075 A 
HETATM   10  C11 UNK     1      17.151   8.267  32.917  1.00  0.00     0.081 A 
HETATM   11  C12 UNK     1      17.155   7.427  34.033  1.00  0.00     0.038 A 
ENDROOT
BRANCH   4  12
HETATM   12  C5  UNK     1      18.934   2.325  31.040  1.00  0.00     0.115 A 
HETATM   13  S1  UNK     1      18.670   1.217  32.323  1.00  0.00    -0.067 SA
HETATM   14  C6  UNK     1      19.325  -0.054  31.359  1.00  0.00     0.035 A 
HETATM   15  C13 UNK     1      19.492  -1.410  31.680  1.00  0.00     0.021 A 
HETATM   16  C7  UNK     1      19.702   0.464  30.116  1.00  0.00     0.075 A 
HETATM   17  C15 UNK     1      20.054  -2.253  30.718  1.00  0.00     0.002 A 
HETATM   18  C16 UNK     1      20.437  -1.762  29.474  1.00  0.00     0.002 A 
HETATM   19  C14 UNK     1      20.267  -0.410  29.161  1.00  0.00     0.033 A 
HETATM   20  N1  UNK     1      19.473   1.821  29.948  1.00  0.00    -0.239 NA
ENDBRANCH   4  12
BRANCH  10  21
HETATM   21  O2  UNK     1      16.807   9.577  33.055  1.00  0.00    -0.279 OA
BRANCH  21  22
HETATM   22  C17 UNK     1      15.473   9.782  33.442  1.00  0.00     0.260 C 
HETATM   23  O4  UNK     1      14.486   9.334  32.874  1.00  0.00    -0.265 OA
HETATM   24  C18 UNK     1      15.421  10.645  34.668  1.00  0.00     0.126 C 
ENDBRANCH  21  22
ENDBRANCH  10  21
TORSDOF 3
ENDMDL
MODEL 10
REMARK VINA RESULT:      -7.7      2.407      3.019
REMARK  3 active torsions:
REMARK  status: ('A' for Active; 'I' for Inactive)
REMARK    1  A    between atoms: C11_17  and  O2_3 
REMARK    2  A    between atoms: C17_23  and  O2_3 
REMARK    3  A    between atoms: C2_8  and  C5_11 
ROOT
HETATM    1  O1  UNK     1      17.998   2.374  32.637  1.00  0.00    -0.274 OA
HETATM    2  O3  UNK     1      17.732   4.384  31.598  1.00  0.00    -0.259 OA
HETATM    3  C1  UNK     1      18.663   2.284  34.966  1.00  0.00    -0.001 A 
HETATM    4  C2  UNK     1      18.344   4.459  33.903  1.00  0.00     0.076 A 
HETATM    5  C3  UNK     1      18.330   1.634  33.786  1.00  0.00     0.092 A 
HETATM    6  C4  UNK     1      18.657   3.736  34.992  1.00  0.00     0.034 A 
HETATM    7  C8  UNK     1      18.990   1.519  36.089  1.00  0.00     0.017 A 
HETATM    8  C9  UNK     1      17.999   3.767  32.625  1.00  0.00     0.301 A 
HETATM    9  C10 UNK     1      18.311   0.244  33.693  1.00  0.00     0.075 A 
HETATM   10  C11 UNK     1      18.638  -0.513  34.815  1.00  0.00     0.081 A 
HETATM   11  C12 UNK     1      18.976   0.123  36.012  1.00  0.00     0.038 A 
ENDROOT
BRANCH   4  12
HETATM   12  C5  UNK     1      18.332   5.900  33.923  1.00  0.00     0.115 A 
HETATM   13  S1  UNK     1      16.846   6.703  33.628  1.00  0.00    -0.067 SA
HETATM   14  C6  UNK     1      17.633   8.226  33.816  1.00  0.00     0.035 A 
HETATM   15  C13 UNK     1      17.092   9.518  33.726  1.00  0.00     0.021 A 
HETATM   16  C7  UNK     1      18.986   8.009  34.094  1.00  0.00     0.075 A 
HETATM   17  C15 UNK     1      17.944  10.607  33.921  1.00  0.00     0.002 A 
HETATM   18  C16 UNK     1      19.294  10.417  34.199  1.00  0.00     0.002 A 
HETATM   19  C14 UNK     1      19.826   9.128  34.288  1.00  0.00     0.033 A 
HETATM   20  N1  UNK     1      19.370   6.678  34.152  1.00  0.00    -0.239 NA
ENDBRANCH   4  12
BRANCH  10  21
HETATM   21  O2  UNK     1      18.629  -1.872  34.747  1.00  0.00    -0.279 OA
BRANCH  21  22
HETATM   22  C17 UNK     1      19.886  -2.465  34.950  1.00  0.00     0.260 C 
HETATM   23  O4  UNK     1      20.874  -2.306  34.245  1.00  0.00    -0.265 OA
HETATM   24  C18 UNK     1      19.852  -3.339  36.169  1.00  0.00     0.126 C 
ENDBRANCH  21  22
ENDBRANCH  10  21
TORSDOF 3
ENDMDL
