MODEL 1
REMARK VINA RESULT:      -7.8      0.000      0.000
REMARK  1 active torsions:
REMARK  status: ('A' for Active; 'I' for Inactive)
REMARK       I    between atoms: C5_9  and  N1_4 
REMARK    1  A    between atoms: C5_9  and  C6_10 
ROOT
HETATM    1  O2  UNK     1      14.031   5.179   9.358  1.00  0.00    -0.274 OA
HETATM    2  O3  UNK     1      12.410   4.005   8.258  1.00  0.00    -0.259 OA
HETATM    3  C6  UNK     1      12.588   6.309   7.740  1.00  0.00     0.108 A 
HETATM    4  C7  UNK     1      13.213   7.474   7.956  1.00  0.00     0.037 A 
HETATM    5  C8  UNK     1      14.309   7.552   8.909  1.00  0.00    -0.001 A 
HETATM    6  C9  UNK     1      12.979   5.073   8.453  1.00  0.00     0.304 A 
HETATM    7  C10 UNK     1      14.693   6.400   9.589  1.00  0.00     0.089 A 
HETATM    8  C11 UNK     1      14.989   8.745   9.166  1.00  0.00     0.014 A 
HETATM    9  C12 UNK     1      15.735   6.409  10.514  1.00  0.00     0.038 A 
HETATM   10  C13 UNK     1      16.036   8.768  10.090  1.00  0.00     0.001 A 
HETATM   11  C14 UNK     1      16.408   7.602  10.763  1.00  0.00     0.003 A 
ENDROOT
BRANCH   3  12
HETATM   12  C5  UNK     1      11.489   6.332   6.755  1.00  0.00     0.259 C 
HETATM   13  O1  UNK     1      11.767   6.291   5.557  1.00  0.00    -0.267 OA
HETATM   14  N1  UNK     1      10.206   6.402   7.260  1.00  0.00    -0.348 N 
HETATM   15  C3  UNK     1       9.800   6.453   8.664  1.00  0.00     0.126 C 
HETATM   16  C4  UNK     1       9.042   6.438   6.385  1.00  0.00     0.126 C 
HETATM   17  C1  UNK     1       8.289   6.269   8.633  1.00  0.00     0.021 C 
HETATM   18  C2  UNK     1       7.897   6.866   7.289  1.00  0.00     0.021 C 
ENDBRANCH   3  12
TORSDOF 1
ENDMDL
MODEL 2
REMARK VINA RESULT:      -7.7     12.060     13.830
REMARK  1 active torsions:
REMARK  status: ('A' for Active; 'I' for Inactive)
REMARK       I    between atoms: C5_9  and  N1_4 
REMARK    1  A    between atoms: C5_9  and  C6_10 
ROOT
HETATM    1  O2  UNK     1      19.361   1.014  15.560  1.00  0.00    -0.274 OA
HETATM    2  O3  UNK     1      19.452  -0.419  13.784  1.00  0.00    -0.259 OA
HETATM    3  C6  UNK     1      18.895  -1.364  15.883  1.00  0.00     0.108 A 
HETATM    4  C7  UNK     1      18.680  -1.172  17.191  1.00  0.00     0.037 A 
HETATM    5  C8  UNK     1      18.798   0.159  17.765  1.00  0.00    -0.001 A 
HETATM    6  C9  UNK     1      19.256  -0.247  14.982  1.00  0.00     0.304 A 
HETATM    7  C10 UNK     1      19.136   1.223  16.935  1.00  0.00     0.089 A 
HETATM    8  C11 UNK     1      18.584   0.406  19.123  1.00  0.00     0.014 A 
HETATM    9  C12 UNK     1      19.265   2.522  17.423  1.00  0.00     0.038 A 
HETATM   10  C13 UNK     1      18.709   1.703  19.627  1.00  0.00     0.001 A 
HETATM   11  C14 UNK     1      19.048   2.759  18.778  1.00  0.00     0.003 A 
ENDROOT
BRANCH   3  12
HETATM   12  C5  UNK     1      18.751  -2.750  15.396  1.00  0.00     0.259 C 
HETATM   13  O1  UNK     1      17.693  -3.084  14.864  1.00  0.00    -0.267 OA
HETATM   14  N1  UNK     1      19.834  -3.586  15.579  1.00  0.00    -0.348 N 
HETATM   15  C3  UNK     1      21.118  -3.261  16.199  1.00  0.00     0.126 C 
HETATM   16  C4  UNK     1      19.807  -4.977  15.146  1.00  0.00     0.126 C 
HETATM   17  C1  UNK     1      22.001  -4.467  15.906  1.00  0.00     0.021 C 
HETATM   18  C2  UNK     1      21.004  -5.614  15.834  1.00  0.00     0.021 C 
ENDBRANCH   3  12
TORSDOF 1
ENDMDL
MODEL 3
REMARK VINA RESULT:      -7.7      1.775      2.193
REMARK  1 active torsions:
REMARK  status: ('A' for Active; 'I' for Inactive)
REMARK       I    between atoms: C5_9  and  N1_4 
REMARK    1  A    between atoms: C5_9  and  C6_10 
ROOT
HETATM    1  O2  UNK     1      14.331   6.429  10.304  1.00  0.00    -0.274 OA
HETATM    2  O3  UNK     1      12.278   5.428  10.326  1.00  0.00    -0.259 OA
HETATM    3  C6  UNK     1      12.395   7.589   9.362  1.00  0.00     0.108 A 
HETATM    4  C7  UNK     1      13.151   8.646   9.039  1.00  0.00     0.037 A 
HETATM    5  C8  UNK     1      14.574   8.648   9.340  1.00  0.00    -0.001 A 
HETATM    6  C9  UNK     1      12.967   6.399  10.029  1.00  0.00     0.304 A 
HETATM    7  C10 UNK     1      15.132   7.538   9.967  1.00  0.00     0.089 A 
HETATM    8  C11 UNK     1      15.401   9.728   9.021  1.00  0.00     0.014 A 
HETATM    9  C12 UNK     1      16.488   7.478  10.281  1.00  0.00     0.038 A 
HETATM   10  C13 UNK     1      16.762   9.682   9.331  1.00  0.00     0.001 A 
HETATM   11  C14 UNK     1      17.305   8.559   9.960  1.00  0.00     0.003 A 
ENDROOT
BRANCH   3  12
HETATM   12  C5  UNK     1      10.963   7.681   9.015  1.00  0.00     0.259 C 
HETATM   13  O1  UNK     1      10.208   8.288   9.773  1.00  0.00    -0.267 OA
HETATM   14  N1  UNK     1      10.570   7.065   7.844  1.00  0.00    -0.348 N 
HETATM   15  C3  UNK     1      11.406   6.330   6.896  1.00  0.00     0.126 C 
HETATM   16  C4  UNK     1       9.181   7.083   7.401  1.00  0.00     0.126 C 
HETATM   17  C1  UNK     1      10.505   6.096   5.690  1.00  0.00     0.021 C 
HETATM   18  C2  UNK     1       9.116   6.028   6.308  1.00  0.00     0.021 C 
ENDBRANCH   3  12
TORSDOF 1
ENDMDL
MODEL 4
REMARK VINA RESULT:      -7.7      2.309      6.116
REMARK  1 active torsions:
REMARK  status: ('A' for Active; 'I' for Inactive)
REMARK       I    between atoms: C5_9  and  N1_4 
REMARK    1  A    between atoms: C5_9  and  C6_10 
ROOT
HETATM    1  O2  UNK     1      11.133   7.539   9.546  1.00  0.00    -0.274 OA
HETATM    2  O3  UNK     1      12.670   8.114  11.133  1.00  0.00    -0.259 OA
HETATM    3  C6  UNK     1      13.520   7.284   9.084  1.00  0.00     0.108 A 
HETATM    4  C7  UNK     1      13.261   6.811   7.858  1.00  0.00     0.037 A 
HETATM    5  C8  UNK     1      11.886   6.675   7.401  1.00  0.00    -0.001 A 
HETATM    6  C9  UNK     1      12.437   7.680  10.010  1.00  0.00     0.304 A 
HETATM    7  C10 UNK     1      10.853   7.043   8.257  1.00  0.00     0.089 A 
HETATM    8  C11 UNK     1      11.569   6.187   6.132  1.00  0.00     0.014 A 
HETATM    9  C12 UNK     1       9.515   6.938   7.879  1.00  0.00     0.038 A 
HETATM   10  C13 UNK     1      10.233   6.076   5.739  1.00  0.00     0.001 A 
HETATM   11  C14 UNK     1       9.208   6.451   6.611  1.00  0.00     0.003 A 
ENDROOT
BRANCH   3  12
HETATM   12  C5  UNK     1      14.946   7.384   9.455  1.00  0.00     0.259 C 
HETATM   13  O1  UNK     1      15.523   6.379   9.866  1.00  0.00    -0.267 OA
HETATM   14  N1  UNK     1      15.535   8.625   9.314  1.00  0.00    -0.348 N 
HETATM   15  C3  UNK     1      14.915   9.860   8.835  1.00  0.00     0.126 C 
HETATM   16  C4  UNK     1      16.934   8.848   9.656  1.00  0.00     0.126 C 
HETATM   17  C1  UNK     1      16.078  10.827   8.653  1.00  0.00     0.021 C 
HETATM   18  C2  UNK     1      17.078  10.362   9.701  1.00  0.00     0.021 C 
ENDBRANCH   3  12
TORSDOF 1
ENDMDL
MODEL 5
REMARK VINA RESULT:      -7.5     24.711     27.162
REMARK  1 active torsions:
REMARK  status: ('A' for Active; 'I' for Inactive)
REMARK       I    between atoms: C5_9  and  N1_4 
REMARK    1  A    between atoms: C5_9  and  C6_10 
ROOT
HETATM    1  O2  UNK     1      18.903   1.195  31.727  1.00  0.00    -0.274 OA
HETATM    2  O3  UNK     1      17.735   1.921  33.551  1.00  0.00    -0.259 OA
HETATM    3  C6  UNK     1      18.225  -0.395  33.457  1.00  0.00     0.108 A 
HETATM    4  C7  UNK     1      18.793  -1.407  32.789  1.00  0.00     0.037 A 
HETATM    5  C8  UNK     1      19.463  -1.162  31.521  1.00  0.00    -0.001 A 
HETATM    6  C9  UNK     1      18.254   0.992  32.941  1.00  0.00     0.304 A 
HETATM    7  C10 UNK     1      19.503   0.135  31.019  1.00  0.00     0.089 A 
HETATM    8  C11 UNK     1      20.070  -2.187  30.790  1.00  0.00     0.014 A 
HETATM    9  C12 UNK     1      20.130   0.435  29.811  1.00  0.00     0.038 A 
HETATM   10  C13 UNK     1      20.702  -1.901  29.577  1.00  0.00     0.001 A 
HETATM   11  C14 UNK     1      20.732  -0.592  29.089  1.00  0.00     0.003 A 
ENDROOT
BRANCH   3  12
HETATM   12  C5  UNK     1      17.569  -0.743  34.733  1.00  0.00     0.259 C 
HETATM   13  O1  UNK     1      16.388  -0.440  34.894  1.00  0.00    -0.267 OA
HETATM   14  N1  UNK     1      18.347  -1.393  35.670  1.00  0.00    -0.348 N 
HETATM   15  C3  UNK     1      19.751  -1.784  35.550  1.00  0.00     0.126 C 
HETATM   16  C4  UNK     1      17.813  -1.781  36.969  1.00  0.00     0.126 C 
HETATM   17  C1  UNK     1      20.007  -2.673  36.761  1.00  0.00     0.021 C 
HETATM   18  C2  UNK     1      19.039  -2.124  37.800  1.00  0.00     0.021 C 
ENDBRANCH   3  12
TORSDOF 1
ENDMDL
MODEL 6
REMARK VINA RESULT:      -7.3      1.715      5.937
REMARK  1 active torsions:
REMARK  status: ('A' for Active; 'I' for Inactive)
REMARK       I    between atoms: C5_9  and  N1_4 
REMARK    1  A    between atoms: C5_9  and  C6_10 
ROOT
HETATM    1  O2  UNK     1      11.648   6.732   6.513  1.00  0.00    -0.274 OA
HETATM    2  O3  UNK     1      13.914   6.997   6.402  1.00  0.00    -0.259 OA
HETATM    3  C6  UNK     1      13.045   6.129   8.428  1.00  0.00     0.108 A 
HETATM    4  C7  UNK     1      11.968   5.752   9.129  1.00  0.00     0.037 A 
HETATM    5  C8  UNK     1      10.641   5.848   8.542  1.00  0.00    -0.001 A 
HETATM    6  C9  UNK     1      12.930   6.652   7.048  1.00  0.00     0.304 A 
HETATM    7  C10 UNK     1      10.512   6.336   7.245  1.00  0.00     0.089 A 
HETATM    8  C11 UNK     1       9.490   5.467   9.236  1.00  0.00     0.014 A 
HETATM    9  C12 UNK     1       9.268   6.452   6.626  1.00  0.00     0.038 A 
HETATM   10  C13 UNK     1       8.237   5.577   8.628  1.00  0.00     0.001 A 
HETATM   11  C14 UNK     1       8.127   6.069   7.325  1.00  0.00     0.003 A 
ENDROOT
BRANCH   3  12
HETATM   12  C5  UNK     1      14.347   5.994   9.110  1.00  0.00     0.259 C 
HETATM   13  O1  UNK     1      15.000   4.965   8.942  1.00  0.00    -0.267 OA
HETATM   14  N1  UNK     1      14.742   7.052   9.904  1.00  0.00    -0.348 N 
HETATM   15  C3  UNK     1      14.023   8.302  10.150  1.00  0.00     0.126 C 
HETATM   16  C4  UNK     1      16.004   7.031  10.632  1.00  0.00     0.126 C 
HETATM   17  C1  UNK     1      15.026   9.183  10.883  1.00  0.00     0.021 C 
HETATM   18  C2  UNK     1      15.890   8.175  11.627  1.00  0.00     0.021 C 
ENDBRANCH   3  12
TORSDOF 1
ENDMDL
MODEL 7
REMARK VINA RESULT:      -7.2      2.582      6.137
REMARK  1 active torsions:
REMARK  status: ('A' for Active; 'I' for Inactive)
REMARK       I    between atoms: C5_9  and  N1_4 
REMARK    1  A    between atoms: C5_9  and  C6_10 
ROOT
HETATM    1  O2  UNK     1      10.619   7.938   9.532  1.00  0.00    -0.274 OA
HETATM    2  O3  UNK     1      12.013   9.056  10.954  1.00  0.00    -0.259 OA
HETATM    3  C6  UNK     1      12.882   8.526   8.815  1.00  0.00     0.108 A 
HETATM    4  C7  UNK     1      12.679   7.961   7.618  1.00  0.00     0.037 A 
HETATM    5  C8  UNK     1      11.401   7.340   7.308  1.00  0.00    -0.001 A 
HETATM    6  C9  UNK     1      11.831   8.539   9.857  1.00  0.00     0.304 A 
HETATM    7  C10 UNK     1      10.399   7.343   8.274  1.00  0.00     0.089 A 
HETATM    8  C11 UNK     1      11.144   6.740   6.073  1.00  0.00     0.014 A 
HETATM    9  C12 UNK     1       9.152   6.765   8.039  1.00  0.00     0.038 A 
HETATM   10  C13 UNK     1       9.899   6.157   5.823  1.00  0.00     0.001 A 
HETATM   11  C14 UNK     1       8.905   6.170   6.805  1.00  0.00     0.003 A 
ENDROOT
BRANCH   3  12
HETATM   12  C5  UNK     1      14.211   9.130   9.034  1.00  0.00     0.259 C 
HETATM   13  O1  UNK     1      14.370  10.321   8.772  1.00  0.00    -0.267 OA
HETATM   14  N1  UNK     1      15.196   8.296   9.522  1.00  0.00    -0.348 N 
HETATM   15  C3  UNK     1      15.082   6.876   9.856  1.00  0.00     0.126 C 
HETATM   16  C4  UNK     1      16.549   8.777   9.771  1.00  0.00     0.126 C 
HETATM   17  C1  UNK     1      16.384   6.545  10.573  1.00  0.00     0.021 C 
HETATM   18  C2  UNK     1      17.377   7.514   9.947  1.00  0.00     0.021 C 
ENDBRANCH   3  12
TORSDOF 1
ENDMDL
MODEL 8
REMARK VINA RESULT:      -7.1     23.582     25.951
REMARK  1 active torsions:
REMARK  status: ('A' for Active; 'I' for Inactive)
REMARK       I    between atoms: C5_9  and  N1_4 
REMARK    1  A    between atoms: C5_9  and  C6_10 
ROOT
HETATM    1  O2  UNK     1      18.400   2.147  30.506  1.00  0.00    -0.274 OA
HETATM    2  O3  UNK     1      17.592   3.660  32.014  1.00  0.00    -0.259 OA
HETATM    3  C6  UNK     1      18.538   1.677  32.902  1.00  0.00     0.108 A 
HETATM    4  C7  UNK     1      19.130   0.500  32.664  1.00  0.00     0.037 A 
HETATM    5  C8  UNK     1      19.395   0.075  31.299  1.00  0.00    -0.001 A 
HETATM    6  C9  UNK     1      18.134   2.580  31.801  1.00  0.00     0.304 A 
HETATM    7  C10 UNK     1      19.023   0.911  30.249  1.00  0.00     0.089 A 
HETATM    8  C11 UNK     1      20.010  -1.144  31.004  1.00  0.00     0.014 A 
HETATM    9  C12 UNK     1      19.250   0.562  28.919  1.00  0.00     0.038 A 
HETATM   10  C13 UNK     1      20.244  -1.507  29.675  1.00  0.00     0.001 A 
HETATM   11  C14 UNK     1      19.865  -0.655  28.635  1.00  0.00     0.003 A 
ENDROOT
BRANCH   3  12
HETATM   12  C5  UNK     1      18.312   2.019  34.320  1.00  0.00     0.259 C 
HETATM   13  O1  UNK     1      18.951   2.947  34.814  1.00  0.00    -0.267 OA
HETATM   14  N1  UNK     1      17.385   1.255  35.000  1.00  0.00    -0.348 N 
HETATM   15  C3  UNK     1      16.591   0.142  34.481  1.00  0.00     0.126 C 
HETATM   16  C4  UNK     1      17.083   1.494  36.405  1.00  0.00     0.126 C 
HETATM   17  C1  UNK     1      15.577  -0.151  35.580  1.00  0.00     0.021 C 
HETATM   18  C2  UNK     1      16.316   0.256  36.846  1.00  0.00     0.021 C 
ENDBRANCH   3  12
TORSDOF 1
ENDMDL
MODEL 9
REMARK VINA RESULT:      -7.0     23.525     25.350
REMARK  1 active torsions:
REMARK  status: ('A' for Active; 'I' for Inactive)
REMARK       I    between atoms: C5_9  and  N1_4 
REMARK    1  A    between atoms: C5_9  and  C6_10 
ROOT
HETATM    1  O2  UNK     1      17.424   6.957  30.828  1.00  0.00    -0.274 OA
HETATM    2  O3  UNK     1      15.292   7.714  31.140  1.00  0.00    -0.259 OA
HETATM    3  C6  UNK     1      16.680   7.633  33.057  1.00  0.00     0.108 A 
HETATM    4  C7  UNK     1      17.880   7.342  33.576  1.00  0.00     0.037 A 
HETATM    5  C8  UNK     1      18.942   6.830  32.723  1.00  0.00    -0.001 A 
HETATM    6  C9  UNK     1      16.389   7.448  31.618  1.00  0.00     0.304 A 
HETATM    7  C10 UNK     1      18.689   6.649  31.367  1.00  0.00     0.089 A 
HETATM    8  C11 UNK     1      20.209   6.513  33.220  1.00  0.00     0.014 A 
HETATM    9  C12 UNK     1      19.664   6.163  30.497  1.00  0.00     0.038 A 
HETATM   10  C13 UNK     1      21.196   6.025  32.360  1.00  0.00     0.001 A 
HETATM   11  C14 UNK     1      20.924   5.851  31.001  1.00  0.00     0.003 A 
ENDROOT
BRANCH   3  12
HETATM   12  C5  UNK     1      15.669   8.146  34.002  1.00  0.00     0.259 C 
HETATM   13  O1  UNK     1      14.812   7.375  34.430  1.00  0.00    -0.267 OA
HETATM   14  N1  UNK     1      15.761   9.482  34.340  1.00  0.00    -0.348 N 
HETATM   15  C3  UNK     1      16.747  10.456  33.874  1.00  0.00     0.126 C 
HETATM   16  C4  UNK     1      14.815  10.103  35.258  1.00  0.00     0.126 C 
HETATM   17  C1  UNK     1      16.521  11.680  34.752  1.00  0.00     0.021 C 
HETATM   18  C2  UNK     1      15.037  11.597  35.081  1.00  0.00     0.021 C 
ENDBRANCH   3  12
TORSDOF 1
ENDMDL
MODEL 10
REMARK VINA RESULT:      -7.0     23.687     25.461
REMARK  1 active torsions:
REMARK  status: ('A' for Active; 'I' for Inactive)
REMARK       I    between atoms: C5_9  and  N1_4 
REMARK    1  A    between atoms: C5_9  and  C6_10 
ROOT
HETATM    1  O2  UNK     1      18.681   7.076  34.146  1.00  0.00    -0.274 OA
HETATM    2  O3  UNK     1      17.244   7.938  35.698  1.00  0.00    -0.259 OA
HETATM    3  C6  UNK     1      16.452   7.820  33.469  1.00  0.00     0.108 A 
HETATM    4  C7  UNK     1      16.695   7.480  32.196  1.00  0.00     0.037 A 
HETATM    5  C8  UNK     1      17.979   6.905  31.824  1.00  0.00    -0.001 A 
HETATM    6  C9  UNK     1      17.463   7.629  34.532  1.00  0.00     0.304 A 
HETATM    7  C10 UNK     1      18.943   6.716  32.810  1.00  0.00     0.089 A 
HETATM    8  C11 UNK     1      18.277   6.536  30.510  1.00  0.00     0.014 A 
HETATM    9  C12 UNK     1      20.191   6.169  32.518  1.00  0.00     0.038 A 
HETATM   10  C13 UNK     1      19.524   5.987  30.203  1.00  0.00     0.001 A 
HETATM   11  C14 UNK     1      20.480   5.804  31.206  1.00  0.00     0.003 A 
ENDROOT
BRANCH   3  12
HETATM   12  C5  UNK     1      15.121   8.395  33.746  1.00  0.00     0.259 C 
HETATM   13  O1  UNK     1      14.153   7.640  33.822  1.00  0.00    -0.267 OA
HETATM   14  N1  UNK     1      15.060   9.766  33.899  1.00  0.00    -0.348 N 
HETATM   15  C3  UNK     1      16.162  10.724  33.823  1.00  0.00     0.126 C 
HETATM   16  C4  UNK     1      13.801  10.448  34.169  1.00  0.00     0.126 C 
HETATM   17  C1  UNK     1      15.564  12.036  34.313  1.00  0.00     0.021 C 
HETATM   18  C2  UNK     1      14.100  11.917  33.913  1.00  0.00     0.021 C 
ENDBRANCH   3  12
TORSDOF 1
ENDMDL
