MODEL 1
REMARK VINA RESULT:      -9.4      0.000      0.000
REMARK  3 active torsions:
REMARK  status: ('A' for Active; 'I' for Inactive)
REMARK    1  A    between atoms: C3_10  and  N1_6 
REMARK       I    between atoms: C8_15  and  N1_6 
REMARK       I    between atoms: C12_19  and  N2_7 
REMARK    2  A    between atoms: C12_19  and  C2_9 
REMARK    3  A    between atoms: C6_13  and  C8_15 
ROOT
HETATM    1  O2  UNK     1      21.006  -3.446  37.612  1.00  0.00    -0.267 OA
HETATM    2  N1  UNK     1      18.935  -3.425  36.490  1.00  0.00    -0.316 N 
HETATM    3  C8  UNK     1      20.059  -4.005  37.062  1.00  0.00     0.262 C 
HETATM    4  H1  UNK     1      18.240  -4.022  36.051  1.00  0.00     0.169 HD
ENDROOT
BRANCH   2   5
HETATM    5  C3  UNK     1      18.621  -2.046  36.411  1.00  0.00     0.093 A 
HETATM    6  C2  UNK     1      18.715  -1.198  35.368  1.00  0.00     0.072 A 
HETATM    7  C1  UNK     1      18.286   0.108  35.746  1.00  0.00    -0.031 A 
HETATM    8  C4  UNK     1      17.893   0.162  37.064  1.00  0.00    -0.012 A 
HETATM    9  C5  UNK     1      18.265   1.274  34.828  1.00  0.00     0.050 C 
HETATM   10  S1  UNK     1      18.041  -1.357  37.843  1.00  0.00    -0.076 SA
HETATM   11  C9  UNK     1      17.387   1.319  37.837  1.00  0.00     0.057 C 
BRANCH   6  12
HETATM   12  C12 UNK     1      19.183  -1.579  34.059  1.00  0.00     0.252 C 
HETATM   13  O3  UNK     1      20.307  -2.077  33.857  1.00  0.00    -0.268 OA
HETATM   14  N2  UNK     1      18.313  -1.393  32.988  1.00  0.00    -0.366 N 
HETATM   15  H13 UNK     1      17.386  -0.999  33.108  1.00  0.00     0.159 HD
HETATM   16  H14 UNK     1      18.586  -1.650  32.045  1.00  0.00     0.159 HD
ENDBRANCH   6  12
ENDBRANCH   2   5
BRANCH   3  17
HETATM   17  C6  UNK     1      20.039  -5.469  36.958  1.00  0.00     0.108 A 
HETATM   18  C10 UNK     1      19.939  -6.143  38.109  1.00  0.00     0.037 A 
HETATM   19  C7  UNK     1      19.912  -7.597  38.109  1.00  0.00    -0.001 A 
HETATM   20  C11 UNK     1      19.993  -8.271  36.895  1.00  0.00     0.089 A 
HETATM   21  C14 UNK     1      19.808  -8.341  39.287  1.00  0.00     0.014 A 
HETATM   22  O1  UNK     1      20.097  -7.556  35.685  1.00  0.00    -0.274 OA
HETATM   23  C15 UNK     1      19.972  -9.663  36.825  1.00  0.00     0.038 A 
HETATM   24  C13 UNK     1      20.126  -6.165  35.654  1.00  0.00     0.304 A 
HETATM   25  O4  UNK     1      20.218  -5.552  34.597  1.00  0.00    -0.259 OA
HETATM   26  C17 UNK     1      19.870 -10.396  38.004  1.00  0.00     0.003 A 
HETATM   27  C16 UNK     1      19.788  -9.738  39.233  1.00  0.00     0.001 A 
ENDBRANCH   3  17
TORSDOF 3
ENDMDL
MODEL 2
REMARK VINA RESULT:      -9.4      1.992      7.409
REMARK  3 active torsions:
REMARK  status: ('A' for Active; 'I' for Inactive)
REMARK    1  A    between atoms: C3_10  and  N1_6 
REMARK       I    between atoms: C8_15  and  N1_6 
REMARK       I    between atoms: C12_19  and  N2_7 
REMARK    2  A    between atoms: C12_19  and  C2_9 
REMARK    3  A    between atoms: C6_13  and  C8_15 
ROOT
HETATM    1  O2  UNK     1      21.432  -4.295  36.973  1.00  0.00    -0.267 OA
HETATM    2  N1  UNK     1      19.189  -5.007  37.061  1.00  0.00    -0.316 N 
HETATM    3  C8  UNK     1      20.223  -4.103  36.860  1.00  0.00     0.262 C 
HETATM    4  H1  UNK     1      18.229  -4.693  36.948  1.00  0.00     0.169 HD
ENDROOT
BRANCH   2   5
HETATM    5  C3  UNK     1      19.293  -6.367  37.444  1.00  0.00     0.093 A 
HETATM    6  C2  UNK     1      18.924  -7.481  36.782  1.00  0.00     0.072 A 
HETATM    7  C1  UNK     1      19.220  -8.641  37.553  1.00  0.00    -0.031 A 
HETATM    8  C4  UNK     1      19.800  -8.326  38.761  1.00  0.00    -0.012 A 
HETATM    9  C5  UNK     1      18.938 -10.029  37.108  1.00  0.00     0.050 C 
HETATM   10  S1  UNK     1      19.986  -6.635  38.963  1.00  0.00    -0.076 SA
HETATM   11  C9  UNK     1      20.254  -9.232  39.840  1.00  0.00     0.057 C 
BRANCH   6  12
HETATM   12  C12 UNK     1      18.316  -7.477  35.474  1.00  0.00     0.252 C 
HETATM   13  O3  UNK     1      18.966  -7.324  34.423  1.00  0.00    -0.268 OA
HETATM   14  N2  UNK     1      16.940  -7.676  35.407  1.00  0.00    -0.366 N 
HETATM   15  H13 UNK     1      16.373  -7.813  36.238  1.00  0.00     0.159 HD
HETATM   16  H14 UNK     1      16.458  -7.690  34.514  1.00  0.00     0.159 HD
ENDBRANCH   6  12
ENDBRANCH   2   5
BRANCH   3  17
HETATM   17  C6  UNK     1      19.730  -2.778  36.465  1.00  0.00     0.108 A 
HETATM   18  C10 UNK     1      19.020  -2.113  37.384  1.00  0.00     0.037 A 
HETATM   19  C7  UNK     1      18.489  -0.792  37.087  1.00  0.00    -0.001 A 
HETATM   20  C11 UNK     1      18.730  -0.236  35.834  1.00  0.00     0.089 A 
HETATM   21  C14 UNK     1      17.744  -0.062  38.016  1.00  0.00     0.014 A 
HETATM   22  O1  UNK     1      19.478  -0.942  34.871  1.00  0.00    -0.274 OA
HETATM   23  C15 UNK     1      18.249   1.024  35.486  1.00  0.00     0.038 A 
HETATM   24  C13 UNK     1      19.999  -2.207  35.126  1.00  0.00     0.304 A 
HETATM   25  O4  UNK     1      20.648  -2.813  34.281  1.00  0.00    -0.259 OA
HETATM   26  C17 UNK     1      17.506   1.745  36.418  1.00  0.00     0.003 A 
HETATM   27  C16 UNK     1      17.254   1.204  37.680  1.00  0.00     0.001 A 
ENDBRANCH   3  17
TORSDOF 3
ENDMDL
MODEL 3
REMARK VINA RESULT:      -9.3      8.323     10.304
REMARK  3 active torsions:
REMARK  status: ('A' for Active; 'I' for Inactive)
REMARK    1  A    between atoms: C3_10  and  N1_6 
REMARK       I    between atoms: C8_15  and  N1_6 
REMARK       I    between atoms: C12_19  and  N2_7 
REMARK    2  A    between atoms: C12_19  and  C2_9 
REMARK    3  A    between atoms: C6_13  and  C8_15 
ROOT
HETATM    1  O2  UNK     1      17.567   3.728  32.871  1.00  0.00    -0.267 OA
HETATM    2  N1  UNK     1      19.063   5.103  31.681  1.00  0.00    -0.316 N 
HETATM    3  C8  UNK     1      18.376   3.932  31.967  1.00  0.00     0.262 C 
HETATM    4  H1  UNK     1      19.721   5.112  30.906  1.00  0.00     0.169 HD
ENDROOT
BRANCH   2   5
HETATM    5  C3  UNK     1      18.989   6.338  32.369  1.00  0.00     0.093 A 
HETATM    6  C2  UNK     1      17.987   7.238  32.422  1.00  0.00     0.072 A 
HETATM    7  C1  UNK     1      18.352   8.344  33.242  1.00  0.00    -0.031 A 
HETATM    8  C4  UNK     1      19.621   8.208  33.761  1.00  0.00    -0.012 A 
HETATM    9  C5  UNK     1      17.471   9.509  33.508  1.00  0.00     0.050 C 
HETATM   10  S1  UNK     1      20.367   6.750  33.260  1.00  0.00    -0.076 SA
HETATM   11  C9  UNK     1      20.365   9.127  34.651  1.00  0.00     0.057 C 
BRANCH   6  12
HETATM   12  C12 UNK     1      16.728   7.082  31.738  1.00  0.00     0.252 C 
HETATM   13  O3  UNK     1      16.468   7.638  30.655  1.00  0.00    -0.268 OA
HETATM   14  N2  UNK     1      15.780   6.248  32.325  1.00  0.00    -0.366 N 
HETATM   15  H13 UNK     1      15.952   5.768  33.203  1.00  0.00     0.159 HD
HETATM   16  H14 UNK     1      14.878   6.094  31.886  1.00  0.00     0.159 HD
ENDBRANCH   6  12
ENDBRANCH   2   5
BRANCH   3  17
HETATM   17  C6  UNK     1      18.708   2.851  31.031  1.00  0.00     0.108 A 
HETATM   18  C10 UNK     1      19.090   1.692  31.578  1.00  0.00     0.037 A 
HETATM   19  C7  UNK     1      19.440   0.562  30.732  1.00  0.00    -0.001 A 
HETATM   20  C11 UNK     1      19.373   0.709  29.350  1.00  0.00     0.089 A 
HETATM   21  C14 UNK     1      19.843  -0.668  31.260  1.00  0.00     0.014 A 
HETATM   22  O1  UNK     1      18.970   1.933  28.780  1.00  0.00    -0.274 OA
HETATM   23  C15 UNK     1      19.695  -0.334  28.484  1.00  0.00     0.038 A 
HETATM   24  C13 UNK     1      18.628   3.032  29.564  1.00  0.00     0.304 A 
HETATM   25  O4  UNK     1      18.280   4.093  29.059  1.00  0.00    -0.259 OA
HETATM   26  C17 UNK     1      20.097  -1.556  29.018  1.00  0.00     0.003 A 
HETATM   27  C16 UNK     1      20.171  -1.723  30.402  1.00  0.00     0.001 A 
ENDBRANCH   3  17
TORSDOF 3
ENDMDL
MODEL 4
REMARK VINA RESULT:      -9.0      8.089      9.981
REMARK  3 active torsions:
REMARK  status: ('A' for Active; 'I' for Inactive)
REMARK    1  A    between atoms: C3_10  and  N1_6 
REMARK       I    between atoms: C8_15  and  N1_6 
REMARK       I    between atoms: C12_19  and  N2_7 
REMARK    2  A    between atoms: C12_19  and  C2_9 
REMARK    3  A    between atoms: C6_13  and  C8_15 
ROOT
HETATM    1  O2  UNK     1      17.810   3.250  33.108  1.00  0.00    -0.267 OA
HETATM    2  N1  UNK     1      18.255   4.797  31.389  1.00  0.00    -0.316 N 
HETATM    3  C8  UNK     1      18.185   3.540  31.973  1.00  0.00     0.262 C 
HETATM    4  H1  UNK     1      18.608   4.882  30.439  1.00  0.00     0.169 HD
ENDROOT
BRANCH   2   5
HETATM    5  C3  UNK     1      17.909   6.041  31.971  1.00  0.00     0.093 A 
HETATM    6  C2  UNK     1      18.573   6.786  32.876  1.00  0.00     0.072 A 
HETATM    7  C1  UNK     1      17.845   7.972  33.178  1.00  0.00    -0.031 A 
HETATM    8  C4  UNK     1      16.664   8.048  32.474  1.00  0.00    -0.012 A 
HETATM    9  C5  UNK     1      18.304   9.008  34.138  1.00  0.00     0.050 C 
HETATM   10  S1  UNK     1      16.435   6.692  31.453  1.00  0.00    -0.076 SA
HETATM   11  C9  UNK     1      15.632   9.109  32.501  1.00  0.00     0.057 C 
BRANCH   6  12
HETATM   12  C12 UNK     1      19.845   6.416  33.446  1.00  0.00     0.252 C 
HETATM   13  O3  UNK     1      20.931   6.862  33.032  1.00  0.00    -0.268 OA
HETATM   14  N2  UNK     1      19.832   5.534  34.523  1.00  0.00    -0.366 N 
HETATM   15  H13 UNK     1      18.969   5.152  34.898  1.00  0.00     0.159 HD
HETATM   16  H14 UNK     1      20.696   5.243  34.969  1.00  0.00     0.159 HD
ENDBRANCH   6  12
ENDBRANCH   2   5
BRANCH   3  17
HETATM   17  C6  UNK     1      18.627   2.480  31.059  1.00  0.00     0.108 A 
HETATM   18  C10 UNK     1      19.033   1.340  31.629  1.00  0.00     0.037 A 
HETATM   19  C7  UNK     1      19.490   0.231  30.807  1.00  0.00    -0.001 A 
HETATM   20  C11 UNK     1      19.499   0.377  29.423  1.00  0.00     0.089 A 
HETATM   21  C14 UNK     1      19.922  -0.978  31.359  1.00  0.00     0.014 A 
HETATM   22  O1  UNK     1      19.071   1.581  28.829  1.00  0.00    -0.274 OA
HETATM   23  C15 UNK     1      19.926  -0.646  28.580  1.00  0.00     0.038 A 
HETATM   24  C13 UNK     1      18.628   2.659  29.590  1.00  0.00     0.304 A 
HETATM   25  O4  UNK     1      18.258   3.702  29.063  1.00  0.00    -0.259 OA
HETATM   26  C17 UNK     1      20.355  -1.847  29.138  1.00  0.00     0.003 A 
HETATM   27  C16 UNK     1      20.353  -2.014  30.525  1.00  0.00     0.001 A 
ENDBRANCH   3  17
TORSDOF 3
ENDMDL
MODEL 5
REMARK VINA RESULT:      -8.9      7.493     10.040
REMARK  3 active torsions:
REMARK  status: ('A' for Active; 'I' for Inactive)
REMARK    1  A    between atoms: C3_10  and  N1_6 
REMARK       I    between atoms: C8_15  and  N1_6 
REMARK       I    between atoms: C12_19  and  N2_7 
REMARK    2  A    between atoms: C12_19  and  C2_9 
REMARK    3  A    between atoms: C6_13  and  C8_15 
ROOT
HETATM    1  O2  UNK     1      18.655   4.917  30.266  1.00  0.00    -0.267 OA
HETATM    2  N1  UNK     1      17.779   4.845  32.451  1.00  0.00    -0.316 N 
HETATM    3  C8  UNK     1      18.364   4.326  31.304  1.00  0.00     0.262 C 
HETATM    4  H1  UNK     1      17.579   4.222  33.229  1.00  0.00     0.169 HD
ENDROOT
BRANCH   2   5
HETATM    5  C3  UNK     1      17.382   6.184  32.687  1.00  0.00     0.093 A 
HETATM    6  C2  UNK     1      18.037   7.180  33.316  1.00  0.00     0.072 A 
HETATM    7  C1  UNK     1      17.252   8.369  33.320  1.00  0.00    -0.031 A 
HETATM    8  C4  UNK     1      16.041   8.192  32.687  1.00  0.00    -0.012 A 
HETATM    9  C5  UNK     1      17.686   9.650  33.932  1.00  0.00     0.050 C 
HETATM   10  S1  UNK     1      15.854   6.597  32.092  1.00  0.00    -0.076 SA
HETATM   11  C9  UNK     1      14.950   9.170  32.478  1.00  0.00     0.057 C 
BRANCH   6  12
HETATM   12  C12 UNK     1      19.350   7.042  33.895  1.00  0.00     0.252 C 
HETATM   13  O3  UNK     1      20.372   6.825  33.218  1.00  0.00    -0.268 OA
HETATM   14  N2  UNK     1      19.459   7.184  35.276  1.00  0.00    -0.366 N 
HETATM   15  H13 UNK     1      18.653   7.370  35.865  1.00  0.00     0.159 HD
HETATM   16  H14 UNK     1      20.359   7.104  35.738  1.00  0.00     0.159 HD
ENDBRANCH   6  12
ENDBRANCH   2   5
BRANCH   3  17
HETATM   17  C6  UNK     1      18.640   2.889  31.426  1.00  0.00     0.108 A 
HETATM   18  C10 UNK     1      19.151   2.292  30.344  1.00  0.00     0.037 A 
HETATM   19  C7  UNK     1      19.458   0.870  30.366  1.00  0.00    -0.001 A 
HETATM   20  C11 UNK     1      19.208   0.146  31.528  1.00  0.00     0.089 A 
HETATM   21  C14 UNK     1      19.994   0.206  29.260  1.00  0.00     0.014 A 
HETATM   22  O1  UNK     1      18.669   0.781  32.664  1.00  0.00    -0.274 OA
HETATM   23  C15 UNK     1      19.478  -1.218  31.615  1.00  0.00     0.038 A 
HETATM   24  C13 UNK     1      18.366   2.140  32.673  1.00  0.00     0.304 A 
HETATM   25  O4  UNK     1      17.896   2.683  33.666  1.00  0.00    -0.259 OA
HETATM   26  C17 UNK     1      20.012  -1.873  30.508  1.00  0.00     0.003 A 
HETATM   27  C16 UNK     1      20.269  -1.163  29.333  1.00  0.00     0.001 A 
ENDBRANCH   3  17
TORSDOF 3
ENDMDL
MODEL 6
REMARK VINA RESULT:      -8.8      1.235      1.489
REMARK  3 active torsions:
REMARK  status: ('A' for Active; 'I' for Inactive)
REMARK    1  A    between atoms: C3_10  and  N1_6 
REMARK       I    between atoms: C8_15  and  N1_6 
REMARK       I    between atoms: C12_19  and  N2_7 
REMARK    2  A    between atoms: C12_19  and  C2_9 
REMARK    3  A    between atoms: C6_13  and  C8_15 
ROOT
HETATM    1  O2  UNK     1      21.023  -3.618  36.803  1.00  0.00    -0.267 OA
HETATM    2  N1  UNK     1      18.697  -3.442  36.481  1.00  0.00    -0.316 N 
HETATM    3  C8  UNK     1      19.902  -4.105  36.667  1.00  0.00     0.262 C 
HETATM    4  H1  UNK     1      17.846  -3.987  36.364  1.00  0.00     0.169 HD
ENDROOT
BRANCH   2   5
HETATM    5  C3  UNK     1      18.482  -2.044  36.406  1.00  0.00     0.093 A 
HETATM    6  C2  UNK     1      18.643  -1.200  35.368  1.00  0.00     0.072 A 
HETATM    7  C1  UNK     1      18.306   0.131  35.748  1.00  0.00    -0.031 A 
HETATM    8  C4  UNK     1      17.909   0.208  37.065  1.00  0.00    -0.012 A 
HETATM    9  C5  UNK     1      18.374   1.299  34.835  1.00  0.00     0.050 C 
HETATM   10  S1  UNK     1      17.943  -1.321  37.837  1.00  0.00    -0.076 SA
HETATM   11  C9  UNK     1      17.481   1.395  37.839  1.00  0.00     0.057 C 
BRANCH   6  12
HETATM   12  C12 UNK     1      19.092  -1.609  34.060  1.00  0.00     0.252 C 
HETATM   13  O3  UNK     1      20.210  -2.117  33.853  1.00  0.00    -0.268 OA
HETATM   14  N2  UNK     1      18.209  -1.438  32.997  1.00  0.00    -0.366 N 
HETATM   15  H13 UNK     1      17.285  -1.036  33.122  1.00  0.00     0.159 HD
HETATM   16  H14 UNK     1      18.468  -1.714  32.055  1.00  0.00     0.159 HD
ENDBRANCH   6  12
ENDBRANCH   2   5
BRANCH   3  17
HETATM   17  C6  UNK     1      19.733  -5.562  36.695  1.00  0.00     0.108 A 
HETATM   18  C10 UNK     1      20.857  -6.288  36.661  1.00  0.00     0.037 A 
HETATM   19  C7  UNK     1      20.793  -7.741  36.684  1.00  0.00    -0.001 A 
HETATM   20  C11 UNK     1      19.548  -8.359  36.741  1.00  0.00     0.089 A 
HETATM   21  C14 UNK     1      21.940  -8.538  36.651  1.00  0.00     0.014 A 
HETATM   22  O1  UNK     1      18.368  -7.589  36.776  1.00  0.00    -0.274 OA
HETATM   23  C15 UNK     1      19.417  -9.746  36.765  1.00  0.00     0.038 A 
HETATM   24  C13 UNK     1      18.398  -6.198  36.756  1.00  0.00     0.304 A 
HETATM   25  O4  UNK     1      17.366  -5.536  36.786  1.00  0.00    -0.259 OA
HETATM   26  C17 UNK     1      20.565 -10.533  36.731  1.00  0.00     0.003 A 
HETATM   27  C16 UNK     1      21.824  -9.931  36.674  1.00  0.00     0.001 A 
ENDBRANCH   3  17
TORSDOF 3
ENDMDL
MODEL 7
REMARK VINA RESULT:      -8.8      2.551      7.506
REMARK  3 active torsions:
REMARK  status: ('A' for Active; 'I' for Inactive)
REMARK    1  A    between atoms: C3_10  and  N1_6 
REMARK       I    between atoms: C8_15  and  N1_6 
REMARK       I    between atoms: C12_19  and  N2_7 
REMARK    2  A    between atoms: C12_19  and  C2_9 
REMARK    3  A    between atoms: C6_13  and  C8_15 
ROOT
HETATM    1  O2  UNK     1      19.951  -2.597  37.556  1.00  0.00    -0.267 OA
HETATM    2  N1  UNK     1      19.902  -4.488  36.153  1.00  0.00    -0.316 N 
HETATM    3  C8  UNK     1      19.845  -3.135  36.455  1.00  0.00     0.262 C 
HETATM    4  H1  UNK     1      19.776  -4.785  35.189  1.00  0.00     0.169 HD
ENDROOT
BRANCH   2   5
HETATM    5  C3  UNK     1      20.096  -5.566  37.051  1.00  0.00     0.093 A 
HETATM    6  C2  UNK     1      19.304  -6.623  37.316  1.00  0.00     0.072 A 
HETATM    7  C1  UNK     1      19.904  -7.464  38.297  1.00  0.00    -0.031 A 
HETATM    8  C4  UNK     1      21.124  -6.982  38.715  1.00  0.00    -0.012 A 
HETATM    9  C5  UNK     1      19.288  -8.714  38.809  1.00  0.00     0.050 C 
HETATM   10  S1  UNK     1      21.543  -5.520  37.927  1.00  0.00    -0.076 SA
HETATM   11  C9  UNK     1      22.058  -7.554  39.712  1.00  0.00     0.057 C 
BRANCH   6  12
HETATM   12  C12 UNK     1      18.030  -6.854  36.681  1.00  0.00     0.252 C 
HETATM   13  O3  UNK     1      17.076  -6.059  36.762  1.00  0.00    -0.268 OA
HETATM   14  N2  UNK     1      17.892  -8.017  35.928  1.00  0.00    -0.366 N 
HETATM   15  H13 UNK     1      18.646  -8.689  35.828  1.00  0.00     0.159 HD
HETATM   16  H14 UNK     1      17.020  -8.230  35.453  1.00  0.00     0.159 HD
ENDBRANCH   6  12
ENDBRANCH   2   5
BRANCH   3  17
HETATM   17  C6  UNK     1      19.632  -2.310  35.260  1.00  0.00     0.108 A 
HETATM   18  C10 UNK     1      20.245  -2.718  34.142  1.00  0.00     0.037 A 
HETATM   19  C7  UNK     1      20.094  -1.967  32.907  1.00  0.00    -0.001 A 
HETATM   20  C11 UNK     1      19.307  -0.819  32.908  1.00  0.00     0.089 A 
HETATM   21  C14 UNK     1      20.714  -2.357  31.717  1.00  0.00     0.014 A 
HETATM   22  O1  UNK     1      18.665  -0.394  34.088  1.00  0.00    -0.274 OA
HETATM   23  C15 UNK     1      19.123  -0.054  31.758  1.00  0.00     0.038 A 
HETATM   24  C13 UNK     1      18.790  -1.093  35.285  1.00  0.00     0.304 A 
HETATM   25  O4  UNK     1      18.228  -0.714  36.307  1.00  0.00    -0.259 OA
HETATM   26  C17 UNK     1      19.745  -0.450  30.577  1.00  0.00     0.003 A 
HETATM   27  C16 UNK     1      20.539  -1.598  30.555  1.00  0.00     0.001 A 
ENDBRANCH   3  17
TORSDOF 3
ENDMDL
MODEL 8
REMARK VINA RESULT:      -8.7      2.354      7.712
REMARK  3 active torsions:
REMARK  status: ('A' for Active; 'I' for Inactive)
REMARK    1  A    between atoms: C3_10  and  N1_6 
REMARK       I    between atoms: C8_15  and  N1_6 
REMARK       I    between atoms: C12_19  and  N2_7 
REMARK    2  A    between atoms: C12_19  and  C2_9 
REMARK    3  A    between atoms: C6_13  and  C8_15 
ROOT
HETATM    1  O2  UNK     1      21.318  -4.537  37.298  1.00  0.00    -0.267 OA
HETATM    2  N1  UNK     1      19.865  -5.585  35.770  1.00  0.00    -0.316 N 
HETATM    3  C8  UNK     1      20.435  -4.513  36.443  1.00  0.00     0.262 C 
HETATM    4  H1  UNK     1      19.123  -5.409  35.098  1.00  0.00     0.169 HD
ENDROOT
BRANCH   2   5
HETATM    5  C3  UNK     1      20.174  -6.960  35.916  1.00  0.00     0.093 A 
HETATM    6  C2  UNK     1      19.913  -7.799  36.937  1.00  0.00     0.072 A 
HETATM    7  C1  UNK     1      20.411  -9.104  36.652  1.00  0.00    -0.031 A 
HETATM    8  C4  UNK     1      21.023  -9.165  35.419  1.00  0.00    -0.012 A 
HETATM    9  C5  UNK     1      20.285 -10.261  37.572  1.00  0.00     0.050 C 
HETATM   10  S1  UNK     1      20.996  -7.655  34.612  1.00  0.00    -0.076 SA
HETATM   11  C9  UNK     1      21.662 -10.324  34.756  1.00  0.00     0.057 C 
BRANCH   6  12
HETATM   12  C12 UNK     1      19.222  -7.412  38.142  1.00  0.00     0.252 C 
HETATM   13  O3  UNK     1      19.806  -7.192  39.220  1.00  0.00    -0.268 OA
HETATM   14  N2  UNK     1      17.840  -7.263  38.068  1.00  0.00    -0.366 N 
HETATM   15  H13 UNK     1      17.325  -7.424  37.208  1.00  0.00     0.159 HD
HETATM   16  H14 UNK     1      17.301  -6.986  38.882  1.00  0.00     0.159 HD
ENDBRANCH   6  12
ENDBRANCH   2   5
BRANCH   3  17
HETATM   17  C6  UNK     1      19.860  -3.229  36.025  1.00  0.00     0.108 A 
HETATM   18  C10 UNK     1      19.116  -2.590  36.935  1.00  0.00     0.037 A 
HETATM   19  C7  UNK     1      18.504  -1.310  36.615  1.00  0.00    -0.001 A 
HETATM   20  C11 UNK     1      18.703  -0.766  35.350  1.00  0.00     0.089 A 
HETATM   21  C14 UNK     1      17.721  -0.608  37.535  1.00  0.00     0.014 A 
HETATM   22  O1  UNK     1      19.487  -1.445  34.396  1.00  0.00    -0.274 OA
HETATM   23  C15 UNK     1      18.145   0.455  34.980  1.00  0.00     0.038 A 
HETATM   24  C13 UNK     1      20.086  -2.670  34.673  1.00  0.00     0.304 A 
HETATM   25  O4  UNK     1      20.766  -3.253  33.836  1.00  0.00    -0.259 OA
HETATM   26  C17 UNK     1      17.365   1.148  35.902  1.00  0.00     0.003 A 
HETATM   27  C16 UNK     1      17.153   0.619  37.177  1.00  0.00     0.001 A 
ENDBRANCH   3  17
TORSDOF 3
ENDMDL
MODEL 9
REMARK VINA RESULT:      -8.7     19.539     22.716
REMARK  3 active torsions:
REMARK  status: ('A' for Active; 'I' for Inactive)
REMARK    1  A    between atoms: C3_10  and  N1_6 
REMARK       I    between atoms: C8_15  and  N1_6 
REMARK       I    between atoms: C12_19  and  N2_7 
REMARK    2  A    between atoms: C12_19  and  C2_9 
REMARK    3  A    between atoms: C6_13  and  C8_15 
ROOT
HETATM    1  O2  UNK     1      17.838  -3.528  15.376  1.00  0.00    -0.267 OA
HETATM    2  N1  UNK     1      19.754  -3.099  14.077  1.00  0.00    -0.316 N 
HETATM    3  C8  UNK     1      18.757  -2.805  14.997  1.00  0.00     0.262 C 
HETATM    4  H1  UNK     1      20.440  -2.385  13.848  1.00  0.00     0.169 HD
ENDROOT
BRANCH   2   5
HETATM    5  C3  UNK     1      19.943  -4.308  13.364  1.00  0.00     0.093 A 
HETATM    6  C2  UNK     1      20.405  -5.499  13.790  1.00  0.00     0.072 A 
HETATM    7  C1  UNK     1      20.425  -6.439  12.720  1.00  0.00    -0.031 A 
HETATM    8  C4  UNK     1      19.972  -5.891  11.541  1.00  0.00    -0.012 A 
HETATM    9  C5  UNK     1      20.881  -7.845  12.857  1.00  0.00     0.050 C 
HETATM   10  S1  UNK     1      19.524  -4.248  11.726  1.00  0.00    -0.076 SA
HETATM   11  C9  UNK     1      19.836  -6.528  10.211  1.00  0.00     0.057 C 
BRANCH   6  12
HETATM   12  C12 UNK     1      20.816  -5.765  15.146  1.00  0.00     0.252 C 
HETATM   13  O3  UNK     1      22.007  -5.770  15.507  1.00  0.00    -0.268 OA
HETATM   14  N2  UNK     1      19.814  -6.003  16.083  1.00  0.00    -0.366 N 
HETATM   15  H13 UNK     1      18.830  -6.001  15.835  1.00  0.00     0.159 HD
HETATM   16  H14 UNK     1      20.043  -6.190  17.054  1.00  0.00     0.159 HD
ENDBRANCH   6  12
ENDBRANCH   2   5
BRANCH   3  17
HETATM   17  C6  UNK     1      18.885  -1.446  15.537  1.00  0.00     0.108 A 
HETATM   18  C10 UNK     1      18.738  -1.320  16.861  1.00  0.00     0.037 A 
HETATM   19  C7  UNK     1      18.848  -0.014  17.490  1.00  0.00    -0.001 A 
HETATM   20  C11 UNK     1      19.104   1.098  16.693  1.00  0.00     0.089 A 
HETATM   21  C14 UNK     1      18.703   0.164  18.868  1.00  0.00     0.014 A 
HETATM   22  O1  UNK     1      19.256   0.958  15.299  1.00  0.00    -0.274 OA
HETATM   23  C15 UNK     1      19.219   2.377  17.233  1.00  0.00     0.038 A 
HETATM   24  C13 UNK     1      19.158  -0.279  14.669  1.00  0.00     0.304 A 
HETATM   25  O4  UNK     1      19.291  -0.390  13.455  1.00  0.00    -0.259 OA
HETATM   26  C17 UNK     1      19.073   2.546  18.607  1.00  0.00     0.003 A 
HETATM   27  C16 UNK     1      18.816   1.443  19.423  1.00  0.00     0.001 A 
ENDBRANCH   3  17
TORSDOF 3
ENDMDL
MODEL 10
REMARK VINA RESULT:      -8.5     18.721     21.882
REMARK  3 active torsions:
REMARK  status: ('A' for Active; 'I' for Inactive)
REMARK    1  A    between atoms: C3_10  and  N1_6 
REMARK       I    between atoms: C8_15  and  N1_6 
REMARK       I    between atoms: C12_19  and  N2_7 
REMARK    2  A    between atoms: C12_19  and  C2_9 
REMARK    3  A    between atoms: C6_13  and  C8_15 
ROOT
HETATM    1  O2  UNK     1      17.629  -2.249  16.052  1.00  0.00    -0.267 OA
HETATM    2  N1  UNK     1      19.860  -2.062  15.323  1.00  0.00    -0.316 N 
HETATM    3  C8  UNK     1      18.735  -1.710  16.054  1.00  0.00     0.262 C 
HETATM    4  H1  UNK     1      20.705  -1.504  15.416  1.00  0.00     0.169 HD
ENDROOT
BRANCH   2   5
HETATM    5  C3  UNK     1      19.993  -3.130  14.401  1.00  0.00     0.093 A 
HETATM    6  C2  UNK     1      19.952  -3.117  13.054  1.00  0.00     0.072 A 
HETATM    7  C1  UNK     1      20.134  -4.432  12.537  1.00  0.00    -0.031 A 
HETATM    8  C4  UNK     1      20.301  -5.364  13.538  1.00  0.00    -0.012 A 
HETATM    9  C5  UNK     1      20.142  -4.763  11.090  1.00  0.00     0.050 C 
HETATM   10  S1  UNK     1      20.239  -4.653  15.095  1.00  0.00    -0.076 SA
HETATM   11  C9  UNK     1      20.516  -6.824  13.423  1.00  0.00     0.057 C 
BRANCH   6  12
HETATM   12  C12 UNK     1      19.754  -1.927  12.265  1.00  0.00     0.252 C 
HETATM   13  O3  UNK     1      18.675  -1.307  12.229  1.00  0.00    -0.268 OA
HETATM   14  N2  UNK     1      20.841  -1.456  11.534  1.00  0.00    -0.366 N 
HETATM   15  H13 UNK     1      21.741  -1.925  11.540  1.00  0.00     0.159 HD
HETATM   16  H14 UNK     1      20.763  -0.618  10.965  1.00  0.00     0.159 HD
ENDBRANCH   6  12
ENDBRANCH   2   5
BRANCH   3  17
HETATM   17  C6  UNK     1      18.975  -0.544  16.913  1.00  0.00     0.108 A 
HETATM   18  C10 UNK     1      18.982  -0.772  18.231  1.00  0.00     0.037 A 
HETATM   19  C7  UNK     1      19.212   0.320  19.163  1.00  0.00    -0.001 A 
HETATM   20  C11 UNK     1      19.420   1.601  18.661  1.00  0.00     0.089 A 
HETATM   21  C14 UNK     1      19.229   0.128  20.547  1.00  0.00     0.014 A 
HETATM   22  O1  UNK     1      19.410   1.834  17.272  1.00  0.00    -0.274 OA
HETATM   23  C15 UNK     1      19.645   2.690  19.500  1.00  0.00     0.038 A 
HETATM   24  C13 UNK     1      19.194   0.809  16.355  1.00  0.00     0.304 A 
HETATM   25  O4  UNK     1      19.187   1.023  15.148  1.00  0.00    -0.259 OA
HETATM   26  C17 UNK     1      19.660   2.490  20.878  1.00  0.00     0.003 A 
HETATM   27  C16 UNK     1      19.453   1.212  21.401  1.00  0.00     0.001 A 
ENDBRANCH   3  17
TORSDOF 3
ENDMDL
