MODEL 1
REMARK VINA RESULT:      -9.7      0.000      0.000
REMARK  8 active torsions:
REMARK  status: ('A' for Active; 'I' for Inactive)
REMARK    1  A    between atoms: C1_12  and  N1_8 
REMARK    2  A    between atoms: C11_22  and  N3_10 
REMARK    3  A    between atoms: C3_14  and  N3_10 
REMARK    4  A    between atoms: C11_22  and  N4_11 
REMARK    5  A    between atoms: C9_20  and  N4_11 
REMARK    6  A    between atoms: C1_12  and  C2_13 
REMARK    7  A    between atoms: C2_13  and  C3_14 
REMARK    8  A    between atoms: C12_23  and  C6_17 
ROOT
HETATM    1  N3  UNK     1      17.965  -2.509  36.433  1.00  0.00    -0.367 N 
HETATM    2  H7  UNK     1      16.986  -2.767  36.505  1.00  0.00     0.161 HD
ENDROOT
BRANCH   1   3
HETATM    3  C11 UNK     1      18.888  -3.517  36.679  1.00  0.00     0.172 C 
HETATM    4  S1  UNK     1      20.479  -3.045  36.941  1.00  0.00    -0.041 SA
BRANCH   3   5
HETATM    5  N4  UNK     1      18.374  -4.826  36.642  1.00  0.00    -0.333 N 
HETATM    6  H12 UNK     1      17.375  -4.867  36.468  1.00  0.00     0.168 HD
BRANCH   5   7
HETATM    7  C9  UNK     1      18.980  -6.074  36.492  1.00  0.00     0.036 A 
HETATM    8  C14 UNK     1      18.675  -7.108  37.370  1.00  0.00     0.067 A 
HETATM    9  C10 UNK     1      19.292  -8.349  37.201  1.00  0.00     0.092 A 
HETATM   10  O1  UNK     1      18.944  -9.358  38.122  1.00  0.00    -0.275 OA
HETATM   11  C8  UNK     1      20.207  -8.593  36.177  1.00  0.00     0.004 A 
HETATM   12  C19 UNK     1      19.494 -10.628  38.049  1.00  0.00     0.288 A 
HETATM   13  C17 UNK     1      20.458 -10.869  36.963  1.00  0.00     0.090 A 
HETATM   14  O2  UNK     1      19.197 -11.512  38.845  1.00  0.00    -0.260 OA
HETATM   15  C13 UNK     1      20.809  -9.930  36.074  1.00  0.00    -0.043 A 
HETATM   16  C18 UNK     1      21.798 -10.224  34.983  1.00  0.00     0.049 C 
HETATM   17  C15 UNK     1      20.501  -7.538  35.303  1.00  0.00     0.017 A 
HETATM   18  C16 UNK     1      19.891  -6.288  35.459  1.00  0.00     0.030 A 
ENDBRANCH   5   7
ENDBRANCH   3   5
ENDBRANCH   1   3
BRANCH   1  19
HETATM   19  C3  UNK     1      18.249  -1.125  36.102  1.00  0.00     0.123 C 
BRANCH  19  20
HETATM   20  C2  UNK     1      17.987  -0.817  34.631  1.00  0.00     0.041 C 
BRANCH  20  21
HETATM   21  C1  UNK     1      19.102  -1.329  33.720  1.00  0.00     0.152 C 
BRANCH  21  22
HETATM   22  N1  UNK     1      19.202  -0.552  32.487  1.00  0.00    -0.272 N 
HETATM   23  C4  UNK     1      19.808  -0.940  31.339  1.00  0.00     0.051 A 
HETATM   24  C7  UNK     1      20.470  -2.249  31.176  1.00  0.00     0.072 C 
HETATM   25  C5  UNK     1      19.648   0.112  30.471  1.00  0.00     0.093 A 
HETATM   26 Cl1  UNK     1      20.177   0.249  28.869  1.00  0.00    -0.080 Cl
HETATM   27  C6  UNK     1      18.932   1.072  31.210  1.00  0.00     0.184 A 
HETATM   28  N2  UNK     1      18.656   0.667  32.452  1.00  0.00    -0.166 NA
BRANCH  27  29
HETATM   29  C12 UNK     1      18.482   2.406  30.772  1.00  0.00     0.438 C 
HETATM   30  F1  UNK     1      17.913   3.129  31.777  1.00  0.00    -0.164 F 
HETATM   31  F2  UNK     1      19.492   3.181  30.286  1.00  0.00    -0.164 F 
HETATM   32  F3  UNK     1      17.550   2.329  29.782  1.00  0.00    -0.164 F 
ENDBRANCH  27  29
ENDBRANCH  21  22
ENDBRANCH  20  21
ENDBRANCH  19  20
ENDBRANCH   1  19
TORSDOF 8
ENDMDL
MODEL 2
REMARK VINA RESULT:      -9.5      5.546      7.562
REMARK  8 active torsions:
REMARK  status: ('A' for Active; 'I' for Inactive)
REMARK    1  A    between atoms: C1_12  and  N1_8 
REMARK    2  A    between atoms: C11_22  and  N3_10 
REMARK    3  A    between atoms: C3_14  and  N3_10 
REMARK    4  A    between atoms: C11_22  and  N4_11 
REMARK    5  A    between atoms: C9_20  and  N4_11 
REMARK    6  A    between atoms: C1_12  and  C2_13 
REMARK    7  A    between atoms: C2_13  and  C3_14 
REMARK    8  A    between atoms: C12_23  and  C6_17 
ROOT
HETATM    1  N3  UNK     1      19.731   1.467  30.188  1.00  0.00    -0.367 N 
HETATM    2  H7  UNK     1      20.635   1.895  30.359  1.00  0.00     0.161 HD
ENDROOT
BRANCH   1   3
HETATM    3  C11 UNK     1      19.697   0.078  30.194  1.00  0.00     0.172 C 
HETATM    4  S1  UNK     1      20.661  -0.712  29.068  1.00  0.00    -0.041 SA
BRANCH   3   5
HETATM    5  N4  UNK     1      18.821  -0.499  31.131  1.00  0.00    -0.333 N 
HETATM    6  H12 UNK     1      17.975  -0.879  30.718  1.00  0.00     0.168 HD
BRANCH   5   7
HETATM    7  C9  UNK     1      18.995  -0.927  32.447  1.00  0.00     0.036 A 
HETATM    8  C14 UNK     1      18.290  -0.318  33.480  1.00  0.00     0.067 A 
HETATM    9  C10 UNK     1      18.478  -0.764  34.789  1.00  0.00     0.092 A 
HETATM   10  O1  UNK     1      17.737  -0.108  35.792  1.00  0.00    -0.275 OA
HETATM   11  C8  UNK     1      19.353  -1.804  35.103  1.00  0.00     0.004 A 
HETATM   12  C19 UNK     1      17.844  -0.467  37.126  1.00  0.00     0.288 A 
HETATM   13  C17 UNK     1      18.771  -1.567  37.442  1.00  0.00     0.090 A 
HETATM   14  O2  UNK     1      17.204   0.096  38.006  1.00  0.00    -0.260 OA
HETATM   15  C13 UNK     1      19.490  -2.208  36.510  1.00  0.00    -0.043 A 
HETATM   16  C18 UNK     1      20.423  -3.324  36.881  1.00  0.00     0.049 C 
HETATM   17  C15 UNK     1      20.054  -2.405  34.049  1.00  0.00     0.017 A 
HETATM   18  C16 UNK     1      19.876  -1.970  32.731  1.00  0.00     0.030 A 
ENDBRANCH   5   7
ENDBRANCH   3   5
ENDBRANCH   1   3
BRANCH   1  19
HETATM   19  C3  UNK     1      18.621   2.368  29.947  1.00  0.00     0.123 C 
BRANCH  19  20
HETATM   20  C2  UNK     1      18.401   3.338  31.103  1.00  0.00     0.041 C 
BRANCH  20  21
HETATM   21  C1  UNK     1      19.065   4.694  30.861  1.00  0.00     0.152 C 
BRANCH  21  22
HETATM   22  N1  UNK     1      18.785   5.640  31.937  1.00  0.00    -0.272 N 
HETATM   23  C4  UNK     1      19.699   6.353  32.640  1.00  0.00     0.051 A 
HETATM   24  C7  UNK     1      21.152   6.264  32.399  1.00  0.00     0.072 C 
HETATM   25  C5  UNK     1      18.970   7.095  33.535  1.00  0.00     0.093 A 
HETATM   26 Cl1  UNK     1      19.526   8.193  34.697  1.00  0.00    -0.080 Cl
HETATM   27  C6  UNK     1      17.632   6.745  33.277  1.00  0.00     0.184 A 
HETATM   28  N2  UNK     1      17.514   5.849  32.293  1.00  0.00    -0.166 NA
BRANCH  27  29
HETATM   29  C12 UNK     1      16.416   7.241  33.946  1.00  0.00     0.438 C 
HETATM   30  F1  UNK     1      16.308   6.812  35.235  1.00  0.00    -0.164 F 
HETATM   31  F2  UNK     1      16.351   8.601  34.003  1.00  0.00    -0.164 F 
HETATM   32  F3  UNK     1      15.282   6.831  33.312  1.00  0.00    -0.164 F 
ENDBRANCH  27  29
ENDBRANCH  21  22
ENDBRANCH  20  21
ENDBRANCH  19  20
ENDBRANCH   1  19
TORSDOF 8
ENDMDL
MODEL 3
REMARK VINA RESULT:      -9.5      6.815     11.426
REMARK  8 active torsions:
REMARK  status: ('A' for Active; 'I' for Inactive)
REMARK    1  A    between atoms: C1_12  and  N1_8 
REMARK    2  A    between atoms: C11_22  and  N3_10 
REMARK    3  A    between atoms: C3_14  and  N3_10 
REMARK    4  A    between atoms: C11_22  and  N4_11 
REMARK    5  A    between atoms: C9_20  and  N4_11 
REMARK    6  A    between atoms: C1_12  and  C2_13 
REMARK    7  A    between atoms: C2_13  and  C3_14 
REMARK    8  A    between atoms: C12_23  and  C6_17 
ROOT
HETATM    1  N3  UNK     1      19.670   1.356  30.534  1.00  0.00    -0.367 N 
HETATM    2  H7  UNK     1      19.680   1.375  31.549  1.00  0.00     0.161 HD
ENDROOT
BRANCH   1   3
HETATM    3  C11 UNK     1      19.015   2.407  29.904  1.00  0.00     0.172 C 
HETATM    4  S1  UNK     1      17.840   2.002  28.774  1.00  0.00    -0.041 SA
BRANCH   3   5
HETATM    5  N4  UNK     1      19.449   3.693  30.271  1.00  0.00    -0.333 N 
HETATM    6  H12 UNK     1      20.000   4.157  29.556  1.00  0.00     0.168 HD
BRANCH   5   7
HETATM    7  C9  UNK     1      19.039   4.579  31.268  1.00  0.00     0.036 A 
HETATM    8  C14 UNK     1      19.895   5.584  31.705  1.00  0.00     0.067 A 
HETATM    9  C10 UNK     1      19.464   6.460  32.702  1.00  0.00     0.092 A 
HETATM   10  O1  UNK     1      20.376   7.457  33.103  1.00  0.00    -0.275 OA
HETATM   11  C8  UNK     1      18.199   6.366  33.281  1.00  0.00     0.004 A 
HETATM   12  C19 UNK     1      20.055   8.381  34.085  1.00  0.00     0.288 A 
HETATM   13  C17 UNK     1      18.716   8.269  34.686  1.00  0.00     0.090 A 
HETATM   14  O2  UNK     1      20.840   9.253  34.441  1.00  0.00    -0.260 OA
HETATM   15  C13 UNK     1      17.828   7.331  34.326  1.00  0.00    -0.043 A 
HETATM   16  C18 UNK     1      16.474   7.256  34.968  1.00  0.00     0.049 C 
HETATM   17  C15 UNK     1      17.351   5.346  32.827  1.00  0.00     0.017 A 
HETATM   18  C16 UNK     1      17.768   4.460  31.827  1.00  0.00     0.030 A 
ENDBRANCH   5   7
ENDBRANCH   3   5
ENDBRANCH   1   3
BRANCH   1  19
HETATM   19  C3  UNK     1      20.326   0.228  29.900  1.00  0.00     0.123 C 
BRANCH  19  20
HETATM   20  C2  UNK     1      20.761  -0.831  30.907  1.00  0.00     0.041 C 
BRANCH  20  21
HETATM   21  C1  UNK     1      19.588  -1.672  31.412  1.00  0.00     0.152 C 
BRANCH  21  22
HETATM   22  N1  UNK     1      19.161  -1.269  32.749  1.00  0.00    -0.272 N 
HETATM   23  C4  UNK     1      19.531  -1.845  33.919  1.00  0.00     0.051 A 
HETATM   24  C7  UNK     1      20.449  -2.996  33.999  1.00  0.00     0.072 C 
HETATM   25  C5  UNK     1      18.881  -1.131  34.896  1.00  0.00     0.093 A 
HETATM   26 Cl1  UNK     1      18.930  -1.351  36.573  1.00  0.00    -0.080 Cl
HETATM   27  C6  UNK     1      18.152  -0.154  34.192  1.00  0.00     0.184 A 
HETATM   28  N2  UNK     1      18.322  -0.236  32.870  1.00  0.00    -0.166 NA
BRANCH  27  29
HETATM   29  C12 UNK     1      17.269   0.892  34.740  1.00  0.00     0.438 C 
HETATM   30  F1  UNK     1      15.947   0.599  34.595  1.00  0.00    -0.164 F 
HETATM   31  F2  UNK     1      17.456   1.108  36.073  1.00  0.00    -0.164 F 
HETATM   32  F3  UNK     1      17.463   2.093  34.129  1.00  0.00    -0.164 F 
ENDBRANCH  27  29
ENDBRANCH  21  22
ENDBRANCH  20  21
ENDBRANCH  19  20
ENDBRANCH   1  19
TORSDOF 8
ENDMDL
MODEL 4
REMARK VINA RESULT:      -9.4      1.299      1.988
REMARK  8 active torsions:
REMARK  status: ('A' for Active; 'I' for Inactive)
REMARK    1  A    between atoms: C1_12  and  N1_8 
REMARK    2  A    between atoms: C11_22  and  N3_10 
REMARK    3  A    between atoms: C3_14  and  N3_10 
REMARK    4  A    between atoms: C11_22  and  N4_11 
REMARK    5  A    between atoms: C9_20  and  N4_11 
REMARK    6  A    between atoms: C1_12  and  C2_13 
REMARK    7  A    between atoms: C2_13  and  C3_14 
REMARK    8  A    between atoms: C12_23  and  C6_17 
ROOT
HETATM    1  N3  UNK     1      18.599  -2.754  36.088  1.00  0.00    -0.367 N 
HETATM    2  H7  UNK     1      17.683  -3.050  35.765  1.00  0.00     0.161 HD
ENDROOT
BRANCH   1   3
HETATM    3  C11 UNK     1      19.500  -3.766  36.395  1.00  0.00     0.172 C 
HETATM    4  S1  UNK     1      20.779  -3.363  37.407  1.00  0.00    -0.041 SA
BRANCH   3   5
HETATM    5  N4  UNK     1      19.246  -5.006  35.782  1.00  0.00    -0.333 N 
HETATM    6  H12 UNK     1      19.077  -4.940  34.783  1.00  0.00     0.168 HD
BRANCH   5   7
HETATM    7  C9  UNK     1      19.471  -6.322  36.185  1.00  0.00     0.036 A 
HETATM    8  C14 UNK     1      20.403  -7.108  35.516  1.00  0.00     0.067 A 
HETATM    9  C10 UNK     1      20.614  -8.422  35.937  1.00  0.00     0.092 A 
HETATM   10  O1  UNK     1      21.571  -9.169  35.220  1.00  0.00    -0.275 OA
HETATM   11  C8  UNK     1      19.920  -8.981  37.011  1.00  0.00     0.004 A 
HETATM   12  C19 UNK     1      21.861 -10.483  35.551  1.00  0.00     0.288 A 
HETATM   13  C17 UNK     1      21.121 -11.058  36.686  1.00  0.00     0.090 A 
HETATM   14  O2  UNK     1      22.691 -11.141  34.935  1.00  0.00    -0.260 OA
HETATM   15  C13 UNK     1      20.205 -10.373  37.385  1.00  0.00    -0.043 A 
HETATM   16  C18 UNK     1      19.475 -11.003  38.536  1.00  0.00     0.049 C 
HETATM   17  C15 UNK     1      18.985  -8.173  37.672  1.00  0.00     0.017 A 
HETATM   18  C16 UNK     1      18.763  -6.853  37.262  1.00  0.00     0.030 A 
ENDBRANCH   5   7
ENDBRANCH   3   5
ENDBRANCH   1   3
BRANCH   1  19
HETATM   19  C3  UNK     1      18.818  -1.324  36.196  1.00  0.00     0.123 C 
BRANCH  19  20
HETATM   20  C2  UNK     1      18.600  -0.603  34.870  1.00  0.00     0.041 C 
BRANCH  20  21
HETATM   21  C1  UNK     1      19.080  -1.425  33.673  1.00  0.00     0.152 C 
BRANCH  21  22
HETATM   22  N1  UNK     1      19.186  -0.617  32.461  1.00  0.00    -0.272 N 
HETATM   23  C4  UNK     1      19.798  -0.975  31.306  1.00  0.00     0.051 A 
HETATM   24  C7  UNK     1      20.460  -2.279  31.113  1.00  0.00     0.072 C 
HETATM   25  C5  UNK     1      19.641   0.099  30.465  1.00  0.00     0.093 A 
HETATM   26 Cl1  UNK     1      20.179   0.277  28.870  1.00  0.00    -0.080 Cl
HETATM   27  C6  UNK     1      18.922   1.040  31.225  1.00  0.00     0.184 A 
HETATM   28  N2  UNK     1      18.640   0.603  32.455  1.00  0.00    -0.166 NA
BRANCH  27  29
HETATM   29  C12 UNK     1      18.475   2.385  30.820  1.00  0.00     0.438 C 
HETATM   30  F1  UNK     1      19.492   3.167  30.361  1.00  0.00    -0.164 F 
HETATM   31  F2  UNK     1      17.547   2.364  29.821  1.00  0.00    -0.164 F 
HETATM   32  F3  UNK     1      17.907   3.065  31.853  1.00  0.00    -0.164 F 
ENDBRANCH  27  29
ENDBRANCH  21  22
ENDBRANCH  20  21
ENDBRANCH  19  20
ENDBRANCH   1  19
TORSDOF 8
ENDMDL
MODEL 5
REMARK VINA RESULT:      -9.4      6.691     11.493
REMARK  8 active torsions:
REMARK  status: ('A' for Active; 'I' for Inactive)
REMARK    1  A    between atoms: C1_12  and  N1_8 
REMARK    2  A    between atoms: C11_22  and  N3_10 
REMARK    3  A    between atoms: C3_14  and  N3_10 
REMARK    4  A    between atoms: C11_22  and  N4_11 
REMARK    5  A    between atoms: C9_20  and  N4_11 
REMARK    6  A    between atoms: C1_12  and  C2_13 
REMARK    7  A    between atoms: C2_13  and  C3_14 
REMARK    8  A    between atoms: C12_23  and  C6_17 
ROOT
HETATM    1  N3  UNK     1      19.281   1.624  31.022  1.00  0.00    -0.367 N 
HETATM    2  H7  UNK     1      19.084   1.934  31.969  1.00  0.00     0.161 HD
ENDROOT
BRANCH   1   3
HETATM    3  C11 UNK     1      18.905   2.488  30.001  1.00  0.00     0.172 C 
HETATM    4  S1  UNK     1      17.945   1.849  28.780  1.00  0.00    -0.041 SA
BRANCH   3   5
HETATM    5  N4  UNK     1      19.413   3.796  30.101  1.00  0.00    -0.333 N 
HETATM    6  H12 UNK     1      19.783   4.158  29.228  1.00  0.00     0.168 HD
BRANCH   5   7
HETATM    7  C9  UNK     1      19.246   4.804  31.051  1.00  0.00     0.036 A 
HETATM    8  C14 UNK     1      17.985   5.071  31.572  1.00  0.00     0.067 A 
HETATM    9  C10 UNK     1      17.841   6.082  32.523  1.00  0.00     0.092 A 
HETATM   10  O1  UNK     1      16.539   6.307  33.014  1.00  0.00    -0.275 OA
HETATM   11  C8  UNK     1      18.922   6.841  32.974  1.00  0.00     0.004 A 
HETATM   12  C19 UNK     1      16.279   7.285  33.961  1.00  0.00     0.288 A 
HETATM   13  C17 UNK     1      17.430   8.077  34.426  1.00  0.00     0.090 A 
HETATM   14  O2  UNK     1      15.151   7.488  34.394  1.00  0.00    -0.260 OA
HETATM   15  C13 UNK     1      18.679   7.887  33.977  1.00  0.00    -0.043 A 
HETATM   16  C18 UNK     1      19.820   8.720  34.482  1.00  0.00     0.049 C 
HETATM   17  C15 UNK     1      20.184   6.556  32.436  1.00  0.00     0.017 A 
HETATM   18  C16 UNK     1      20.345   5.545  31.482  1.00  0.00     0.030 A 
ENDBRANCH   5   7
ENDBRANCH   3   5
ENDBRANCH   1   3
BRANCH   1  19
HETATM   19  C3  UNK     1      19.908   0.324  30.881  1.00  0.00     0.123 C 
BRANCH  19  20
HETATM   20  C2  UNK     1      19.033  -0.802  31.422  1.00  0.00     0.041 C 
BRANCH  20  21
HETATM   21  C1  UNK     1      19.693  -1.549  32.581  1.00  0.00     0.152 C 
BRANCH  21  22
HETATM   22  N1  UNK     1      19.045  -1.261  33.858  1.00  0.00    -0.272 N 
HETATM   23  C4  UNK     1      19.343  -1.821  35.055  1.00  0.00     0.051 A 
HETATM   24  C7  UNK     1      20.402  -2.832  35.234  1.00  0.00     0.072 C 
HETATM   25  C5  UNK     1      18.477  -1.244  35.951  1.00  0.00     0.093 A 
HETATM   26 Cl1  UNK     1      18.342  -1.516  37.616  1.00  0.00    -0.080 Cl
HETATM   27  C6  UNK     1      17.708  -0.355  35.175  1.00  0.00     0.184 A 
HETATM   28  N2  UNK     1      18.055  -0.363  33.886  1.00  0.00    -0.166 NA
BRANCH  27  29
HETATM   29  C12 UNK     1      16.620   0.533  35.621  1.00  0.00     0.438 C 
HETATM   30  F1  UNK     1      15.958   0.054  36.712  1.00  0.00    -0.164 F 
HETATM   31  F2  UNK     1      17.051   1.778  35.968  1.00  0.00    -0.164 F 
HETATM   32  F3  UNK     1      15.679   0.711  34.652  1.00  0.00    -0.164 F 
ENDBRANCH  27  29
ENDBRANCH  21  22
ENDBRANCH  20  21
ENDBRANCH  19  20
ENDBRANCH   1  19
TORSDOF 8
ENDMDL
MODEL 6
REMARK VINA RESULT:      -9.3      5.030      7.406
REMARK  8 active torsions:
REMARK  status: ('A' for Active; 'I' for Inactive)
REMARK    1  A    between atoms: C1_12  and  N1_8 
REMARK    2  A    between atoms: C11_22  and  N3_10 
REMARK    3  A    between atoms: C3_14  and  N3_10 
REMARK    4  A    between atoms: C11_22  and  N4_11 
REMARK    5  A    between atoms: C9_20  and  N4_11 
REMARK    6  A    between atoms: C1_12  and  C2_13 
REMARK    7  A    between atoms: C2_13  and  C3_14 
REMARK    8  A    between atoms: C12_23  and  C6_17 
ROOT
HETATM    1  N3  UNK     1      19.583   1.571  30.095  1.00  0.00    -0.367 N 
HETATM    2  H7  UNK     1      20.464   2.032  29.890  1.00  0.00     0.161 HD
ENDROOT
BRANCH   1   3
HETATM    3  C11 UNK     1      19.649   0.212  30.376  1.00  0.00     0.172 C 
HETATM    4  S1  UNK     1      20.844  -0.669  29.590  1.00  0.00    -0.041 SA
BRANCH   3   5
HETATM    5  N4  UNK     1      18.672  -0.267  31.268  1.00  0.00    -0.333 N 
HETATM    6  H12 UNK     1      17.862  -0.671  30.807  1.00  0.00     0.168 HD
BRANCH   5   7
HETATM    7  C9  UNK     1      18.706  -0.580  32.627  1.00  0.00     0.036 A 
HETATM    8  C14 UNK     1      19.444  -1.670  33.075  1.00  0.00     0.067 A 
HETATM    9  C10 UNK     1      19.465  -1.964  34.439  1.00  0.00     0.092 A 
HETATM   10  O1  UNK     1      20.231  -3.080  34.833  1.00  0.00    -0.275 OA
HETATM   11  C8  UNK     1      18.769  -1.201  35.377  1.00  0.00     0.004 A 
HETATM   12  C19 UNK     1      20.323  -3.464  36.161  1.00  0.00     0.288 A 
HETATM   13  C17 UNK     1      19.583  -2.649  37.138  1.00  0.00     0.090 A 
HETATM   14  O2  UNK     1      20.987  -4.432  36.514  1.00  0.00    -0.260 OA
HETATM   15  C13 UNK     1      18.847  -1.583  36.794  1.00  0.00    -0.043 A 
HETATM   16  C18 UNK     1      18.109  -0.782  37.827  1.00  0.00     0.049 C 
HETATM   17  C15 UNK     1      18.031  -0.107  34.905  1.00  0.00     0.017 A 
HETATM   18  C16 UNK     1      18.000   0.201  33.540  1.00  0.00     0.030 A 
ENDBRANCH   5   7
ENDBRANCH   3   5
ENDBRANCH   1   3
BRANCH   1  19
HETATM   19  C3  UNK     1      18.391   2.397  30.047  1.00  0.00     0.123 C 
BRANCH  19  20
HETATM   20  C2  UNK     1      18.313   3.369  31.220  1.00  0.00     0.041 C 
BRANCH  20  21
HETATM   21  C1  UNK     1      19.016   4.695  30.927  1.00  0.00     0.152 C 
BRANCH  21  22
HETATM   22  N1  UNK     1      18.784   5.681  31.979  1.00  0.00    -0.272 N 
HETATM   23  C4  UNK     1      19.730   6.395  32.636  1.00  0.00     0.051 A 
HETATM   24  C7  UNK     1      21.174   6.265  32.363  1.00  0.00     0.072 C 
HETATM   25  C5  UNK     1      19.040   7.182  33.523  1.00  0.00     0.093 A 
HETATM   26 Cl1  UNK     1      19.648   8.304  34.635  1.00  0.00    -0.080 Cl
HETATM   27  C6  UNK     1      17.688   6.854  33.308  1.00  0.00     0.184 A 
HETATM   28  N2  UNK     1      17.526   5.930  32.358  1.00  0.00    -0.166 NA
BRANCH  27  29
HETATM   29  C12 UNK     1      16.500   7.399  33.990  1.00  0.00     0.438 C 
HETATM   30  F1  UNK     1      16.375   8.747  33.841  1.00  0.00    -0.164 F 
HETATM   31  F2  UNK     1      15.329   6.867  33.536  1.00  0.00    -0.164 F 
HETATM   32  F3  UNK     1      16.530   7.164  35.331  1.00  0.00    -0.164 F 
ENDBRANCH  27  29
ENDBRANCH  21  22
ENDBRANCH  20  21
ENDBRANCH  19  20
ENDBRANCH   1  19
TORSDOF 8
ENDMDL
MODEL 7
REMARK VINA RESULT:      -9.2      2.544      3.391
REMARK  8 active torsions:
REMARK  status: ('A' for Active; 'I' for Inactive)
REMARK    1  A    between atoms: C1_12  and  N1_8 
REMARK    2  A    between atoms: C11_22  and  N3_10 
REMARK    3  A    between atoms: C3_14  and  N3_10 
REMARK    4  A    between atoms: C11_22  and  N4_11 
REMARK    5  A    between atoms: C9_20  and  N4_11 
REMARK    6  A    between atoms: C1_12  and  C2_13 
REMARK    7  A    between atoms: C2_13  and  C3_14 
REMARK    8  A    between atoms: C12_23  and  C6_17 
ROOT
HETATM    1  N3  UNK     1      19.161  -1.001  35.153  1.00  0.00    -0.367 N 
HETATM    2  H7  UNK     1      19.545  -1.311  34.267  1.00  0.00     0.161 HD
ENDROOT
BRANCH   1   3
HETATM    3  C11 UNK     1      18.871  -1.995  36.080  1.00  0.00     0.172 C 
HETATM    4  S1  UNK     1      17.986  -1.538  37.433  1.00  0.00    -0.041 SA
BRANCH   3   5
HETATM    5  N4  UNK     1      19.393  -3.266  35.783  1.00  0.00    -0.333 N 
HETATM    6  H12 UNK     1      19.686  -3.371  34.817  1.00  0.00     0.168 HD
BRANCH   5   7
HETATM    7  C9  UNK     1      19.871  -4.302  36.586  1.00  0.00     0.036 A 
HETATM    8  C14 UNK     1      19.176  -5.504  36.664  1.00  0.00     0.067 A 
HETATM    9  C10 UNK     1      19.673  -6.527  37.473  1.00  0.00     0.092 A 
HETATM   10  O1  UNK     1      18.925  -7.721  37.512  1.00  0.00    -0.275 OA
HETATM   11  C8  UNK     1      20.849  -6.389  38.211  1.00  0.00     0.004 A 
HETATM   12  C19 UNK     1      19.325  -8.803  38.280  1.00  0.00     0.288 A 
HETATM   13  C17 UNK     1      20.567  -8.642  39.053  1.00  0.00     0.090 A 
HETATM   14  O2  UNK     1      18.682  -9.846  38.321  1.00  0.00    -0.260 OA
HETATM   15  C13 UNK     1      21.299  -7.518  39.037  1.00  0.00    -0.043 A 
HETATM   16  C18 UNK     1      22.560  -7.401  39.843  1.00  0.00     0.049 C 
HETATM   17  C15 UNK     1      21.535  -5.170  38.119  1.00  0.00     0.017 A 
HETATM   18  C16 UNK     1      21.050  -4.135  37.312  1.00  0.00     0.030 A 
ENDBRANCH   5   7
ENDBRANCH   3   5
ENDBRANCH   1   3
BRANCH   1  19
HETATM   19  C3  UNK     1      18.957   0.427  35.309  1.00  0.00     0.123 C 
BRANCH  19  20
HETATM   20  C2  UNK     1      17.929   0.976  34.326  1.00  0.00     0.041 C 
BRANCH  20  21
HETATM   21  C1  UNK     1      17.957   2.503  34.246  1.00  0.00     0.152 C 
BRANCH  21  22
HETATM   22  N1  UNK     1      18.184   2.975  32.882  1.00  0.00    -0.272 N 
HETATM   23  C4  UNK     1      18.450   4.250  32.506  1.00  0.00     0.051 A 
HETATM   24  C7  UNK     1      18.551   5.370  33.461  1.00  0.00     0.072 C 
HETATM   25  C5  UNK     1      18.585   4.204  31.141  1.00  0.00     0.093 A 
HETATM   26 Cl1  UNK     1      18.925   5.471  30.070  1.00  0.00    -0.080 Cl
HETATM   27  C6  UNK     1      18.378   2.852  30.811  1.00  0.00     0.184 A 
HETATM   28  N2  UNK     1      18.131   2.092  31.881  1.00  0.00    -0.166 NA
BRANCH  27  29
HETATM   29  C12 UNK     1      18.405   2.227  29.476  1.00  0.00     0.438 C 
HETATM   30  F1  UNK     1      19.598   1.629  29.195  1.00  0.00    -0.164 F 
HETATM   31  F2  UNK     1      17.460   1.258  29.317  1.00  0.00    -0.164 F 
HETATM   32  F3  UNK     1      18.191   3.135  28.484  1.00  0.00    -0.164 F 
ENDBRANCH  27  29
ENDBRANCH  21  22
ENDBRANCH  20  21
ENDBRANCH  19  20
ENDBRANCH   1  19
TORSDOF 8
ENDMDL
MODEL 8
REMARK VINA RESULT:      -9.2      6.903     11.793
REMARK  8 active torsions:
REMARK  status: ('A' for Active; 'I' for Inactive)
REMARK    1  A    between atoms: C1_12  and  N1_8 
REMARK    2  A    between atoms: C11_22  and  N3_10 
REMARK    3  A    between atoms: C3_14  and  N3_10 
REMARK    4  A    between atoms: C11_22  and  N4_11 
REMARK    5  A    between atoms: C9_20  and  N4_11 
REMARK    6  A    between atoms: C1_12  and  C2_13 
REMARK    7  A    between atoms: C2_13  and  C3_14 
REMARK    8  A    between atoms: C12_23  and  C6_17 
ROOT
HETATM    1  N3  UNK     1      19.574   1.753  30.769  1.00  0.00    -0.367 N 
HETATM    2  H7  UNK     1      19.888   2.210  31.619  1.00  0.00     0.161 HD
ENDROOT
BRANCH   1   3
HETATM    3  C11 UNK     1      18.957   2.564  29.825  1.00  0.00     0.172 C 
HETATM    4  S1  UNK     1      17.938   1.809  28.723  1.00  0.00    -0.041 SA
BRANCH   3   5
HETATM    5  N4  UNK     1      19.296   3.928  29.889  1.00  0.00    -0.333 N 
HETATM    6  H12 UNK     1      19.439   4.356  28.979  1.00  0.00     0.168 HD
BRANCH   5   7
HETATM    7  C9  UNK     1      19.182   4.883  30.900  1.00  0.00     0.036 A 
HETATM    8  C14 UNK     1      17.947   5.134  31.488  1.00  0.00     0.067 A 
HETATM    9  C10 UNK     1      17.857   6.092  32.499  1.00  0.00     0.092 A 
HETATM   10  O1  UNK     1      16.580   6.303  33.056  1.00  0.00    -0.275 OA
HETATM   11  C8  UNK     1      18.965   6.813  32.943  1.00  0.00     0.004 A 
HETATM   12  C19 UNK     1      16.373   7.230  34.066  1.00  0.00     0.288 A 
HETATM   13  C17 UNK     1      17.552   7.982  34.525  1.00  0.00     0.090 A 
HETATM   14  O2  UNK     1      15.267   7.420  34.558  1.00  0.00    -0.260 OA
HETATM   15  C13 UNK     1      18.778   7.804  34.012  1.00  0.00    -0.043 A 
HETATM   16  C18 UNK     1      19.951   8.596  34.513  1.00  0.00     0.049 C 
HETATM   17  C15 UNK     1      20.201   6.546  32.338  1.00  0.00     0.017 A 
HETATM   18  C16 UNK     1      20.308   5.587  31.323  1.00  0.00     0.030 A 
ENDBRANCH   5   7
ENDBRANCH   3   5
ENDBRANCH   1   3
BRANCH   1  19
HETATM   19  C3  UNK     1      19.802   0.323  30.678  1.00  0.00     0.123 C 
BRANCH  19  20
HETATM   20  C2  UNK     1      19.111  -0.446  31.799  1.00  0.00     0.041 C 
BRANCH  20  21
HETATM   21  C1  UNK     1      18.706   0.459  32.964  1.00  0.00     0.152 C 
BRANCH  21  22
HETATM   22  N1  UNK     1      18.748  -0.245  34.243  1.00  0.00    -0.272 N 
HETATM   23  C4  UNK     1      18.215   0.182  35.413  1.00  0.00     0.051 A 
HETATM   24  C7  UNK     1      17.494   1.461  35.554  1.00  0.00     0.072 C 
HETATM   25  C5  UNK     1      18.504  -0.804  36.324  1.00  0.00     0.093 A 
HETATM   26 Cl1  UNK     1      18.108  -0.872  37.969  1.00  0.00    -0.080 Cl
HETATM   27  C6  UNK     1      19.213  -1.770  35.586  1.00  0.00     0.184 A 
HETATM   28  N2  UNK     1      19.365  -1.429  34.303  1.00  0.00    -0.166 NA
BRANCH  27  29
HETATM   29  C12 UNK     1      19.773  -3.048  36.061  1.00  0.00     0.438 C 
HETATM   30  F1  UNK     1      20.833  -2.883  36.901  1.00  0.00    -0.164 F 
HETATM   31  F2  UNK     1      18.872  -3.806  36.747  1.00  0.00    -0.164 F 
HETATM   32  F3  UNK     1      20.217  -3.823  35.033  1.00  0.00    -0.164 F 
ENDBRANCH  27  29
ENDBRANCH  21  22
ENDBRANCH  20  21
ENDBRANCH  19  20
ENDBRANCH   1  19
TORSDOF 8
ENDMDL
MODEL 9
REMARK VINA RESULT:      -9.1      6.549     10.533
REMARK  8 active torsions:
REMARK  status: ('A' for Active; 'I' for Inactive)
REMARK    1  A    between atoms: C1_12  and  N1_8 
REMARK    2  A    between atoms: C11_22  and  N3_10 
REMARK    3  A    between atoms: C3_14  and  N3_10 
REMARK    4  A    between atoms: C11_22  and  N4_11 
REMARK    5  A    between atoms: C9_20  and  N4_11 
REMARK    6  A    between atoms: C1_12  and  C2_13 
REMARK    7  A    between atoms: C2_13  and  C3_14 
REMARK    8  A    between atoms: C12_23  and  C6_17 
ROOT
HETATM    1  N3  UNK     1      19.176  -2.482  37.407  1.00  0.00    -0.367 N 
HETATM    2  H7  UNK     1      18.739  -2.756  38.281  1.00  0.00     0.161 HD
ENDROOT
BRANCH   1   3
HETATM    3  C11 UNK     1      18.491  -1.547  36.642  1.00  0.00     0.172 C 
HETATM    4  S1  UNK     1      17.866  -0.214  37.451  1.00  0.00    -0.041 SA
BRANCH   3   5
HETATM    5  N4  UNK     1      18.374  -1.856  35.275  1.00  0.00    -0.333 N 
HETATM    6  H12 UNK     1      17.836  -2.697  35.091  1.00  0.00     0.168 HD
BRANCH   5   7
HETATM    7  C9  UNK     1      18.576  -1.105  34.116  1.00  0.00     0.036 A 
HETATM    8  C14 UNK     1      18.152   0.218  34.059  1.00  0.00     0.067 A 
HETATM    9  C10 UNK     1      18.365   0.951  32.890  1.00  0.00     0.092 A 
HETATM   10  O1  UNK     1      17.914   2.286  32.891  1.00  0.00    -0.275 OA
HETATM   11  C8  UNK     1      18.991   0.402  31.770  1.00  0.00     0.004 A 
HETATM   12  C19 UNK     1      18.073   3.106  31.786  1.00  0.00     0.288 A 
HETATM   13  C17 UNK     1      18.735   2.514  30.612  1.00  0.00     0.090 A 
HETATM   14  O2  UNK     1      17.685   4.269  31.776  1.00  0.00    -0.260 OA
HETATM   15  C13 UNK     1      19.174   1.247  30.581  1.00  0.00    -0.043 A 
HETATM   16  C18 UNK     1      19.843   0.687  29.360  1.00  0.00     0.049 C 
HETATM   17  C15 UNK     1      19.411  -0.932  31.848  1.00  0.00     0.017 A 
HETATM   18  C16 UNK     1      19.204  -1.681  33.013  1.00  0.00     0.030 A 
ENDBRANCH   5   7
ENDBRANCH   3   5
ENDBRANCH   1   3
BRANCH   1  19
HETATM   19  C3  UNK     1      20.439  -3.118  37.085  1.00  0.00     0.123 C 
BRANCH  19  20
HETATM   20  C2  UNK     1      20.294  -4.623  36.882  1.00  0.00     0.041 C 
BRANCH  20  21
HETATM   21  C1  UNK     1      21.361  -5.419  37.635  1.00  0.00     0.152 C 
BRANCH  21  22
HETATM   22  N1  UNK     1      21.202  -6.859  37.450  1.00  0.00    -0.272 N 
HETATM   23  C4  UNK     1      20.575  -7.714  38.294  1.00  0.00     0.051 A 
HETATM   24  C7  UNK     1      19.946  -7.286  39.558  1.00  0.00     0.072 C 
HETATM   25  C5  UNK     1      20.681  -8.949  37.704  1.00  0.00     0.093 A 
HETATM   26 Cl1  UNK     1      20.098 -10.438  38.258  1.00  0.00    -0.080 Cl
HETATM   27  C6  UNK     1      21.391  -8.710  36.512  1.00  0.00     0.184 A 
HETATM   28  N2  UNK     1      21.713  -7.424  36.352  1.00  0.00    -0.166 NA
BRANCH  27  29
HETATM   29  C12 UNK     1      21.790  -9.685  35.480  1.00  0.00     0.438 C 
HETATM   30  F1  UNK     1      21.032 -10.817  35.499  1.00  0.00    -0.164 F 
HETATM   31  F2  UNK     1      21.692  -9.195  34.212  1.00  0.00    -0.164 F 
HETATM   32  F3  UNK     1      23.081 -10.088  35.634  1.00  0.00    -0.164 F 
ENDBRANCH  27  29
ENDBRANCH  21  22
ENDBRANCH  20  21
ENDBRANCH  19  20
ENDBRANCH   1  19
TORSDOF 8
ENDMDL
MODEL 10
REMARK VINA RESULT:      -9.0      2.239      2.660
REMARK  8 active torsions:
REMARK  status: ('A' for Active; 'I' for Inactive)
REMARK    1  A    between atoms: C1_12  and  N1_8 
REMARK    2  A    between atoms: C11_22  and  N3_10 
REMARK    3  A    between atoms: C3_14  and  N3_10 
REMARK    4  A    between atoms: C11_22  and  N4_11 
REMARK    5  A    between atoms: C9_20  and  N4_11 
REMARK    6  A    between atoms: C1_12  and  C2_13 
REMARK    7  A    between atoms: C2_13  and  C3_14 
REMARK    8  A    between atoms: C12_23  and  C6_17 
ROOT
HETATM    1  N3  UNK     1      17.418  -1.753  35.555  1.00  0.00    -0.367 N 
HETATM    2  H7  UNK     1      16.973  -2.428  34.942  1.00  0.00     0.161 HD
ENDROOT
BRANCH   1   3
HETATM    3  C11 UNK     1      18.282  -2.266  36.514  1.00  0.00     0.172 C 
HETATM    4  S1  UNK     1      18.302  -1.499  38.008  1.00  0.00    -0.041 SA
BRANCH   3   5
HETATM    5  N4  UNK     1      19.067  -3.356  36.096  1.00  0.00    -0.333 N 
HETATM    6  H12 UNK     1      19.656  -3.151  35.294  1.00  0.00     0.168 HD
BRANCH   5   7
HETATM    7  C9  UNK     1      19.435  -4.549  36.718  1.00  0.00     0.036 A 
HETATM    8  C14 UNK     1      20.741  -4.735  37.156  1.00  0.00     0.067 A 
HETATM    9  C10 UNK     1      21.087  -5.936  37.778  1.00  0.00     0.092 A 
HETATM   10  O1  UNK     1      22.425  -6.066  38.200  1.00  0.00    -0.275 OA
HETATM   11  C8  UNK     1      20.165  -6.964  37.977  1.00  0.00     0.004 A 
HETATM   12  C19 UNK     1      22.879  -7.215  38.828  1.00  0.00     0.288 A 
HETATM   13  C17 UNK     1      21.895  -8.290  39.032  1.00  0.00     0.090 A 
HETATM   14  O2  UNK     1      24.041  -7.338  39.200  1.00  0.00    -0.260 OA
HETATM   15  C13 UNK     1      20.616  -8.196  38.640  1.00  0.00    -0.043 A 
HETATM   16  C18 UNK     1      19.649  -9.320  38.870  1.00  0.00     0.049 C 
HETATM   17  C15 UNK     1      18.854  -6.757  37.529  1.00  0.00     0.017 A 
HETATM   18  C16 UNK     1      18.491  -5.558  36.904  1.00  0.00     0.030 A 
ENDBRANCH   5   7
ENDBRANCH   3   5
ENDBRANCH   1   3
BRANCH   1  19
HETATM   19  C3  UNK     1      17.071  -0.360  35.347  1.00  0.00     0.123 C 
BRANCH  19  20
HETATM   20  C2  UNK     1      17.911   0.289  34.252  1.00  0.00     0.041 C 
BRANCH  20  21
HETATM   21  C1  UNK     1      18.864  -0.703  33.584  1.00  0.00     0.152 C 
BRANCH  21  22
HETATM   22  N1  UNK     1      19.149  -0.339  32.198  1.00  0.00    -0.272 N 
HETATM   23  C4  UNK     1      19.977  -0.994  31.349  1.00  0.00     0.051 A 
HETATM   24  C7  UNK     1      20.726  -2.208  31.725  1.00  0.00     0.072 C 
HETATM   25  C5  UNK     1      19.924  -0.287  30.173  1.00  0.00     0.093 A 
HETATM   26 Cl1  UNK     1      20.732  -0.594  28.718  1.00  0.00    -0.080 Cl
HETATM   27  C6  UNK     1      19.033   0.771  30.438  1.00  0.00     0.184 A 
HETATM   28  N2  UNK     1      18.554   0.742  31.684  1.00  0.00    -0.166 NA
BRANCH  27  29
HETATM   29  C12 UNK     1      18.601   1.846  29.527  1.00  0.00     0.438 C 
HETATM   30  F1  UNK     1      19.497   2.870  29.453  1.00  0.00    -0.164 F 
HETATM   31  F2  UNK     1      18.418   1.422  28.244  1.00  0.00    -0.164 F 
HETATM   32  F3  UNK     1      17.420   2.400  29.916  1.00  0.00    -0.164 F 
ENDBRANCH  27  29
ENDBRANCH  21  22
ENDBRANCH  20  21
ENDBRANCH  19  20
ENDBRANCH   1  19
TORSDOF 8
ENDMDL
