MODEL 1
REMARK VINA RESULT:     -10.1      0.000      0.000
REMARK  4 active torsions:
REMARK  status: ('A' for Active; 'I' for Inactive)
REMARK    1  A    between atoms: C12_17  and  N1_5 
REMARK       I    between atoms: C13_18  and  N1_5 
REMARK    2  A    between atoms: C1_6  and  C11_16 
REMARK    3  A    between atoms: C11_16  and  C12_17 
REMARK    4  A    between atoms: C13_18  and  C14_19 
ROOT
HETATM    1  O1  UNK     1      17.409   3.694  31.728  1.00  0.00    -0.267 OA
HETATM    2  N1  UNK     1      18.944   4.640  30.248  1.00  0.00    -0.357 N 
HETATM    3  C13 UNK     1      18.271   3.596  30.861  1.00  0.00     0.257 C 
HETATM    4  H20 UNK     1      19.657   4.447  29.551  1.00  0.00     0.162 HD
ENDROOT
BRANCH   2   5
HETATM    5  C12 UNK     1      18.704   6.021  30.565  1.00  0.00     0.123 C 
BRANCH   5   6
HETATM    6  C11 UNK     1      19.192   6.392  31.956  1.00  0.00     0.029 C 
BRANCH   6   7
HETATM    7  C1  UNK     1      18.116   7.106  32.780  1.00  0.00    -0.038 C 
HETATM    8  C5  UNK     1      16.995   7.636  31.857  1.00  0.00     0.014 C 
HETATM    9  C2  UNK     1      15.913   8.354  32.682  1.00  0.00    -0.013 C 
HETATM   10  C8  UNK     1      15.312   7.366  33.697  1.00  0.00     0.009 C 
HETATM   11  C9  UNK     1      16.550   9.531  33.438  1.00  0.00     0.009 C 
HETATM   12  C3  UNK     1      16.411   6.843  34.637  1.00  0.00    -0.013 C 
HETATM   13  C10 UNK     1      17.047   8.028  35.383  1.00  0.00     0.009 C 
HETATM   14  C6  UNK     1      17.491   6.130  33.806  1.00  0.00     0.014 C 
HETATM   15  C4  UNK     1      17.655   9.019  34.377  1.00  0.00    -0.013 C 
HETATM   16  C7  UNK     1      18.732   8.300  33.547  1.00  0.00     0.014 C 
ENDBRANCH   6   7
ENDBRANCH   5   6
ENDBRANCH   2   5
BRANCH   3  17
HETATM   17  C14 UNK     1      18.689   2.272  30.365  1.00  0.00     0.108 A 
HETATM   18  C15 UNK     1      19.205   1.436  31.273  1.00  0.00     0.037 A 
HETATM   19  C17 UNK     1      19.646   0.107  30.879  1.00  0.00     0.001 A 
HETATM   20  C19 UNK     1      20.191  -0.799  31.791  1.00  0.00     0.038 A 
HETATM   21  C18 UNK     1      19.522  -0.276  29.546  1.00  0.00     0.089 A 
HETATM   22  C21 UNK     1      20.601  -2.064  31.362  1.00  0.00     0.035 A 
HETATM   23  C22 UNK     1      20.469  -2.431  30.021  1.00  0.00     0.026 A 
HETATM   24 Cl1  UNK     1      21.271  -3.178  32.492  1.00  0.00    -0.084 Cl
HETATM   25  C20 UNK     1      19.927  -1.534  29.104  1.00  0.00     0.040 A 
HETATM   26  O2  UNK     1      18.979   0.610  28.595  1.00  0.00    -0.274 OA
HETATM   27  C16 UNK     1      18.548   1.886  28.943  1.00  0.00     0.304 A 
HETATM   28  O3  UNK     1      18.076   2.650  28.108  1.00  0.00    -0.259 OA
ENDBRANCH   3  17
TORSDOF 4
ENDMDL
MODEL 2
REMARK VINA RESULT:     -10.0      6.475     11.449
REMARK  4 active torsions:
REMARK  status: ('A' for Active; 'I' for Inactive)
REMARK    1  A    between atoms: C12_17  and  N1_5 
REMARK       I    between atoms: C13_18  and  N1_5 
REMARK    2  A    between atoms: C1_6  and  C11_16 
REMARK    3  A    between atoms: C11_16  and  C12_17 
REMARK    4  A    between atoms: C13_18  and  C14_19 
ROOT
HETATM    1  O1  UNK     1      20.484  -1.514  35.422  1.00  0.00    -0.267 OA
HETATM    2  N1  UNK     1      19.930  -3.723  34.917  1.00  0.00    -0.357 N 
HETATM    3  C13 UNK     1      20.235  -2.405  34.617  1.00  0.00     0.257 C 
HETATM    4  H20 UNK     1      19.720  -4.379  34.171  1.00  0.00     0.162 HD
ENDROOT
BRANCH   2   5
HETATM    5  C12 UNK     1      19.864  -4.226  36.261  1.00  0.00     0.123 C 
BRANCH   5   6
HETATM    6  C11 UNK     1      19.036  -5.496  36.367  1.00  0.00     0.029 C 
BRANCH   6   7
HETATM    7  C1  UNK     1      19.748  -6.593  37.164  1.00  0.00    -0.038 C 
HETATM    8  C5  UNK     1      20.368  -6.004  38.453  1.00  0.00     0.014 C 
HETATM    9  C2  UNK     1      21.084  -7.103  39.257  1.00  0.00    -0.013 C 
HETATM   10  C8  UNK     1      20.070  -8.196  39.633  1.00  0.00     0.009 C 
HETATM   11  C9  UNK     1      22.196  -7.719  38.392  1.00  0.00     0.009 C 
HETATM   12  C3  UNK     1      19.458  -8.807  38.362  1.00  0.00    -0.013 C 
HETATM   13  C10 UNK     1      20.578  -9.415  37.501  1.00  0.00     0.009 C 
HETATM   14  C6  UNK     1      18.746  -7.704  37.561  1.00  0.00     0.014 C 
HETATM   15  C4  UNK     1      21.595  -8.328  37.115  1.00  0.00    -0.013 C 
HETATM   16  C7  UNK     1      20.877  -7.226  36.317  1.00  0.00     0.014 C 
ENDBRANCH   6   7
ENDBRANCH   5   6
ENDBRANCH   2   5
BRANCH   3  17
HETATM   17  C14 UNK     1      20.244  -2.132  33.168  1.00  0.00     0.108 A 
HETATM   18  C15 UNK     1      19.675  -0.985  32.779  1.00  0.00     0.037 A 
HETATM   19  C17 UNK     1      19.635  -0.628  31.369  1.00  0.00     0.001 A 
HETATM   20  C19 UNK     1      19.051   0.557  30.917  1.00  0.00     0.038 A 
HETATM   21  C18 UNK     1      20.196  -1.497  30.439  1.00  0.00     0.089 A 
HETATM   22  C21 UNK     1      19.038   0.855  29.552  1.00  0.00     0.035 A 
HETATM   23  C22 UNK     1      19.606  -0.030  28.633  1.00  0.00     0.026 A 
HETATM   24 Cl1  UNK     1      18.319   2.318  29.000  1.00  0.00    -0.084 Cl
HETATM   25  C20 UNK     1      20.189  -1.215  29.074  1.00  0.00     0.040 A 
HETATM   26  O2  UNK     1      20.793  -2.703  30.855  1.00  0.00    -0.274 OA
HETATM   27  C16 UNK     1      20.846  -3.072  32.196  1.00  0.00     0.304 A 
HETATM   28  O3  UNK     1      21.368  -4.124  32.549  1.00  0.00    -0.259 OA
ENDBRANCH   3  17
TORSDOF 4
ENDMDL
MODEL 3
REMARK VINA RESULT:      -9.7      1.804      2.865
REMARK  4 active torsions:
REMARK  status: ('A' for Active; 'I' for Inactive)
REMARK    1  A    between atoms: C12_17  and  N1_5 
REMARK       I    between atoms: C13_18  and  N1_5 
REMARK    2  A    between atoms: C1_6  and  C11_16 
REMARK    3  A    between atoms: C11_16  and  C12_17 
REMARK    4  A    between atoms: C13_18  and  C14_19 
ROOT
HETATM    1  O1  UNK     1      18.343   1.434  28.305  1.00  0.00    -0.267 OA
HETATM    2  N1  UNK     1      19.078   2.856  30.002  1.00  0.00    -0.357 N 
HETATM    3  C13 UNK     1      18.885   1.629  29.388  1.00  0.00     0.257 C 
HETATM    4  H20 UNK     1      19.523   2.905  30.913  1.00  0.00     0.162 HD
ENDROOT
BRANCH   2   5
HETATM    5  C12 UNK     1      18.650   4.099  29.421  1.00  0.00     0.123 C 
BRANCH   5   6
HETATM    6  C11 UNK     1      19.493   5.277  29.884  1.00  0.00     0.029 C 
BRANCH   6   7
HETATM    7  C1  UNK     1      19.084   5.779  31.271  1.00  0.00    -0.038 C 
HETATM    8  C5  UNK     1      18.081   6.950  31.146  1.00  0.00     0.014 C 
HETATM    9  C2  UNK     1      17.668   7.456  32.538  1.00  0.00    -0.013 C 
HETATM   10  C8  UNK     1      17.012   6.306  33.321  1.00  0.00     0.009 C 
HETATM   11  C9  UNK     1      18.918   7.934  33.295  1.00  0.00     0.009 C 
HETATM   12  C3  UNK     1      18.002   5.140  33.473  1.00  0.00    -0.013 C 
HETATM   13  C10 UNK     1      19.251   5.629  34.224  1.00  0.00     0.009 C 
HETATM   14  C6  UNK     1      18.414   4.640  32.077  1.00  0.00     0.014 C 
HETATM   15  C4  UNK     1      19.918   6.776  33.447  1.00  0.00    -0.013 C 
HETATM   16  C7  UNK     1      20.325   6.272  32.052  1.00  0.00     0.014 C 
ENDBRANCH   6   7
ENDBRANCH   5   6
ENDBRANCH   2   5
BRANCH   3  17
HETATM   17  C14 UNK     1      19.412   0.502  30.178  1.00  0.00     0.108 A 
HETATM   18  C15 UNK     1      18.976   0.408  31.439  1.00  0.00     0.037 A 
HETATM   19  C17 UNK     1      19.439  -0.672  32.297  1.00  0.00     0.001 A 
HETATM   20  C19 UNK     1      19.012  -0.809  33.619  1.00  0.00     0.038 A 
HETATM   21  C18 UNK     1      20.341  -1.599  31.784  1.00  0.00     0.089 A 
HETATM   22  C21 UNK     1      19.488  -1.864  34.403  1.00  0.00     0.035 A 
HETATM   23  C22 UNK     1      20.392  -2.785  33.871  1.00  0.00     0.026 A 
HETATM   24 Cl1  UNK     1      18.956  -2.030  36.032  1.00  0.00    -0.084 Cl
HETATM   25  C20 UNK     1      20.825  -2.655  32.553  1.00  0.00     0.040 A 
HETATM   26  O2  UNK     1      20.798  -1.494  30.455  1.00  0.00    -0.274 OA
HETATM   27  C16 UNK     1      20.371  -0.473  29.611  1.00  0.00     0.304 A 
HETATM   28  O3  UNK     1      20.774  -0.389  28.456  1.00  0.00    -0.259 OA
ENDBRANCH   3  17
TORSDOF 4
ENDMDL
MODEL 4
REMARK VINA RESULT:      -9.5      7.142     12.380
REMARK  4 active torsions:
REMARK  status: ('A' for Active; 'I' for Inactive)
REMARK    1  A    between atoms: C12_17  and  N1_5 
REMARK       I    between atoms: C13_18  and  N1_5 
REMARK    2  A    between atoms: C1_6  and  C11_16 
REMARK    3  A    between atoms: C11_16  and  C12_17 
REMARK    4  A    between atoms: C13_18  and  C14_19 
ROOT
HETATM    1  O1  UNK     1      21.245  -3.296  36.417  1.00  0.00    -0.267 OA
HETATM    2  N1  UNK     1      19.151  -4.262  36.065  1.00  0.00    -0.357 N 
HETATM    3  C13 UNK     1      20.152  -3.328  35.860  1.00  0.00     0.257 C 
HETATM    4  H20 UNK     1      18.272  -4.185  35.562  1.00  0.00     0.162 HD
ENDROOT
BRANCH   2   5
HETATM    5  C12 UNK     1      19.274  -5.353  36.992  1.00  0.00     0.123 C 
BRANCH   5   6
HETATM    6  C11 UNK     1      18.950  -6.696  36.357  1.00  0.00     0.029 C 
BRANCH   6   7
HETATM    7  C1  UNK     1      19.590  -7.866  37.109  1.00  0.00    -0.038 C 
HETATM    8  C5  UNK     1      21.089  -7.983  36.747  1.00  0.00     0.014 C 
HETATM    9  C2  UNK     1      21.735  -9.158  37.501  1.00  0.00    -0.013 C 
HETATM   10  C8  UNK     1      21.593  -8.927  39.015  1.00  0.00     0.009 C 
HETATM   11  C9  UNK     1      21.016 -10.462  37.118  1.00  0.00     0.009 C 
HETATM   12  C3  UNK     1      20.106  -8.829  39.396  1.00  0.00    -0.013 C 
HETATM   13  C10 UNK     1      19.395 -10.135  39.003  1.00  0.00     0.009 C 
HETATM   14  C6  UNK     1      19.466  -7.655  38.637  1.00  0.00     0.014 C 
HETATM   15  C4  UNK     1      19.527 -10.371  37.489  1.00  0.00    -0.013 C 
HETATM   16  C7  UNK     1      18.886  -9.193  36.735  1.00  0.00     0.014 C 
ENDBRANCH   6   7
ENDBRANCH   5   6
ENDBRANCH   2   5
BRANCH   3  17
HETATM   17  C14 UNK     1      19.791  -2.308  34.858  1.00  0.00     0.108 A 
HETATM   18  C15 UNK     1      20.325  -2.460  33.641  1.00  0.00     0.037 A 
HETATM   19  C17 UNK     1      20.028  -1.504  32.585  1.00  0.00     0.001 A 
HETATM   20  C19 UNK     1      20.563  -1.622  31.301  1.00  0.00     0.038 A 
HETATM   21  C18 UNK     1      19.182  -0.435  32.864  1.00  0.00     0.089 A 
HETATM   22  C21 UNK     1      20.246  -0.677  30.321  1.00  0.00     0.035 A 
HETATM   23  C22 UNK     1      19.396   0.390  30.619  1.00  0.00     0.026 A 
HETATM   24 Cl1  UNK     1      20.907  -0.827  28.738  1.00  0.00    -0.084 Cl
HETATM   25  C20 UNK     1      18.858   0.516  31.898  1.00  0.00     0.040 A 
HETATM   26  O2  UNK     1      18.623  -0.281  34.148  1.00  0.00    -0.274 OA
HETATM   27  C16 UNK     1      18.889  -1.179  35.177  1.00  0.00     0.304 A 
HETATM   28  O3  UNK     1      18.398  -1.036  36.292  1.00  0.00    -0.259 OA
ENDBRANCH   3  17
TORSDOF 4
ENDMDL
MODEL 5
REMARK VINA RESULT:      -9.5     12.729     15.449
REMARK  4 active torsions:
REMARK  status: ('A' for Active; 'I' for Inactive)
REMARK    1  A    between atoms: C12_17  and  N1_5 
REMARK       I    between atoms: C13_18  and  N1_5 
REMARK    2  A    between atoms: C1_6  and  C11_16 
REMARK    3  A    between atoms: C11_16  and  C12_17 
REMARK    4  A    between atoms: C13_18  and  C14_19 
ROOT
HETATM    1  O1  UNK     1      25.843  -8.829  37.526  1.00  0.00    -0.267 OA
HETATM    2  N1  UNK     1      24.800  -7.463  39.103  1.00  0.00    -0.357 N 
HETATM    3  C13 UNK     1      25.842  -7.864  38.283  1.00  0.00     0.257 C 
HETATM    4  H20 UNK     1      24.911  -6.655  39.708  1.00  0.00     0.162 HD
ENDROOT
BRANCH   2   5
HETATM    5  C12 UNK     1      23.543  -8.156  39.169  1.00  0.00     0.123 C 
BRANCH   5   6
HETATM    6  C11 UNK     1      22.378  -7.221  39.452  1.00  0.00     0.029 C 
BRANCH   6   7
HETATM    7  C1  UNK     1      21.275  -7.326  38.394  1.00  0.00    -0.038 C 
HETATM    8  C5  UNK     1      20.695  -5.927  38.081  1.00  0.00     0.014 C 
HETATM    9  C2  UNK     1      19.587  -6.029  37.019  1.00  0.00    -0.013 C 
HETATM   10  C8  UNK     1      20.174  -6.636  35.733  1.00  0.00     0.009 C 
HETATM   11  C9  UNK     1      18.466  -6.941  37.543  1.00  0.00     0.009 C 
HETATM   12  C3  UNK     1      20.738  -8.037  36.022  1.00  0.00    -0.013 C 
HETATM   13  C10 UNK     1      19.610  -8.939  36.551  1.00  0.00     0.009 C 
HETATM   14  C6  UNK     1      21.843  -7.929  37.086  1.00  0.00     0.014 C 
HETATM   15  C4  UNK     1      19.021  -8.343  37.840  1.00  0.00    -0.013 C 
HETATM   16  C7  UNK     1      20.130  -8.235  38.901  1.00  0.00     0.014 C 
ENDBRANCH   6   7
ENDBRANCH   5   6
ENDBRANCH   2   5
BRANCH   3  17
HETATM   17  C14 UNK     1      27.026  -6.991  38.389  1.00  0.00     0.108 A 
HETATM   18  C15 UNK     1      28.213  -7.582  38.212  1.00  0.00     0.037 A 
HETATM   19  C17 UNK     1      29.439  -6.803  38.298  1.00  0.00     0.001 A 
HETATM   20  C19 UNK     1      30.700  -7.377  38.121  1.00  0.00     0.038 A 
HETATM   21  C18 UNK     1      29.353  -5.440  38.565  1.00  0.00     0.089 A 
HETATM   22  C21 UNK     1      31.848  -6.585  38.213  1.00  0.00     0.035 A 
HETATM   23  C22 UNK     1      31.743  -5.219  38.483  1.00  0.00     0.026 A 
HETATM   24 Cl1  UNK     1      33.401  -7.297  37.993  1.00  0.00    -0.084 Cl
HETATM   25  C20 UNK     1      30.489  -4.639  38.661  1.00  0.00     0.040 A 
HETATM   26  O2  UNK     1      28.100  -4.825  38.751  1.00  0.00    -0.274 OA
HETATM   27  C16 UNK     1      26.911  -5.544  38.675  1.00  0.00     0.304 A 
HETATM   28  O3  UNK     1      25.824  -5.000  38.837  1.00  0.00    -0.259 OA
ENDBRANCH   3  17
TORSDOF 4
ENDMDL
MODEL 6
REMARK VINA RESULT:      -9.4      7.737      9.887
REMARK  4 active torsions:
REMARK  status: ('A' for Active; 'I' for Inactive)
REMARK    1  A    between atoms: C12_17  and  N1_5 
REMARK       I    between atoms: C13_18  and  N1_5 
REMARK    2  A    between atoms: C1_6  and  C11_16 
REMARK    3  A    between atoms: C11_16  and  C12_17 
REMARK    4  A    between atoms: C13_18  and  C14_19 
ROOT
HETATM    1  O1  UNK     1      20.177  -4.434  34.929  1.00  0.00    -0.267 OA
HETATM    2  N1  UNK     1      19.738  -4.042  37.186  1.00  0.00    -0.357 N 
HETATM    3  C13 UNK     1      19.936  -4.830  36.064  1.00  0.00     0.257 C 
HETATM    4  H20 UNK     1      19.524  -4.474  38.080  1.00  0.00     0.162 HD
ENDROOT
BRANCH   2   5
HETATM    5  C12 UNK     1      19.795  -2.607  37.156  1.00  0.00     0.123 C 
BRANCH   5   6
HETATM    6  C11 UNK     1      18.588  -1.963  37.820  1.00  0.00     0.029 C 
BRANCH   6   7
HETATM    7  C1  UNK     1      18.002  -0.822  36.985  1.00  0.00    -0.038 C 
HETATM    8  C5  UNK     1      19.091  -0.208  36.074  1.00  0.00     0.014 C 
HETATM    9  C2  UNK     1      18.505   0.939  35.233  1.00  0.00    -0.013 C 
HETATM   10  C8  UNK     1      17.360   0.394  34.362  1.00  0.00     0.009 C 
HETATM   11  C9  UNK     1      17.954   2.025  36.171  1.00  0.00     0.009 C 
HETATM   12  C3  UNK     1      16.258  -0.202  35.253  1.00  0.00    -0.013 C 
HETATM   13  C10 UNK     1      15.718   0.889  36.192  1.00  0.00     0.009 C 
HETATM   14  C6  UNK     1      16.850  -1.346  36.094  1.00  0.00     0.014 C 
HETATM   15  C4  UNK     1      16.855   1.437  37.071  1.00  0.00    -0.013 C 
HETATM   16  C7  UNK     1      17.445   0.288  37.908  1.00  0.00     0.014 C 
ENDBRANCH   6   7
ENDBRANCH   5   6
ENDBRANCH   2   5
BRANCH   3  17
HETATM   17  C14 UNK     1      19.831  -6.274  36.349  1.00  0.00     0.108 A 
HETATM   18  C15 UNK     1      20.911  -7.011  36.068  1.00  0.00     0.037 A 
HETATM   19  C17 UNK     1      20.904  -8.445  36.315  1.00  0.00     0.001 A 
HETATM   20  C19 UNK     1      22.007  -9.255  36.036  1.00  0.00     0.038 A 
HETATM   21  C18 UNK     1      19.758  -9.031  36.846  1.00  0.00     0.089 A 
HETATM   22  C21 UNK     1      21.949 -10.628  36.291  1.00  0.00     0.035 A 
HETATM   23  C22 UNK     1      20.792 -11.198  36.824  1.00  0.00     0.026 A 
HETATM   24 Cl1  UNK     1      23.313 -11.622  35.947  1.00  0.00    -0.084 Cl
HETATM   25  C20 UNK     1      19.686 -10.398  37.104  1.00  0.00     0.040 A 
HETATM   26  O2  UNK     1      18.625  -8.248  37.139  1.00  0.00    -0.274 OA
HETATM   27  C16 UNK     1      18.602  -6.875  36.914  1.00  0.00     0.304 A 
HETATM   28  O3  UNK     1      17.611  -6.201  37.173  1.00  0.00    -0.259 OA
ENDBRANCH   3  17
TORSDOF 4
ENDMDL
MODEL 7
REMARK VINA RESULT:      -9.3      2.025      3.067
REMARK  4 active torsions:
REMARK  status: ('A' for Active; 'I' for Inactive)
REMARK    1  A    between atoms: C12_17  and  N1_5 
REMARK       I    between atoms: C13_18  and  N1_5 
REMARK    2  A    between atoms: C1_6  and  C11_16 
REMARK    3  A    between atoms: C11_16  and  C12_17 
REMARK    4  A    between atoms: C13_18  and  C14_19 
ROOT
HETATM    1  O1  UNK     1      18.115   2.918  28.679  1.00  0.00    -0.267 OA
HETATM    2  N1  UNK     1      19.312   4.133  30.271  1.00  0.00    -0.357 N 
HETATM    3  C13 UNK     1      18.715   2.998  29.746  1.00  0.00     0.257 C 
HETATM    4  H20 UNK     1      19.769   4.094  31.176  1.00  0.00     0.162 HD
ENDROOT
BRANCH   2   5
HETATM    5  C12 UNK     1      19.301   5.405  29.603  1.00  0.00     0.123 C 
BRANCH   5   6
HETATM    6  C11 UNK     1      18.269   6.358  30.184  1.00  0.00     0.029 C 
BRANCH   6   7
HETATM    7  C1  UNK     1      18.415   6.524  31.700  1.00  0.00    -0.038 C 
HETATM    8  C5  UNK     1      17.691   5.373  32.438  1.00  0.00     0.014 C 
HETATM    9  C2  UNK     1      17.836   5.536  33.961  1.00  0.00    -0.013 C 
HETATM   10  C8  UNK     1      19.329   5.521  34.332  1.00  0.00     0.009 C 
HETATM   11  C9  UNK     1      17.223   6.880  34.386  1.00  0.00     0.009 C 
HETATM   12  C3  UNK     1      20.060   6.672  33.621  1.00  0.00    -0.013 C 
HETATM   13  C10 UNK     1      19.436   8.010  34.048  1.00  0.00     0.009 C 
HETATM   14  C6  UNK     1      19.910   6.505  32.099  1.00  0.00     0.014 C 
HETATM   15  C4  UNK     1      17.944   8.038  33.677  1.00  0.00    -0.013 C 
HETATM   16  C7  UNK     1      17.799   7.868  32.154  1.00  0.00     0.014 C 
ENDBRANCH   6   7
ENDBRANCH   5   6
ENDBRANCH   2   5
BRANCH   3  17
HETATM   17  C14 UNK     1      18.863   1.816  30.615  1.00  0.00     0.108 A 
HETATM   18  C15 UNK     1      18.462   1.960  31.883  1.00  0.00     0.037 A 
HETATM   19  C17 UNK     1      18.569   0.849  32.816  1.00  0.00     0.001 A 
HETATM   20  C19 UNK     1      18.165   0.954  34.148  1.00  0.00     0.038 A 
HETATM   21  C18 UNK     1      19.093  -0.359  32.366  1.00  0.00     0.089 A 
HETATM   22  C21 UNK     1      18.288  -0.143  35.006  1.00  0.00     0.035 A 
HETATM   23  C22 UNK     1      18.816  -1.347  34.537  1.00  0.00     0.026 A 
HETATM   24 Cl1  UNK     1      17.786  -0.010  36.647  1.00  0.00    -0.084 Cl
HETATM   25  C20 UNK     1      19.223  -1.461  33.209  1.00  0.00     0.040 A 
HETATM   26  O2  UNK     1      19.513  -0.504  31.030  1.00  0.00    -0.274 OA
HETATM   27  C16 UNK     1      19.423   0.540  30.115  1.00  0.00     0.304 A 
HETATM   28  O3  UNK     1      19.791   0.405  28.953  1.00  0.00    -0.259 OA
ENDBRANCH   3  17
TORSDOF 4
ENDMDL
MODEL 8
REMARK VINA RESULT:      -9.3      5.372      7.009
REMARK  4 active torsions:
REMARK  status: ('A' for Active; 'I' for Inactive)
REMARK    1  A    between atoms: C12_17  and  N1_5 
REMARK       I    between atoms: C13_18  and  N1_5 
REMARK    2  A    between atoms: C1_6  and  C11_16 
REMARK    3  A    between atoms: C11_16  and  C12_17 
REMARK    4  A    between atoms: C13_18  and  C14_19 
ROOT
HETATM    1  O1  UNK     1      20.313  -4.234  34.596  1.00  0.00    -0.267 OA
HETATM    2  N1  UNK     1      20.334  -1.994  35.245  1.00  0.00    -0.357 N 
HETATM    3  C13 UNK     1      20.336  -3.037  34.333  1.00  0.00     0.257 C 
HETATM    4  H20 UNK     1      20.374  -1.033  34.919  1.00  0.00     0.162 HD
ENDROOT
BRANCH   2   5
HETATM    5  C12 UNK     1      20.303  -2.196  36.667  1.00  0.00     0.123 C 
BRANCH   5   6
HETATM    6  C11 UNK     1      18.900  -2.083  37.240  1.00  0.00     0.029 C 
BRANCH   6   7
HETATM    7  C1  UNK     1      18.141  -0.870  36.693  1.00  0.00    -0.038 C 
HETATM    8  C5  UNK     1      17.090  -1.319  35.651  1.00  0.00     0.014 C 
HETATM    9  C2  UNK     1      16.326  -0.103  35.100  1.00  0.00    -0.013 C 
HETATM   10  C8  UNK     1      15.619   0.619  36.259  1.00  0.00     0.009 C 
HETATM   11  C9  UNK     1      17.322   0.861  34.435  1.00  0.00     0.009 C 
HETATM   12  C3  UNK     1      16.652   1.090  37.295  1.00  0.00    -0.013 C 
HETATM   13  C10 UNK     1      17.647   2.049  36.620  1.00  0.00     0.009 C 
HETATM   14  C6  UNK     1      17.415  -0.129  37.841  1.00  0.00     0.014 C 
HETATM   15  C4  UNK     1      18.364   1.334  35.462  1.00  0.00    -0.013 C 
HETATM   16  C7  UNK     1      19.122   0.114  36.013  1.00  0.00     0.014 C 
ENDBRANCH   6   7
ENDBRANCH   5   6
ENDBRANCH   2   5
BRANCH   3  17
HETATM   17  C14 UNK     1      20.368  -2.576  32.932  1.00  0.00     0.108 A 
HETATM   18  C15 UNK     1      19.779  -1.402  32.683  1.00  0.00     0.037 A 
HETATM   19  C17 UNK     1      19.758  -0.864  31.332  1.00  0.00     0.001 A 
HETATM   20  C19 UNK     1      19.155   0.357  31.024  1.00  0.00     0.038 A 
HETATM   21  C18 UNK     1      20.360  -1.591  30.309  1.00  0.00     0.089 A 
HETATM   22  C21 UNK     1      19.162   0.830  29.709  1.00  0.00     0.035 A 
HETATM   23  C22 UNK     1      19.770   0.086  28.696  1.00  0.00     0.026 A 
HETATM   24 Cl1  UNK     1      18.418   2.337  29.335  1.00  0.00    -0.084 Cl
HETATM   25  C20 UNK     1      20.375  -1.133  28.993  1.00  0.00     0.040 A 
HETATM   26  O2  UNK     1      20.978  -2.828  30.579  1.00  0.00    -0.274 OA
HETATM   27  C16 UNK     1      21.014  -3.367  31.861  1.00  0.00     0.304 A 
HETATM   28  O3  UNK     1      21.554  -4.445  32.086  1.00  0.00    -0.259 OA
ENDBRANCH   3  17
TORSDOF 4
ENDMDL
MODEL 9
REMARK VINA RESULT:      -9.2      7.784     13.123
REMARK  4 active torsions:
REMARK  status: ('A' for Active; 'I' for Inactive)
REMARK    1  A    between atoms: C12_17  and  N1_5 
REMARK       I    between atoms: C13_18  and  N1_5 
REMARK    2  A    between atoms: C1_6  and  C11_16 
REMARK    3  A    between atoms: C11_16  and  C12_17 
REMARK    4  A    between atoms: C13_18  and  C14_19 
ROOT
HETATM    1  O1  UNK     1      20.413  -4.512  37.409  1.00  0.00    -0.267 OA
HETATM    2  N1  UNK     1      18.308  -4.978  36.519  1.00  0.00    -0.357 N 
HETATM    3  C13 UNK     1      19.390  -4.169  36.826  1.00  0.00     0.257 C 
HETATM    4  H20 UNK     1      17.498  -4.587  36.048  1.00  0.00     0.162 HD
ENDROOT
BRANCH   2   5
HETATM    5  C12 UNK     1      18.249  -6.372  36.860  1.00  0.00     0.123 C 
BRANCH   5   6
HETATM    6  C11 UNK     1      18.824  -7.262  35.770  1.00  0.00     0.029 C 
BRANCH   6   7
HETATM    7  C1  UNK     1      19.849  -8.263  36.313  1.00  0.00    -0.038 C 
HETATM    8  C5  UNK     1      20.914  -8.579  35.237  1.00  0.00     0.014 C 
HETATM    9  C2  UNK     1      21.945  -9.584  35.780  1.00  0.00    -0.013 C 
HETATM   10  C8  UNK     1      22.633  -8.984  37.018  1.00  0.00     0.009 C 
HETATM   11  C9  UNK     1      21.224 -10.882  36.180  1.00  0.00     0.009 C 
HETATM   12  C3  UNK     1      21.590  -8.682  38.106  1.00  0.00    -0.013 C 
HETATM   13  C10 UNK     1      20.871  -9.985  38.495  1.00  0.00     0.009 C 
HETATM   14  C6  UNK     1      20.561  -7.679  37.557  1.00  0.00     0.014 C 
HETATM   15  C4  UNK     1      20.175 -10.589  37.265  1.00  0.00    -0.013 C 
HETATM   16  C7  UNK     1      19.148  -9.582  36.719  1.00  0.00     0.014 C 
ENDBRANCH   6   7
ENDBRANCH   5   6
ENDBRANCH   2   5
BRANCH   3  17
HETATM   17  C14 UNK     1      19.216  -2.778  36.371  1.00  0.00     0.108 A 
HETATM   18  C15 UNK     1      18.342  -2.035  37.059  1.00  0.00     0.037 A 
HETATM   19  C17 UNK     1      18.102  -0.650  36.685  1.00  0.00     0.001 A 
HETATM   20  C19 UNK     1      17.198   0.162  37.372  1.00  0.00     0.038 A 
HETATM   21  C18 UNK     1      18.796  -0.115  35.603  1.00  0.00     0.089 A 
HETATM   22  C21 UNK     1      17.003   1.487  36.973  1.00  0.00     0.035 A 
HETATM   23  C22 UNK     1      17.708   2.006  35.886  1.00  0.00     0.026 A 
HETATM   24 Cl1  UNK     1      15.888   2.485  37.826  1.00  0.00    -0.084 Cl
HETATM   25  C20 UNK     1      18.611   1.204  35.193  1.00  0.00     0.040 A 
HETATM   26  O2  UNK     1      19.715  -0.903  34.883  1.00  0.00    -0.274 OA
HETATM   27  C16 UNK     1      19.965  -2.230  35.217  1.00  0.00     0.304 A 
HETATM   28  O3  UNK     1      20.768  -2.908  34.584  1.00  0.00    -0.259 OA
ENDBRANCH   3  17
TORSDOF 4
ENDMDL
MODEL 10
REMARK VINA RESULT:      -9.1      1.322      2.421
REMARK  4 active torsions:
REMARK  status: ('A' for Active; 'I' for Inactive)
REMARK    1  A    between atoms: C12_17  and  N1_5 
REMARK       I    between atoms: C13_18  and  N1_5 
REMARK    2  A    between atoms: C1_6  and  C11_16 
REMARK    3  A    between atoms: C11_16  and  C12_17 
REMARK    4  A    between atoms: C13_18  and  C14_19 
ROOT
HETATM    1  O1  UNK     1      18.108   2.931  28.611  1.00  0.00    -0.267 OA
HETATM    2  N1  UNK     1      19.241   4.147  30.248  1.00  0.00    -0.357 N 
HETATM    3  C13 UNK     1      18.708   3.002  29.678  1.00  0.00     0.257 C 
HETATM    4  H20 UNK     1      19.705   4.097  31.150  1.00  0.00     0.162 HD
ENDROOT
BRANCH   2   5
HETATM    5  C12 UNK     1      19.154   5.442  29.633  1.00  0.00     0.123 C 
BRANCH   5   6
HETATM    6  C11 UNK     1      18.076   6.312  30.260  1.00  0.00     0.029 C 
BRANCH   6   7
HETATM    7  C1  UNK     1      18.326   6.569  31.749  1.00  0.00    -0.038 C 
HETATM    8  C5  UNK     1      17.773   7.955  32.156  1.00  0.00     0.014 C 
HETATM    9  C2  UNK     1      18.022   8.215  33.651  1.00  0.00    -0.013 C 
HETATM   10  C8  UNK     1      17.322   7.124  34.479  1.00  0.00     0.009 C 
HETATM   11  C9  UNK     1      19.534   8.168  33.928  1.00  0.00     0.009 C 
HETATM   12  C3  UNK     1      17.874   5.740  34.101  1.00  0.00    -0.013 C 
HETATM   13  C10 UNK     1      19.387   5.705  34.376  1.00  0.00     0.009 C 
HETATM   14  C6  UNK     1      17.625   5.486  32.605  1.00  0.00     0.014 C 
HETATM   15  C4  UNK     1      20.097   6.789  33.548  1.00  0.00    -0.013 C 
HETATM   16  C7  UNK     1      19.842   6.532  32.053  1.00  0.00     0.014 C 
ENDBRANCH   6   7
ENDBRANCH   5   6
ENDBRANCH   2   5
BRANCH   3  17
HETATM   17  C14 UNK     1      18.929   1.795  30.497  1.00  0.00     0.108 A 
HETATM   18  C15 UNK     1      19.598   0.797  29.910  1.00  0.00     0.037 A 
HETATM   19  C17 UNK     1      19.865  -0.434  30.638  1.00  0.00     0.001 A 
HETATM   20  C19 UNK     1      20.558  -1.503  30.066  1.00  0.00     0.038 A 
HETATM   21  C18 UNK     1      19.414  -0.552  31.949  1.00  0.00     0.089 A 
HETATM   22  C21 UNK     1      20.788  -2.665  30.807  1.00  0.00     0.035 A 
HETATM   23  C22 UNK     1      20.328  -2.765  32.121  1.00  0.00     0.026 A 
HETATM   24 Cl1  UNK     1      21.645  -3.980  30.098  1.00  0.00    -0.084 Cl
HETATM   25  C20 UNK     1      19.635  -1.705  32.701  1.00  0.00     0.040 A 
HETATM   26  O2  UNK     1      18.710   0.503  32.561  1.00  0.00    -0.274 OA
HETATM   27  C16 UNK     1      18.440   1.692  31.890  1.00  0.00     0.304 A 
HETATM   28  O3  UNK     1      17.827   2.606  32.432  1.00  0.00    -0.259 OA
ENDBRANCH   3  17
TORSDOF 4
ENDMDL
