MODEL 1
REMARK VINA RESULT:      -8.9      0.000      0.000
REMARK  2 active torsions:
REMARK  status: ('A' for Active; 'I' for Inactive)
REMARK    1  A    between atoms: C11_19  and  N1_6 
REMARK       I    between atoms: C8_16  and  N1_6 
REMARK    2  A    between atoms: C3_11  and  C8_16 
ROOT
HETATM    1 Br1  UNK     1      16.548  11.434  34.389  1.00  0.00    -0.051 Br
HETATM    2  O1  UNK     1      16.832   5.759  32.305  1.00  0.00    -0.304 OA
HETATM    3  O2  UNK     1      20.313   7.523  33.491  1.00  0.00    -0.287 OA
HETATM    4  C1  UNK     1      17.972   7.707  33.207  1.00  0.00     0.049 A 
HETATM    5  C2  UNK     1      16.817   7.044  32.785  1.00  0.00     0.090 A 
HETATM    6  C3  UNK     1      18.047   5.109  32.245  1.00  0.00     0.147 A 
HETATM    7  C4  UNK     1      19.263   7.003  33.138  1.00  0.00     0.187 A 
HETATM    8  C5  UNK     1      19.226   5.622  32.614  1.00  0.00     0.098 A 
HETATM    9  C6  UNK     1      17.898   9.017  33.687  1.00  0.00     0.037 A 
HETATM   10  C7  UNK     1      15.582   7.691  32.840  1.00  0.00     0.039 A 
HETATM   11  C9  UNK     1      16.661   9.661  33.741  1.00  0.00     0.012 A 
HETATM   12  C10 UNK     1      15.506   9.000  33.318  1.00  0.00     0.022 A 
ENDROOT
BRANCH   6  13
HETATM   13  C8  UNK     1      18.040   3.738  31.731  1.00  0.00     0.281 C 
HETATM   14  O3  UNK     1      17.621   2.822  32.441  1.00  0.00    -0.265 OA
HETATM   15  N1  UNK     1      18.540   3.664  30.436  1.00  0.00    -0.298 N 
HETATM   16  H5  UNK     1      18.852   4.515  29.976  1.00  0.00     0.171 HD
BRANCH  15  17
HETATM   17  C11 UNK     1      18.667   2.505  29.665  1.00  0.00     0.196 A 
HETATM   18  S1  UNK     1      19.686   1.299  30.304  1.00  0.00    -0.034 SA
HETATM   19  C12 UNK     1      19.293   0.393  28.901  1.00  0.00     0.097 A 
HETATM   20  N3  UNK     1      18.469   0.994  28.069  1.00  0.00    -0.145 NA
HETATM   21  C13 UNK     1      19.871  -0.951  28.705  1.00  0.00     0.081 C 
HETATM   22  N2  UNK     1      18.100   2.247  28.527  1.00  0.00    -0.123 NA
ENDBRANCH  15  17
ENDBRANCH   6  13
TORSDOF 2
ENDMDL
MODEL 2
REMARK VINA RESULT:      -8.3      1.785      2.803
REMARK  2 active torsions:
REMARK  status: ('A' for Active; 'I' for Inactive)
REMARK    1  A    between atoms: C11_19  and  N1_6 
REMARK       I    between atoms: C8_16  and  N1_6 
REMARK    2  A    between atoms: C3_11  and  C8_16 
ROOT
HETATM    1 Br1  UNK     1      15.455  12.573  34.831  1.00  0.00    -0.051 Br
HETATM    2  O1  UNK     1      18.441   7.671  32.914  1.00  0.00    -0.304 OA
HETATM    3  O2  UNK     1      14.366   7.575  32.805  1.00  0.00    -0.287 OA
HETATM    4  C1  UNK     1      16.325   8.793  33.328  1.00  0.00     0.049 A 
HETATM    5  C2  UNK     1      17.721   8.759  33.339  1.00  0.00     0.090 A 
HETATM    6  C3  UNK     1      17.741   6.573  32.461  1.00  0.00     0.147 A 
HETATM    7  C4  UNK     1      15.588   7.614  32.842  1.00  0.00     0.187 A 
HETATM    8  C5  UNK     1      16.408   6.469  32.397  1.00  0.00     0.098 A 
HETATM    9  C6  UNK     1      15.643   9.928  33.772  1.00  0.00     0.037 A 
HETATM   10  C7  UNK     1      18.441   9.863  33.795  1.00  0.00     0.039 A 
HETATM   11  C9  UNK     1      16.367  11.031  34.228  1.00  0.00     0.012 A 
HETATM   12  C10 UNK     1      17.762  10.998  34.240  1.00  0.00     0.022 A 
ENDROOT
BRANCH   6  13
HETATM   13  C8  UNK     1      18.529   5.423  32.012  1.00  0.00     0.281 C 
HETATM   14  O3  UNK     1      19.739   5.551  31.819  1.00  0.00    -0.265 OA
HETATM   15  N1  UNK     1      17.748   4.284  31.859  1.00  0.00    -0.298 N 
HETATM   16  H5  UNK     1      16.752   4.335  32.058  1.00  0.00     0.171 HD
BRANCH  15  17
HETATM   17  C11 UNK     1      18.195   3.026  31.445  1.00  0.00     0.196 A 
HETATM   18  S1  UNK     1      18.632   2.899  29.804  1.00  0.00    -0.034 SA
HETATM   19  C12 UNK     1      18.998   1.259  30.153  1.00  0.00     0.097 A 
HETATM   20  N3  UNK     1      18.791   0.902  31.402  1.00  0.00    -0.145 NA
HETATM   21  C13 UNK     1      19.502   0.373  29.086  1.00  0.00     0.081 C 
HETATM   22  N2  UNK     1      18.313   1.953  32.165  1.00  0.00    -0.123 NA
ENDBRANCH  15  17
ENDBRANCH   6  13
TORSDOF 2
ENDMDL
MODEL 3
REMARK VINA RESULT:      -8.3      8.441     10.550
REMARK  2 active torsions:
REMARK  status: ('A' for Active; 'I' for Inactive)
REMARK    1  A    between atoms: C11_19  and  N1_6 
REMARK       I    between atoms: C8_16  and  N1_6 
REMARK    2  A    between atoms: C3_11  and  C8_16 
ROOT
HETATM    1 Br1  UNK     1      19.609   0.099  29.019  1.00  0.00    -0.051 Br
HETATM    2  O1  UNK     1      20.332  -2.761  34.303  1.00  0.00    -0.304 OA
HETATM    3  O2  UNK     1      17.633   0.292  34.150  1.00  0.00    -0.287 OA
HETATM    4  C1  UNK     1      19.226  -1.029  33.005  1.00  0.00     0.049 A 
HETATM    5  C2  UNK     1      20.134  -2.083  33.126  1.00  0.00     0.090 A 
HETATM    6  C3  UNK     1      19.595  -2.372  35.402  1.00  0.00     0.147 A 
HETATM    7  C4  UNK     1      18.445  -0.622  34.185  1.00  0.00     0.187 A 
HETATM    8  C5  UNK     1      18.695  -1.382  35.427  1.00  0.00     0.098 A 
HETATM    9  C6  UNK     1      19.065  -0.373  31.782  1.00  0.00     0.037 A 
HETATM   10  C7  UNK     1      20.886  -2.486  32.023  1.00  0.00     0.039 A 
HETATM   11  C9  UNK     1      19.819  -0.780  30.680  1.00  0.00     0.012 A 
HETATM   12  C10 UNK     1      20.727  -1.832  30.800  1.00  0.00     0.022 A 
ENDROOT
BRANCH   6  13
HETATM   13  C8  UNK     1      19.821  -3.109  36.646  1.00  0.00     0.281 C 
HETATM   14  O3  UNK     1      19.706  -2.530  37.728  1.00  0.00    -0.265 OA
HETATM   15  N1  UNK     1      20.155  -4.437  36.413  1.00  0.00    -0.298 N 
HETATM   16  H5  UNK     1      20.213  -4.773  35.455  1.00  0.00     0.171 HD
BRANCH  15  17
HETATM   17  C11 UNK     1      20.432  -5.403  37.385  1.00  0.00     0.196 A 
HETATM   18  S1  UNK     1      19.306  -6.674  37.507  1.00  0.00    -0.034 SA
HETATM   19  C12 UNK     1      20.308  -7.281  38.760  1.00  0.00     0.097 A 
HETATM   20  N3  UNK     1      21.375  -6.553  39.015  1.00  0.00    -0.145 NA
HETATM   21  C13 UNK     1      19.943  -8.530  39.457  1.00  0.00     0.081 C 
HETATM   22  N2  UNK     1      21.444  -5.439  38.197  1.00  0.00    -0.123 NA
ENDBRANCH  15  17
ENDBRANCH   6  13
TORSDOF 2
ENDMDL
MODEL 4
REMARK VINA RESULT:      -8.1      2.019      2.675
REMARK  2 active torsions:
REMARK  status: ('A' for Active; 'I' for Inactive)
REMARK    1  A    between atoms: C11_19  and  N1_6 
REMARK       I    between atoms: C8_16  and  N1_6 
REMARK    2  A    between atoms: C3_11  and  C8_16 
ROOT
HETATM    1 Br1  UNK     1      14.188  12.629  34.813  1.00  0.00    -0.051 Br
HETATM    2  O1  UNK     1      16.667   7.209  33.764  1.00  0.00    -0.304 OA
HETATM    3  O2  UNK     1      19.174  10.404  34.136  1.00  0.00    -0.287 OA
HETATM    4  C1  UNK     1      16.952   9.594  34.140  1.00  0.00     0.049 A 
HETATM    5  C2  UNK     1      16.151   8.458  34.003  1.00  0.00     0.090 A 
HETATM    6  C3  UNK     1      18.037   7.089  33.660  1.00  0.00     0.147 A 
HETATM    7  C4  UNK     1      18.413   9.452  34.027  1.00  0.00     0.187 A 
HETATM    8  C5  UNK     1      18.919   8.089  33.769  1.00  0.00     0.098 A 
HETATM    9  C6  UNK     1      16.372  10.842  34.382  1.00  0.00     0.037 A 
HETATM   10  C7  UNK     1      14.764   8.567  34.106  1.00  0.00     0.039 A 
HETATM   11  C9  UNK     1      14.984  10.946  34.486  1.00  0.00     0.012 A 
HETATM   12  C10 UNK     1      14.182   9.812  34.347  1.00  0.00     0.022 A 
ENDROOT
BRANCH   6  13
HETATM   13  C8  UNK     1      18.567   5.748  33.406  1.00  0.00     0.281 C 
HETATM   14  O3  UNK     1      19.518   5.332  34.070  1.00  0.00    -0.265 OA
HETATM   15  N1  UNK     1      17.877   5.098  32.389  1.00  0.00    -0.298 N 
HETATM   16  H5  UNK     1      17.107   5.576  31.929  1.00  0.00     0.171 HD
BRANCH  15  17
HETATM   17  C11 UNK     1      18.134   3.811  31.908  1.00  0.00     0.196 A 
HETATM   18  S1  UNK     1      18.758   3.723  30.326  1.00  0.00    -0.034 SA
HETATM   19  C12 UNK     1      18.762   2.022  30.551  1.00  0.00     0.097 A 
HETATM   20  N3  UNK     1      18.325   1.620  31.725  1.00  0.00    -0.145 NA
HETATM   21  C13 UNK     1      19.232   1.137  29.468  1.00  0.00     0.081 C 
HETATM   22  N2  UNK     1      17.953   2.685  32.527  1.00  0.00    -0.123 NA
ENDBRANCH  15  17
ENDBRANCH   6  13
TORSDOF 2
ENDMDL
MODEL 5
REMARK VINA RESULT:      -8.1      9.334     12.154
REMARK  2 active torsions:
REMARK  status: ('A' for Active; 'I' for Inactive)
REMARK    1  A    between atoms: C11_19  and  N1_6 
REMARK       I    between atoms: C8_16  and  N1_6 
REMARK    2  A    between atoms: C3_11  and  C8_16 
ROOT
HETATM    1 Br1  UNK     1      19.404 -10.282  38.354  1.00  0.00    -0.051 Br
HETATM    2  O1  UNK     1      19.485  -4.879  35.628  1.00  0.00    -0.304 OA
HETATM    3  O2  UNK     1      21.992  -5.446  38.794  1.00  0.00    -0.287 OA
HETATM    4  C1  UNK     1      20.335  -6.349  37.368  1.00  0.00     0.049 A 
HETATM    5  C2  UNK     1      19.502  -6.088  36.278  1.00  0.00     0.090 A 
HETATM    6  C3  UNK     1      20.333  -3.892  36.084  1.00  0.00     0.147 A 
HETATM    7  C4  UNK     1      21.236  -5.287  37.845  1.00  0.00     0.187 A 
HETATM    8  C5  UNK     1      21.180  -4.005  37.114  1.00  0.00     0.098 A 
HETATM    9  C6  UNK     1      20.310  -7.598  37.992  1.00  0.00     0.037 A 
HETATM   10  C7  UNK     1      18.639  -7.078  35.808  1.00  0.00     0.039 A 
HETATM   11  C9  UNK     1      19.446  -8.586  37.518  1.00  0.00     0.012 A 
HETATM   12  C10 UNK     1      18.612  -8.326  36.430  1.00  0.00     0.022 A 
ENDROOT
BRANCH   6  13
HETATM   13  C8  UNK     1      20.300  -2.611  35.376  1.00  0.00     0.281 C 
HETATM   14  O3  UNK     1      20.711  -1.593  35.937  1.00  0.00    -0.265 OA
HETATM   15  N1  UNK     1      19.777  -2.736  34.095  1.00  0.00    -0.298 N 
HETATM   16  H5  UNK     1      19.476  -3.651  33.770  1.00  0.00     0.171 HD
BRANCH  15  17
HETATM   17  C11 UNK     1      19.610  -1.705  33.166  1.00  0.00     0.196 A 
HETATM   18  S1  UNK     1      20.428  -1.902  31.686  1.00  0.00    -0.034 SA
HETATM   19  C12 UNK     1      19.746  -0.391  31.245  1.00  0.00     0.097 A 
HETATM   20  N3  UNK     1      18.984   0.160  32.166  1.00  0.00    -0.145 NA
HETATM   21  C13 UNK     1      20.035   0.189  29.919  1.00  0.00     0.081 C 
HETATM   22  N2  UNK     1      18.907  -0.623  33.305  1.00  0.00    -0.123 NA
ENDBRANCH  15  17
ENDBRANCH   6  13
TORSDOF 2
ENDMDL
MODEL 6
REMARK VINA RESULT:      -8.1      4.855      7.635
REMARK  2 active torsions:
REMARK  status: ('A' for Active; 'I' for Inactive)
REMARK    1  A    between atoms: C11_19  and  N1_6 
REMARK       I    between atoms: C8_16  and  N1_6 
REMARK    2  A    between atoms: C3_11  and  C8_16 
ROOT
HETATM    1 Br1  UNK     1      18.569  -2.225  36.537  1.00  0.00    -0.051 Br
HETATM    2  O1  UNK     1      18.162   3.387  34.308  1.00  0.00    -0.304 OA
HETATM    3  O2  UNK     1      18.645   0.322  31.661  1.00  0.00    -0.287 OA
HETATM    4  C1  UNK     1      18.425   1.002  33.916  1.00  0.00     0.049 A 
HETATM    5  C2  UNK     1      18.259   2.097  34.767  1.00  0.00     0.090 A 
HETATM    6  C3  UNK     1      18.233   3.592  32.946  1.00  0.00     0.147 A 
HETATM    7  C4  UNK     1      18.500   1.235  32.464  1.00  0.00     0.187 A 
HETATM    8  C5  UNK     1      18.391   2.639  32.021  1.00  0.00     0.098 A 
HETATM    9  C6  UNK     1      18.519  -0.290  34.438  1.00  0.00     0.037 A 
HETATM   10  C7  UNK     1      18.186   1.902  36.146  1.00  0.00     0.039 A 
HETATM   11  C9  UNK     1      18.444  -0.481  35.818  1.00  0.00     0.012 A 
HETATM   12  C10 UNK     1      18.279   0.612  36.670  1.00  0.00     0.022 A 
ENDROOT
BRANCH   6  13
HETATM   13  C8  UNK     1      18.126   4.975  32.479  1.00  0.00     0.281 C 
HETATM   14  O3  UNK     1      19.108   5.528  31.980  1.00  0.00    -0.265 OA
HETATM   15  N1  UNK     1      16.854   5.497  32.678  1.00  0.00    -0.298 N 
HETATM   16  H5  UNK     1      16.141   4.913  33.108  1.00  0.00     0.171 HD
BRANCH  15  17
HETATM   17  C11 UNK     1      16.427   6.785  32.343  1.00  0.00     0.196 A 
HETATM   18  S1  UNK     1      15.632   7.646  33.578  1.00  0.00    -0.034 SA
HETATM   19  C12 UNK     1      15.494   8.919  32.436  1.00  0.00     0.097 A 
HETATM   20  N3  UNK     1      16.016   8.661  31.256  1.00  0.00    -0.145 NA
HETATM   21  C13 UNK     1      14.828  10.181  32.815  1.00  0.00     0.081 C 
HETATM   22  N2  UNK     1      16.568   7.393  31.205  1.00  0.00    -0.123 NA
ENDBRANCH  15  17
ENDBRANCH   6  13
TORSDOF 2
ENDMDL
MODEL 7
REMARK VINA RESULT:      -8.1     10.248     13.717
REMARK  2 active torsions:
REMARK  status: ('A' for Active; 'I' for Inactive)
REMARK    1  A    between atoms: C11_19  and  N1_6 
REMARK       I    between atoms: C8_16  and  N1_6 
REMARK    2  A    between atoms: C3_11  and  C8_16 
ROOT
HETATM    1 Br1  UNK     1      22.575 -11.448  35.817  1.00  0.00    -0.051 Br
HETATM    2  O1  UNK     1      21.227  -5.738  37.303  1.00  0.00    -0.304 OA
HETATM    3  O2  UNK     1      19.623  -7.234  33.866  1.00  0.00    -0.287 OA
HETATM    4  C1  UNK     1      20.989  -7.602  35.762  1.00  0.00     0.049 A 
HETATM    5  C2  UNK     1      21.504  -7.028  36.926  1.00  0.00     0.090 A 
HETATM    6  C3  UNK     1      20.402  -4.992  36.488  1.00  0.00     0.147 A 
HETATM    7  C4  UNK     1      20.109  -6.795  34.899  1.00  0.00     0.187 A 
HETATM    8  C5  UNK     1      19.842  -5.414  35.349  1.00  0.00     0.098 A 
HETATM    9  C6  UNK     1      21.304  -8.921  35.425  1.00  0.00     0.037 A 
HETATM   10  C7  UNK     1      22.340  -7.772  37.759  1.00  0.00     0.039 A 
HETATM   11  C9  UNK     1      22.140  -9.662  36.262  1.00  0.00     0.012 A 
HETATM   12  C10 UNK     1      22.657  -9.089  37.425  1.00  0.00     0.022 A 
ENDROOT
BRANCH   6  13
HETATM   13  C8  UNK     1      20.119  -3.619  36.910  1.00  0.00     0.281 C 
HETATM   14  O3  UNK     1      20.430  -3.253  38.044  1.00  0.00    -0.265 OA
HETATM   15  N1  UNK     1      19.500  -2.882  35.907  1.00  0.00    -0.298 N 
HETATM   16  H5  UNK     1      19.304  -3.327  35.014  1.00  0.00     0.171 HD
BRANCH  15  17
HETATM   17  C11 UNK     1      19.099  -1.545  35.991  1.00  0.00     0.196 A 
HETATM   18  S1  UNK     1      17.769  -1.234  37.008  1.00  0.00    -0.034 SA
HETATM   19  C12 UNK     1      17.964   0.410  36.559  1.00  0.00     0.097 A 
HETATM   20  N3  UNK     1      18.953   0.640  35.721  1.00  0.00    -0.145 NA
HETATM   21  C13 UNK     1      17.056   1.437  37.106  1.00  0.00     0.081 C 
HETATM   22  N2  UNK     1      19.624  -0.524  35.387  1.00  0.00    -0.123 NA
ENDBRANCH  15  17
ENDBRANCH   6  13
TORSDOF 2
ENDMDL
MODEL 8
REMARK VINA RESULT:      -8.0      9.704     12.579
REMARK  2 active torsions:
REMARK  status: ('A' for Active; 'I' for Inactive)
REMARK    1  A    between atoms: C11_19  and  N1_6 
REMARK       I    between atoms: C8_16  and  N1_6 
REMARK    2  A    between atoms: C3_11  and  C8_16 
ROOT
HETATM    1 Br1  UNK     1      19.346 -10.528  38.236  1.00  0.00    -0.051 Br
HETATM    2  O1  UNK     1      19.644  -4.945  35.918  1.00  0.00    -0.304 OA
HETATM    3  O2  UNK     1      22.084  -5.827  39.064  1.00  0.00    -0.287 OA
HETATM    4  C1  UNK     1      20.419  -6.566  37.554  1.00  0.00     0.049 A 
HETATM    5  C2  UNK     1      19.612  -6.198  36.476  1.00  0.00     0.090 A 
HETATM    6  C3  UNK     1      20.517  -4.023  36.455  1.00  0.00     0.147 A 
HETATM    7  C4  UNK     1      21.348  -5.573  38.120  1.00  0.00     0.187 A 
HETATM    8  C5  UNK     1      21.344  -4.240  37.484  1.00  0.00     0.098 A 
HETATM    9  C6  UNK     1      20.345  -7.857  38.084  1.00  0.00     0.037 A 
HETATM   10  C7  UNK     1      18.724  -7.122  35.924  1.00  0.00     0.039 A 
HETATM   11  C9  UNK     1      19.456  -8.778  37.528  1.00  0.00     0.012 A 
HETATM   12  C10 UNK     1      18.647  -8.411  36.451  1.00  0.00     0.022 A 
ENDROOT
BRANCH   6  13
HETATM   13  C8  UNK     1      20.536  -2.693  35.843  1.00  0.00     0.281 C 
HETATM   14  O3  UNK     1      21.596  -2.070  35.772  1.00  0.00    -0.265 OA
HETATM   15  N1  UNK     1      19.276  -2.302  35.406  1.00  0.00    -0.298 N 
HETATM   16  H5  UNK     1      18.488  -2.932  35.537  1.00  0.00     0.171 HD
BRANCH  15  17
HETATM   17  C11 UNK     1      18.957  -1.093  34.781  1.00  0.00     0.196 A 
HETATM   18  S1  UNK     1      18.718   0.235  35.819  1.00  0.00    -0.034 SA
HETATM   19  C12 UNK     1      18.418   1.142  34.393  1.00  0.00     0.097 A 
HETATM   20  N3  UNK     1      18.504   0.454  33.274  1.00  0.00    -0.145 NA
HETATM   21  C13 UNK     1      18.092   2.578  34.488  1.00  0.00     0.081 C 
HETATM   22  N2  UNK     1      18.824  -0.872  33.510  1.00  0.00    -0.123 NA
ENDBRANCH  15  17
ENDBRANCH   6  13
TORSDOF 2
ENDMDL
MODEL 9
REMARK VINA RESULT:      -8.0     10.294     13.256
REMARK  2 active torsions:
REMARK  status: ('A' for Active; 'I' for Inactive)
REMARK    1  A    between atoms: C11_19  and  N1_6 
REMARK       I    between atoms: C8_16  and  N1_6 
REMARK    2  A    between atoms: C3_11  and  C8_16 
ROOT
HETATM    1 Br1  UNK     1      20.195 -11.130  37.603  1.00  0.00    -0.051 Br
HETATM    2  O1  UNK     1      19.004  -5.307  36.464  1.00  0.00    -0.304 OA
HETATM    3  O2  UNK     1      22.526  -6.198  38.316  1.00  0.00    -0.287 OA
HETATM    4  C1  UNK     1      20.505  -6.988  37.374  1.00  0.00     0.049 A 
HETATM    5  C2  UNK     1      19.318  -6.613  36.742  1.00  0.00     0.090 A 
HETATM    6  C3  UNK     1      19.912  -4.335  36.830  1.00  0.00     0.147 A 
HETATM    7  C4  UNK     1      21.467  -5.941  37.760  1.00  0.00     0.187 A 
HETATM    8  C5  UNK     1      21.083  -4.552  37.439  1.00  0.00     0.098 A 
HETATM    9  C6  UNK     1      20.773  -8.334  37.634  1.00  0.00     0.037 A 
HETATM   10  C7  UNK     1      18.391  -7.587  36.368  1.00  0.00     0.039 A 
HETATM   11  C9  UNK     1      19.844  -9.305  37.257  1.00  0.00     0.012 A 
HETATM   12  C10 UNK     1      18.655  -8.932  36.627  1.00  0.00     0.022 A 
ENDROOT
BRANCH   6  13
HETATM   13  C8  UNK     1      19.558  -2.948  36.522  1.00  0.00     0.281 C 
HETATM   14  O3  UNK     1      20.434  -2.162  36.158  1.00  0.00    -0.265 OA
HETATM   15  N1  UNK     1      18.201  -2.705  36.698  1.00  0.00    -0.298 N 
HETATM   16  H5  UNK     1      17.598  -3.462  37.007  1.00  0.00     0.171 HD
BRANCH  15  17
HETATM   17  C11 UNK     1      17.547  -1.487  36.490  1.00  0.00     0.196 A 
HETATM   18  S1  UNK     1      17.713  -0.335  37.732  1.00  0.00    -0.034 SA
HETATM   19  C12 UNK     1      16.731   0.680  36.758  1.00  0.00     0.097 A 
HETATM   20  N3  UNK     1      16.347   0.147  35.618  1.00  0.00    -0.145 NA
HETATM   21  C13 UNK     1      16.382   2.036  37.225  1.00  0.00     0.081 C 
HETATM   22  N2  UNK     1      16.833  -1.140  35.463  1.00  0.00    -0.123 NA
ENDBRANCH  15  17
ENDBRANCH   6  13
TORSDOF 2
ENDMDL
MODEL 10
REMARK VINA RESULT:      -8.0     10.784     13.836
REMARK  2 active torsions:
REMARK  status: ('A' for Active; 'I' for Inactive)
REMARK    1  A    between atoms: C11_19  and  N1_6 
REMARK       I    between atoms: C8_16  and  N1_6 
REMARK    2  A    between atoms: C3_11  and  C8_16 
ROOT
HETATM    1 Br1  UNK     1      19.412 -11.637  39.171  1.00  0.00    -0.051 Br
HETATM    2  O1  UNK     1      20.391  -5.799  37.913  1.00  0.00    -0.304 OA
HETATM    3  O2  UNK     1      17.732  -7.825  35.577  1.00  0.00    -0.287 OA
HETATM    4  C1  UNK     1      19.239  -7.877  37.400  1.00  0.00     0.049 A 
HETATM    5  C2  UNK     1      20.137  -7.125  38.161  1.00  0.00     0.090 A 
HETATM    6  C3  UNK     1      19.723  -5.200  36.866  1.00  0.00     0.147 A 
HETATM    7  C4  UNK     1      18.531  -7.226  36.284  1.00  0.00     0.187 A 
HETATM    8  C5  UNK     1      18.840  -5.800  36.059  1.00  0.00     0.098 A 
HETATM    9  C6  UNK     1      19.018  -9.224  37.697  1.00  0.00     0.037 A 
HETATM   10  C7  UNK     1      20.819  -7.719  39.222  1.00  0.00     0.039 A 
HETATM   11  C9  UNK     1      19.702  -9.815  38.760  1.00  0.00     0.012 A 
HETATM   12  C10 UNK     1      20.601  -9.065  39.520  1.00  0.00     0.022 A 
ENDROOT
BRANCH   6  13
HETATM   13  C8  UNK     1      20.008  -3.786  36.620  1.00  0.00     0.281 C 
HETATM   14  O3  UNK     1      21.172  -3.383  36.657  1.00  0.00    -0.265 OA
HETATM   15  N1  UNK     1      18.853  -3.057  36.365  1.00  0.00    -0.298 N 
HETATM   16  H5  UNK     1      17.955  -3.534  36.370  1.00  0.00     0.171 HD
BRANCH  15  17
HETATM   17  C11 UNK     1      18.783  -1.687  36.094  1.00  0.00     0.196 A 
HETATM   18  S1  UNK     1      17.899  -0.755  37.211  1.00  0.00    -0.034 SA
HETATM   19  C12 UNK     1      18.295   0.589  36.222  1.00  0.00     0.097 A 
HETATM   20  N3  UNK     1      19.026   0.300  35.166  1.00  0.00    -0.145 NA
HETATM   21  C13 UNK     1      17.820   1.938  36.585  1.00  0.00     0.081 C 
HETATM   22  N2  UNK     1      19.312  -1.053  35.093  1.00  0.00    -0.123 NA
ENDBRANCH  15  17
ENDBRANCH   6  13
TORSDOF 2
ENDMDL
