MODEL 1
REMARK VINA RESULT:      -9.7      0.000      0.000
REMARK  4 active torsions:
REMARK  status: ('A' for Active; 'I' for Inactive)
REMARK    1  A    between atoms: C5_8  and  N1_3 
REMARK    2  A    between atoms: C10_13  and  C15_18 
REMARK    3  A    between atoms: C16_19  and  C17_20 
REMARK    4  A    between atoms: C17_20  and  C18_21 
ROOT
HETATM    1  N1  UNK     1      18.284   8.457  33.852  1.00  0.00    -0.346 N 
HETATM    2  C1  UNK     1      18.687   7.417  33.047  1.00  0.00     0.046 A 
HETATM    3  C2  UNK     1      17.534   6.795  32.568  1.00  0.00     0.004 A 
HETATM    4  C3  UNK     1      16.913   8.527  33.910  1.00  0.00     0.046 A 
HETATM    5  C4  UNK     1      16.412   7.495  33.115  1.00  0.00     0.003 A 
HETATM    6  C6  UNK     1      17.674   5.684  31.710  1.00  0.00     0.026 A 
HETATM    7  C7  UNK     1      19.975   6.987  32.709  1.00  0.00     0.031 A 
HETATM    8  C8  UNK     1      16.085   9.419  34.602  1.00  0.00     0.030 A 
HETATM    9  C9  UNK     1      15.013   7.347  33.005  1.00  0.00     0.014 A 
HETATM   10  C10 UNK     1      18.955   5.242  31.362  1.00  0.00    -0.035 A 
HETATM   11  C11 UNK     1      20.087   5.886  31.856  1.00  0.00     0.013 A 
HETATM   12  C13 UNK     1      14.704   9.251  34.477  1.00  0.00     0.002 A 
HETATM   13  C14 UNK     1      14.173   8.231  33.691  1.00  0.00     0.001 A 
ENDROOT
BRANCH  10  14
HETATM   14  C15 UNK     1      19.104   4.098  30.476  1.00  0.00     0.015 C 
HETATM   15  C16 UNK     1      18.144   3.183  30.218  1.00  0.00     0.056 C 
BRANCH  15  16
HETATM   16  C17 UNK     1      18.420   2.039  29.304  1.00  0.00     0.182 C 
HETATM   17  O1  UNK     1      18.171   2.077  28.105  1.00  0.00    -0.288 OA
BRANCH  16  18
HETATM   18  C18 UNK     1      19.050   0.831  29.887  1.00  0.00     0.014 A 
HETATM   19  C19 UNK     1      18.850   0.549  31.224  1.00  0.00     0.017 A 
HETATM   20  C21 UNK     1      19.444  -0.589  31.772  1.00  0.00     0.020 A 
HETATM   21  C23 UNK     1      20.227  -1.421  30.971  1.00  0.00     0.011 A 
HETATM   22 Br1  UNK     1      21.032  -2.961  31.713  1.00  0.00    -0.051 Br
HETATM   23  C22 UNK     1      20.414  -1.116  29.622  1.00  0.00     0.020 A 
HETATM   24  C20 UNK     1      19.820   0.021  29.075  1.00  0.00     0.017 A 
ENDBRANCH  16  18
ENDBRANCH  15  16
ENDBRANCH  10  14
BRANCH   1  25
HETATM   25  C5  UNK     1      19.184   9.358  34.544  1.00  0.00     0.125 C 
HETATM   26  C12 UNK     1      19.113  10.773  33.999  1.00  0.00     0.027 C 
ENDBRANCH   1  25
TORSDOF 4
ENDMDL
MODEL 2
REMARK VINA RESULT:      -9.0      4.112      9.302
REMARK  4 active torsions:
REMARK  status: ('A' for Active; 'I' for Inactive)
REMARK    1  A    between atoms: C5_8  and  N1_3 
REMARK    2  A    between atoms: C10_13  and  C15_18 
REMARK    3  A    between atoms: C16_19  and  C17_20 
REMARK    4  A    between atoms: C17_20  and  C18_21 
ROOT
HETATM    1  N1  UNK     1      18.955   0.141  32.732  1.00  0.00    -0.346 N 
HETATM    2  C1  UNK     1      18.622   1.475  32.693  1.00  0.00     0.046 A 
HETATM    3  C2  UNK     1      18.829   1.914  31.385  1.00  0.00     0.004 A 
HETATM    4  C3  UNK     1      19.370  -0.295  31.496  1.00  0.00     0.046 A 
HETATM    5  C4  UNK     1      19.302   0.795  30.629  1.00  0.00     0.003 A 
HETATM    6  C6  UNK     1      18.558   3.263  31.076  1.00  0.00     0.026 A 
HETATM    7  C7  UNK     1      18.155   2.316  33.709  1.00  0.00     0.031 A 
HETATM    8  C8  UNK     1      19.796  -1.564  31.085  1.00  0.00     0.030 A 
HETATM    9  C9  UNK     1      19.680   0.610  29.282  1.00  0.00     0.014 A 
HETATM   10  C10 UNK     1      18.090   4.117  32.082  1.00  0.00    -0.035 A 
HETATM   11  C11 UNK     1      17.893   3.648  33.378  1.00  0.00     0.013 A 
HETATM   12  C13 UNK     1      20.165  -1.721  29.747  1.00  0.00     0.002 A 
HETATM   13  C14 UNK     1      20.109  -0.652  28.857  1.00  0.00     0.001 A 
ENDROOT
BRANCH  10  14
HETATM   14  C15 UNK     1      17.809   5.510  31.767  1.00  0.00     0.015 C 
HETATM   15  C16 UNK     1      16.746   6.211  32.219  1.00  0.00     0.056 C 
BRANCH  15  16
HETATM   16  C17 UNK     1      16.553   7.630  31.812  1.00  0.00     0.182 C 
HETATM   17  O1  UNK     1      16.783   8.029  30.676  1.00  0.00    -0.288 OA
BRANCH  16  18
HETATM   18  C18 UNK     1      16.032   8.573  32.830  1.00  0.00     0.014 A 
HETATM   19  C19 UNK     1      14.667   8.668  33.019  1.00  0.00     0.017 A 
HETATM   20  C21 UNK     1      14.177   9.556  33.977  1.00  0.00     0.020 A 
HETATM   21  C23 UNK     1      15.062  10.332  34.727  1.00  0.00     0.011 A 
HETATM   22 Br1  UNK     1      14.398  11.535  36.023  1.00  0.00    -0.051 Br
HETATM   23  C22 UNK     1      16.437  10.219  34.518  1.00  0.00     0.020 A 
HETATM   24  C20 UNK     1      16.926   9.331  33.560  1.00  0.00     0.017 A 
ENDBRANCH  16  18
ENDBRANCH  15  16
ENDBRANCH  10  14
BRANCH   1  25
HETATM   25  C5  UNK     1      18.878  -0.692  33.916  1.00  0.00     0.125 C 
HETATM   26  C12 UNK     1      17.445  -0.934  34.357  1.00  0.00     0.027 C 
ENDBRANCH   1  25
TORSDOF 4
ENDMDL
MODEL 3
REMARK VINA RESULT:      -8.5      5.002      7.602
REMARK  4 active torsions:
REMARK  status: ('A' for Active; 'I' for Inactive)
REMARK    1  A    between atoms: C5_8  and  N1_3 
REMARK    2  A    between atoms: C10_13  and  C15_18 
REMARK    3  A    between atoms: C16_19  and  C17_20 
REMARK    4  A    between atoms: C17_20  and  C18_21 
ROOT
HETATM    1  N1  UNK     1      18.810   1.904  30.805  1.00  0.00    -0.346 N 
HETATM    2  C1  UNK     1      18.868   0.915  31.759  1.00  0.00     0.046 A 
HETATM    3  C2  UNK     1      18.594   1.511  32.989  1.00  0.00     0.004 A 
HETATM    4  C3  UNK     1      18.509   3.117  31.377  1.00  0.00     0.046 A 
HETATM    5  C4  UNK     1      18.368   2.904  32.749  1.00  0.00     0.003 A 
HETATM    6  C6  UNK     1      18.592   0.702  34.145  1.00  0.00     0.026 A 
HETATM    7  C7  UNK     1      19.138  -0.452  31.623  1.00  0.00     0.031 A 
HETATM    8  C8  UNK     1      18.353   4.377  30.788  1.00  0.00     0.030 A 
HETATM    9  C9  UNK     1      18.055   4.005  33.574  1.00  0.00     0.014 A 
HETATM   10  C10 UNK     1      18.860  -0.666  34.026  1.00  0.00    -0.035 A 
HETATM   11  C11 UNK     1      19.129  -1.232  32.782  1.00  0.00     0.013 A 
HETATM   12  C13 UNK     1      18.044   5.451  31.626  1.00  0.00     0.002 A 
HETATM   13  C14 UNK     1      17.897   5.270  32.999  1.00  0.00     0.001 A 
ENDROOT
BRANCH  10  14
HETATM   14  C15 UNK     1      18.858  -1.504  35.215  1.00  0.00     0.015 C 
HETATM   15  C16 UNK     1      19.949  -2.089  35.757  1.00  0.00     0.056 C 
BRANCH  15  16
HETATM   16  C17 UNK     1      19.819  -2.944  36.970  1.00  0.00     0.182 C 
HETATM   17  O1  UNK     1      19.378  -2.521  38.033  1.00  0.00    -0.288 OA
BRANCH  16  18
HETATM   18  C18 UNK     1      20.216  -4.368  36.854  1.00  0.00     0.014 A 
HETATM   19  C19 UNK     1      21.055  -4.909  37.808  1.00  0.00     0.017 A 
HETATM   20  C21 UNK     1      21.429  -6.249  37.697  1.00  0.00     0.020 A 
HETATM   21  C23 UNK     1      20.956  -7.020  36.635  1.00  0.00     0.011 A 
HETATM   22 Br1  UNK     1      21.463  -8.834  36.485  1.00  0.00    -0.051 Br
HETATM   23  C22 UNK     1      20.109  -6.451  35.684  1.00  0.00     0.020 A 
HETATM   24  C20 UNK     1      19.735  -5.112  35.795  1.00  0.00     0.017 A 
ENDBRANCH  16  18
ENDBRANCH  15  16
ENDBRANCH  10  14
BRANCH   1  25
HETATM   25  C5  UNK     1      19.035   1.696  29.388  1.00  0.00     0.125 C 
HETATM   26  C12 UNK     1      17.736   1.559  28.614  1.00  0.00     0.027 C 
ENDBRANCH   1  25
TORSDOF 4
ENDMDL
MODEL 4
REMARK VINA RESULT:      -8.5      7.030     10.547
REMARK  4 active torsions:
REMARK  status: ('A' for Active; 'I' for Inactive)
REMARK    1  A    between atoms: C5_8  and  N1_3 
REMARK    2  A    between atoms: C10_13  and  C15_18 
REMARK    3  A    between atoms: C16_19  and  C17_20 
REMARK    4  A    between atoms: C17_20  and  C18_21 
ROOT
HETATM    1  N1  UNK     1      18.478  -0.181  34.010  1.00  0.00    -0.346 N 
HETATM    2  C1  UNK     1      18.783  -1.101  34.985  1.00  0.00     0.046 A 
HETATM    3  C2  UNK     1      19.642  -2.039  34.414  1.00  0.00     0.004 A 
HETATM    4  C3  UNK     1      19.110  -0.493  32.830  1.00  0.00     0.046 A 
HETATM    5  C4  UNK     1      19.848  -1.656  33.051  1.00  0.00     0.003 A 
HETATM    6  C6  UNK     1      20.108  -3.103  35.216  1.00  0.00     0.026 A 
HETATM    7  C7  UNK     1      18.366  -1.169  36.320  1.00  0.00     0.031 A 
HETATM    8  C8  UNK     1      19.083   0.162  31.592  1.00  0.00     0.030 A 
HETATM    9  C9  UNK     1      20.598  -2.192  31.983  1.00  0.00     0.014 A 
HETATM   10  C10 UNK     1      19.701  -3.185  36.552  1.00  0.00    -0.035 A 
HETATM   11  C11 UNK     1      18.842  -2.231  37.093  1.00  0.00     0.013 A 
HETATM   12  C13 UNK     1      19.833  -0.389  30.551  1.00  0.00     0.002 A 
HETATM   13  C14 UNK     1      20.580  -1.549  30.741  1.00  0.00     0.001 A 
ENDROOT
BRANCH  10  14
HETATM   14  C15 UNK     1      20.180  -4.280  37.382  1.00  0.00     0.015 C 
HETATM   15  C16 UNK     1      19.716  -5.548  37.342  1.00  0.00     0.056 C 
BRANCH  15  16
HETATM   16  C17 UNK     1      20.274  -6.582  38.258  1.00  0.00     0.182 C 
HETATM   17  O1  UNK     1      20.171  -6.510  39.477  1.00  0.00    -0.288 OA
BRANCH  16  18
HETATM   18  C18 UNK     1      20.948  -7.751  37.645  1.00  0.00     0.014 A 
HETATM   19  C19 UNK     1      20.178  -8.754  37.088  1.00  0.00     0.017 A 
HETATM   20  C21 UNK     1      20.814  -9.855  36.513  1.00  0.00     0.020 A 
HETATM   21  C23 UNK     1      22.207  -9.930  36.505  1.00  0.00     0.011 A 
HETATM   22 Br1  UNK     1      23.067 -11.421  35.726  1.00  0.00    -0.051 Br
HETATM   23  C22 UNK     1      22.964  -8.905  37.072  1.00  0.00     0.020 A 
HETATM   24  C20 UNK     1      22.328  -7.805  37.648  1.00  0.00     0.017 A 
ENDBRANCH  16  18
ENDBRANCH  15  16
ENDBRANCH  10  14
BRANCH   1  25
HETATM   25  C5  UNK     1      17.609   0.964  34.200  1.00  0.00     0.125 C 
HETATM   26  C12 UNK     1      18.364   2.180  34.709  1.00  0.00     0.027 C 
ENDBRANCH   1  25
TORSDOF 4
ENDMDL
MODEL 5
REMARK VINA RESULT:      -8.4     12.322     17.148
REMARK  4 active torsions:
REMARK  status: ('A' for Active; 'I' for Inactive)
REMARK    1  A    between atoms: C5_8  and  N1_3 
REMARK    2  A    between atoms: C10_13  and  C15_18 
REMARK    3  A    between atoms: C16_19  and  C17_20 
REMARK    4  A    between atoms: C17_20  and  C18_21 
ROOT
HETATM    1  N1  UNK     1      30.047  -8.364  38.299  1.00  0.00    -0.346 N 
HETATM    2  C1  UNK     1      28.684  -8.506  38.419  1.00  0.00     0.046 A 
HETATM    3  C2  UNK     1      28.145  -7.227  38.548  1.00  0.00     0.004 A 
HETATM    4  C3  UNK     1      30.405  -7.038  38.346  1.00  0.00     0.046 A 
HETATM    5  C4  UNK     1      29.232  -6.298  38.503  1.00  0.00     0.003 A 
HETATM    6  C6  UNK     1      26.747  -7.095  38.688  1.00  0.00     0.026 A 
HETATM    7  C7  UNK     1      27.897  -9.664  38.420  1.00  0.00     0.031 A 
HETATM    8  C8  UNK     1      31.670  -6.442  38.263  1.00  0.00     0.030 A 
HETATM    9  C9  UNK     1      29.327  -4.893  38.581  1.00  0.00     0.014 A 
HETATM   10  C10 UNK     1      25.946  -8.243  38.691  1.00  0.00    -0.035 A 
HETATM   11  C11 UNK     1      26.516  -9.507  38.559  1.00  0.00     0.013 A 
HETATM   12  C13 UNK     1      31.737  -5.050  38.344  1.00  0.00     0.002 A 
HETATM   13  C14 UNK     1      30.584  -4.284  38.500  1.00  0.00     0.001 A 
ENDROOT
BRANCH  10  14
HETATM   14  C15 UNK     1      24.504  -8.111  38.835  1.00  0.00     0.015 C 
HETATM   15  C16 UNK     1      23.596  -8.418  37.883  1.00  0.00     0.056 C 
BRANCH  15  16
HETATM   16  C17 UNK     1      22.142  -8.223  38.140  1.00  0.00     0.182 C 
HETATM   17  O1  UNK     1      21.459  -9.050  38.733  1.00  0.00    -0.288 OA
BRANCH  16  18
HETATM   18  C18 UNK     1      21.526  -6.956  37.678  1.00  0.00     0.014 A 
HETATM   19  C19 UNK     1      21.868  -5.776  38.309  1.00  0.00     0.017 A 
HETATM   20  C21 UNK     1      21.286  -4.584  37.874  1.00  0.00     0.020 A 
HETATM   21  C23 UNK     1      20.376  -4.596  36.817  1.00  0.00     0.011 A 
HETATM   22 Br1  UNK     1      19.589  -2.983  36.229  1.00  0.00    -0.051 Br
HETATM   23  C22 UNK     1      20.047  -5.801  36.195  1.00  0.00     0.020 A 
HETATM   24  C20 UNK     1      20.628  -6.992  36.630  1.00  0.00     0.017 A 
ENDBRANCH  16  18
ENDBRANCH  15  16
ENDBRANCH  10  14
BRANCH   1  25
HETATM   25  C5  UNK     1      30.979  -9.463  38.142  1.00  0.00     0.125 C 
HETATM   26  C12 UNK     1      31.196  -9.829  36.684  1.00  0.00     0.027 C 
ENDBRANCH   1  25
TORSDOF 4
ENDMDL
MODEL 6
REMARK VINA RESULT:      -8.3      4.484      8.949
REMARK  4 active torsions:
REMARK  status: ('A' for Active; 'I' for Inactive)
REMARK    1  A    between atoms: C5_8  and  N1_3 
REMARK    2  A    between atoms: C10_13  and  C15_18 
REMARK    3  A    between atoms: C16_19  and  C17_20 
REMARK    4  A    between atoms: C17_20  and  C18_21 
ROOT
HETATM    1  N1  UNK     1      18.799  -0.483  33.080  1.00  0.00    -0.346 N 
HETATM    2  C1  UNK     1      18.660   0.777  32.546  1.00  0.00     0.046 A 
HETATM    3  C2  UNK     1      18.318   1.633  33.592  1.00  0.00     0.004 A 
HETATM    4  C3  UNK     1      18.560  -0.469  34.433  1.00  0.00     0.046 A 
HETATM    5  C4  UNK     1      18.254   0.845  34.785  1.00  0.00     0.003 A 
HETATM    6  C6  UNK     1      18.115   2.999  33.306  1.00  0.00     0.026 A 
HETATM    7  C7  UNK     1      18.811   1.217  31.226  1.00  0.00     0.031 A 
HETATM    8  C8  UNK     1      18.590  -1.515  35.364  1.00  0.00     0.030 A 
HETATM    9  C9  UNK     1      17.964   1.131  36.136  1.00  0.00     0.014 A 
HETATM   10  C10 UNK     1      18.263   3.455  31.991  1.00  0.00    -0.035 A 
HETATM   11  C11 UNK     1      18.605   2.574  30.968  1.00  0.00     0.013 A 
HETATM   12  C13 UNK     1      18.299  -1.206  36.695  1.00  0.00     0.002 A 
HETATM   13  C14 UNK     1      17.990   0.097  37.078  1.00  0.00     0.001 A 
ENDROOT
BRANCH  10  14
HETATM   14  C15 UNK     1      18.055   4.864  31.693  1.00  0.00     0.015 C 
HETATM   15  C16 UNK     1      17.257   5.699  32.393  1.00  0.00     0.056 C 
BRANCH  15  16
HETATM   16  C17 UNK     1      17.108   7.122  31.979  1.00  0.00     0.182 C 
HETATM   17  O1  UNK     1      17.508   7.540  30.898  1.00  0.00    -0.288 OA
BRANCH  16  18
HETATM   18  C18 UNK     1      16.420   8.043  32.915  1.00  0.00     0.014 A 
HETATM   19  C19 UNK     1      15.108   7.787  33.263  1.00  0.00     0.017 A 
HETATM   20  C21 UNK     1      14.461   8.655  34.143  1.00  0.00     0.020 A 
HETATM   21  C23 UNK     1      15.138   9.761  34.657  1.00  0.00     0.011 A 
HETATM   22 Br1  UNK     1      14.261  10.935  35.849  1.00  0.00    -0.051 Br
HETATM   23  C22 UNK     1      16.463   9.999  34.291  1.00  0.00     0.020 A 
HETATM   24  C20 UNK     1      17.110   9.131  33.411  1.00  0.00     0.017 A 
ENDBRANCH  16  18
ENDBRANCH  15  16
ENDBRANCH  10  14
BRANCH   1  25
HETATM   25  C5  UNK     1      19.153  -1.665  32.319  1.00  0.00     0.125 C 
HETATM   26  C12 UNK     1      20.640  -1.964  32.378  1.00  0.00     0.027 C 
ENDBRANCH   1  25
TORSDOF 4
ENDMDL
MODEL 7
REMARK VINA RESULT:      -8.2     21.029     22.543
REMARK  4 active torsions:
REMARK  status: ('A' for Active; 'I' for Inactive)
REMARK    1  A    between atoms: C5_8  and  N1_3 
REMARK    2  A    between atoms: C10_13  and  C15_18 
REMARK    3  A    between atoms: C16_19  and  C17_20 
REMARK    4  A    between atoms: C17_20  and  C18_21 
ROOT
HETATM    1  N1  UNK     1      23.069  13.533  13.344  1.00  0.00    -0.346 N 
HETATM    2  C1  UNK     1      21.927  13.161  12.673  1.00  0.00     0.046 A 
HETATM    3  C2  UNK     1      22.327  12.503  11.510  1.00  0.00     0.004 A 
HETATM    4  C3  UNK     1      24.190  13.138  12.655  1.00  0.00     0.046 A 
HETATM    5  C4  UNK     1      23.758  12.489  11.498  1.00  0.00     0.003 A 
HETATM    6  C6  UNK     1      21.333  12.016  10.635  1.00  0.00     0.026 A 
HETATM    7  C7  UNK     1      20.582  13.356  13.009  1.00  0.00     0.031 A 
HETATM    8  C8  UNK     1      25.545  13.306  12.966  1.00  0.00     0.030 A 
HETATM    9  C9  UNK     1      24.727  11.983  10.606  1.00  0.00     0.014 A 
HETATM   10  C10 UNK     1      19.984  12.203  10.957  1.00  0.00    -0.035 A 
HETATM   11  C11 UNK     1      19.617  12.863  12.127  1.00  0.00     0.013 A 
HETATM   12  C13 UNK     1      26.485  12.796  12.068  1.00  0.00     0.002 A 
HETATM   13  C14 UNK     1      26.084  12.143  10.905  1.00  0.00     0.001 A 
ENDROOT
BRANCH  10  14
HETATM   14  C15 UNK     1      18.956  11.701  10.058  1.00  0.00     0.015 C 
HETATM   15  C16 UNK     1      17.699  11.366  10.422  1.00  0.00     0.056 C 
BRANCH  15  16
HETATM   16  C17 UNK     1      16.737  10.843   9.412  1.00  0.00     0.182 C 
HETATM   17  O1  UNK     1      16.319  11.525   8.483  1.00  0.00    -0.288 OA
BRANCH  16  18
HETATM   18  C18 UNK     1      16.306   9.431   9.538  1.00  0.00     0.014 A 
HETATM   19  C19 UNK     1      15.043   9.074   9.108  1.00  0.00     0.017 A 
HETATM   20  C21 UNK     1      14.638   7.744   9.229  1.00  0.00     0.020 A 
HETATM   21  C23 UNK     1      15.505   6.798   9.777  1.00  0.00     0.011 A 
HETATM   22 Br1  UNK     1      14.956   4.997   9.940  1.00  0.00    -0.051 Br
HETATM   23  C22 UNK     1      16.777   7.182  10.204  1.00  0.00     0.020 A 
HETATM   24  C20 UNK     1      17.181   8.511  10.083  1.00  0.00     0.017 A 
ENDBRANCH  16  18
ENDBRANCH  15  16
ENDBRANCH  10  14
BRANCH   1  25
HETATM   25  C5  UNK     1      23.087  14.243  14.608  1.00  0.00     0.125 C 
HETATM   26  C12 UNK     1      23.108  13.300  15.797  1.00  0.00     0.027 C 
ENDBRANCH   1  25
TORSDOF 4
ENDMDL
MODEL 8
REMARK VINA RESULT:      -8.2     15.385     17.087
REMARK  4 active torsions:
REMARK  status: ('A' for Active; 'I' for Inactive)
REMARK    1  A    between atoms: C5_8  and  N1_3 
REMARK    2  A    between atoms: C10_13  and  C15_18 
REMARK    3  A    between atoms: C16_19  and  C17_20 
REMARK    4  A    between atoms: C17_20  and  C18_21 
ROOT
HETATM    1  N1  UNK     1      22.702  -9.503  37.151  1.00  0.00    -0.346 N 
HETATM    2  C1  UNK     1      23.928  -8.962  37.463  1.00  0.00     0.046 A 
HETATM    3  C2  UNK     1      23.710  -7.969  38.417  1.00  0.00     0.004 A 
HETATM    4  C3  UNK     1      21.702  -8.894  37.870  1.00  0.00     0.046 A 
HETATM    5  C4  UNK     1      22.303  -7.925  38.674  1.00  0.00     0.003 A 
HETATM    6  C6  UNK     1      24.820  -7.252  38.910  1.00  0.00     0.026 A 
HETATM    7  C7  UNK     1      25.201  -9.278  36.976  1.00  0.00     0.031 A 
HETATM    8  C8  UNK     1      20.321  -9.126  37.869  1.00  0.00     0.030 A 
HETATM    9  C9  UNK     1      21.483  -7.148  39.520  1.00  0.00     0.014 A 
HETATM   10  C10 UNK     1      26.100  -7.556  38.433  1.00  0.00    -0.035 A 
HETATM   11  C11 UNK     1      26.285  -8.554  37.480  1.00  0.00     0.013 A 
HETATM   12  C13 UNK     1      19.532  -8.343  38.715  1.00  0.00     0.002 A 
HETATM   13  C14 UNK     1      20.102  -7.368  39.529  1.00  0.00     0.001 A 
ENDROOT
BRANCH  10  14
HETATM   14  C15 UNK     1      27.249  -6.819  38.939  1.00  0.00     0.015 C 
HETATM   15  C16 UNK     1      27.970  -5.921  38.232  1.00  0.00     0.056 C 
BRANCH  15  16
HETATM   16  C17 UNK     1      29.141  -5.241  38.854  1.00  0.00     0.182 C 
HETATM   17  O1  UNK     1      29.035  -4.494  39.820  1.00  0.00    -0.288 OA
BRANCH  16  18
HETATM   18  C18 UNK     1      30.481  -5.520  38.284  1.00  0.00     0.014 A 
HETATM   19  C19 UNK     1      31.138  -4.518  37.598  1.00  0.00     0.017 A 
HETATM   20  C21 UNK     1      32.399  -4.781  37.060  1.00  0.00     0.020 A 
HETATM   21  C23 UNK     1      32.976  -6.041  37.220  1.00  0.00     0.011 A 
HETATM   22 Br1  UNK     1      34.683  -6.397  36.492  1.00  0.00    -0.051 Br
HETATM   23  C22 UNK     1      32.293  -7.037  37.918  1.00  0.00     0.020 A 
HETATM   24  C20 UNK     1      31.033  -6.774  38.455  1.00  0.00     0.017 A 
ENDBRANCH  16  18
ENDBRANCH  15  16
ENDBRANCH  10  14
BRANCH   1  25
HETATM   25  C5  UNK     1      22.494 -10.572  36.195  1.00  0.00     0.125 C 
HETATM   26  C12 UNK     1      21.838 -10.081  34.917  1.00  0.00     0.027 C 
ENDBRANCH   1  25
TORSDOF 4
ENDMDL
MODEL 9
REMARK VINA RESULT:      -8.0      4.495      9.016
REMARK  4 active torsions:
REMARK  status: ('A' for Active; 'I' for Inactive)
REMARK    1  A    between atoms: C5_8  and  N1_3 
REMARK    2  A    between atoms: C10_13  and  C15_18 
REMARK    3  A    between atoms: C16_19  and  C17_20 
REMARK    4  A    between atoms: C17_20  and  C18_21 
ROOT
HETATM    1  N1  UNK     1      18.720   2.239  31.143  1.00  0.00    -0.346 N 
HETATM    2  C1  UNK     1      18.684   3.606  31.289  1.00  0.00     0.046 A 
HETATM    3  C2  UNK     1      18.434   3.871  32.636  1.00  0.00     0.004 A 
HETATM    4  C3  UNK     1      18.502   1.613  32.348  1.00  0.00     0.046 A 
HETATM    5  C4  UNK     1      18.318   2.611  33.305  1.00  0.00     0.003 A 
HETATM    6  C6  UNK     1      18.347   5.216  33.053  1.00  0.00     0.026 A 
HETATM    7  C7  UNK     1      18.854   4.618  30.337  1.00  0.00     0.031 A 
HETATM    8  C8  UNK     1      18.454   0.249  32.658  1.00  0.00     0.030 A 
HETATM    9  C9  UNK     1      18.073   2.228  34.640  1.00  0.00     0.014 A 
HETATM   10  C10 UNK     1      18.515   6.239  32.114  1.00  0.00    -0.035 A 
HETATM   11  C11 UNK     1      18.765   5.941  30.776  1.00  0.00     0.013 A 
HETATM   12  C13 UNK     1      18.210  -0.105  33.987  1.00  0.00     0.002 A 
HETATM   13  C14 UNK     1      18.022   0.868  34.965  1.00  0.00     0.001 A 
ENDROOT
BRANCH  10  14
HETATM   14  C15 UNK     1      18.427   7.627  32.541  1.00  0.00     0.015 C 
HETATM   15  C16 UNK     1      18.688   8.076  33.788  1.00  0.00     0.056 C 
BRANCH  15  16
HETATM   16  C17 UNK     1      18.544   9.523  34.112  1.00  0.00     0.182 C 
HETATM   17  O1  UNK     1      19.508  10.262  34.277  1.00  0.00    -0.288 OA
BRANCH  16  18
HETATM   18  C18 UNK     1      17.171  10.074  34.204  1.00  0.00     0.014 A 
HETATM   19  C19 UNK     1      16.990  11.440  34.113  1.00  0.00     0.017 A 
HETATM   20  C21 UNK     1      15.697  11.958  34.201  1.00  0.00     0.020 A 
HETATM   21  C23 UNK     1      14.612  11.099  34.377  1.00  0.00     0.011 A 
HETATM   22 Br1  UNK     1      12.862  11.801  34.496  1.00  0.00    -0.051 Br
HETATM   23  C22 UNK     1      14.820   9.722  34.465  1.00  0.00     0.020 A 
HETATM   24  C20 UNK     1      16.112   9.205  34.378  1.00  0.00     0.017 A 
ENDBRANCH  16  18
ENDBRANCH  15  16
ENDBRANCH  10  14
BRANCH   1  25
HETATM   25  C5  UNK     1      18.958   1.551  29.890  1.00  0.00     0.125 C 
HETATM   26  C12 UNK     1      17.825   1.751  28.900  1.00  0.00     0.027 C 
ENDBRANCH   1  25
TORSDOF 4
ENDMDL
MODEL 10
REMARK VINA RESULT:      -8.0     14.301     17.133
REMARK  4 active torsions:
REMARK  status: ('A' for Active; 'I' for Inactive)
REMARK    1  A    between atoms: C5_8  and  N1_3 
REMARK    2  A    between atoms: C10_13  and  C15_18 
REMARK    3  A    between atoms: C16_19  and  C17_20 
REMARK    4  A    between atoms: C17_20  and  C18_21 
ROOT
HETATM    1  N1  UNK     1      29.852  -7.935  37.170  1.00  0.00    -0.346 N 
HETATM    2  C1  UNK     1      28.555  -8.191  37.547  1.00  0.00     0.046 A 
HETATM    3  C2  UNK     1      28.098  -7.072  38.242  1.00  0.00     0.004 A 
HETATM    4  C3  UNK     1      30.248  -6.690  37.597  1.00  0.00     0.046 A 
HETATM    5  C4  UNK     1      29.168  -6.123  38.275  1.00  0.00     0.003 A 
HETATM    6  C6  UNK     1      26.779  -7.081  38.742  1.00  0.00     0.026 A 
HETATM    7  C7  UNK     1      27.759  -9.321  37.324  1.00  0.00     0.031 A 
HETATM    8  C8  UNK     1      31.472  -6.029  37.437  1.00  0.00     0.030 A 
HETATM    9  C9  UNK     1      29.318  -4.830  38.819  1.00  0.00     0.014 A 
HETATM   10  C10 UNK     1      25.971  -8.203  38.527  1.00  0.00    -0.035 A 
HETATM   11  C11 UNK     1      26.456  -9.305  37.828  1.00  0.00     0.013 A 
HETATM   12  C13 UNK     1      31.595  -4.750  37.985  1.00  0.00     0.002 A 
HETATM   13  C14 UNK     1      30.536  -4.157  38.667  1.00  0.00     0.001 A 
ENDROOT
BRANCH  10  14
HETATM   14  C15 UNK     1      24.609  -8.216  39.041  1.00  0.00     0.015 C 
HETATM   15  C16 UNK     1      23.500  -7.962  38.312  1.00  0.00     0.056 C 
BRANCH  15  16
HETATM   16  C17 UNK     1      22.156  -7.986  38.955  1.00  0.00     0.182 C 
HETATM   17  O1  UNK     1      22.006  -8.070  40.169  1.00  0.00    -0.288 OA
BRANCH  16  18
HETATM   18  C18 UNK     1      20.970  -7.872  38.074  1.00  0.00     0.014 A 
HETATM   19  C19 UNK     1      19.723  -7.713  38.646  1.00  0.00     0.017 A 
HETATM   20  C21 UNK     1      18.607  -7.607  37.815  1.00  0.00     0.020 A 
HETATM   21  C23 UNK     1      18.761  -7.662  36.429  1.00  0.00     0.011 A 
HETATM   22 Br1  UNK     1      17.249  -7.518  35.305  1.00  0.00    -0.051 Br
HETATM   23  C22 UNK     1      20.030  -7.823  35.875  1.00  0.00     0.020 A 
HETATM   24  C20 UNK     1      21.146  -7.929  36.705  1.00  0.00     0.017 A 
ENDBRANCH  16  18
ENDBRANCH  15  16
ENDBRANCH  10  14
BRANCH   1  25
HETATM   25  C5  UNK     1      30.689  -8.852  36.422  1.00  0.00     0.125 C 
HETATM   26  C12 UNK     1      31.430  -9.822  37.325  1.00  0.00     0.027 C 
ENDBRANCH   1  25
TORSDOF 4
ENDMDL
