MODEL 1
REMARK VINA RESULT:      -8.1      0.000      0.000
REMARK  2 active torsions:
REMARK  status: ('A' for Active; 'I' for Inactive)
REMARK    1  A    between atoms: C5_10  and  O2_3 
REMARK    2  A    between atoms: C3_8  and  C6_11 
ROOT
HETATM    1 Cl1  UNK     1      17.709   8.032  34.349  1.00  0.00    -0.084 Cl
HETATM    2  O1  UNK     1      18.854   3.511  30.769  1.00  0.00    -0.306 OA
HETATM    3  O3  UNK     1      18.026   2.689  34.673  1.00  0.00    -0.284 OA
HETATM    4  C1  UNK     1      18.287   4.317  32.987  1.00  0.00     0.052 A 
HETATM    5  C2  UNK     1      18.580   4.532  31.642  1.00  0.00     0.090 A 
HETATM    6  C3  UNK     1      18.828   2.209  31.244  1.00  0.00     0.125 A 
HETATM    7  C4  UNK     1      18.271   2.938  33.501  1.00  0.00     0.220 A 
HETATM    8  C5  UNK     1      18.570   1.867  32.520  1.00  0.00     0.152 A 
HETATM    9  C7  UNK     1      18.016   5.396  33.831  1.00  0.00     0.042 A 
HETATM   10  C8  UNK     1      18.604   5.829  31.132  1.00  0.00     0.040 A 
HETATM   11  C9  UNK     1      18.040   6.694  33.318  1.00  0.00     0.035 A 
HETATM   12  C10 UNK     1      18.334   6.911  31.972  1.00  0.00     0.026 A 
ENDROOT
BRANCH   6  13
HETATM   13  C6  UNK     1      19.141   1.212  30.205  1.00  0.00     0.018 A 
HETATM   14  C11 UNK     1      20.154   0.279  30.389  1.00  0.00     0.017 A 
HETATM   15  C13 UNK     1      20.425  -0.649  29.391  1.00  0.00     0.020 A 
HETATM   16  C14 UNK     1      19.658  -0.604  28.238  1.00  0.00     0.116 A 
HETATM   17  N1  UNK     1      18.665   0.288  28.023  1.00  0.00    -0.272 NA
HETATM   18  C12 UNK     1      18.431   1.175  29.016  1.00  0.00     0.130 A 
ENDBRANCH   6  13
BRANCH   8  19
HETATM   19  O2  UNK     1      18.586   0.564  32.967  1.00  0.00    -0.355 OA
HETATM   20  H7  UNK     1      18.244   0.523  33.875  1.00  0.00     0.218 HD
ENDBRANCH   8  19
TORSDOF 2
ENDMDL
MODEL 2
REMARK VINA RESULT:      -7.6     22.428     24.122
REMARK  2 active torsions:
REMARK  status: ('A' for Active; 'I' for Inactive)
REMARK    1  A    between atoms: C5_10  and  O2_3 
REMARK    2  A    between atoms: C3_8  and  C6_11 
ROOT
HETATM    1 Cl1  UNK     1      18.281  10.704  10.197  1.00  0.00    -0.084 Cl
HETATM    2  O1  UNK     1      13.245   8.477   8.136  1.00  0.00    -0.306 OA
HETATM    3  O3  UNK     1      15.184   6.416  11.068  1.00  0.00    -0.284 OA
HETATM    4  C1  UNK     1      15.131   8.301   9.654  1.00  0.00     0.052 A 
HETATM    5  C2  UNK     1      14.423   8.957   8.649  1.00  0.00     0.090 A 
HETATM    6  C3  UNK     1      12.735   7.294   8.647  1.00  0.00     0.125 A 
HETATM    7  C4  UNK     1      14.602   7.038  10.190  1.00  0.00     0.220 A 
HETATM    8  C5  UNK     1      13.325   6.560   9.608  1.00  0.00     0.152 A 
HETATM    9  C7  UNK     1      16.327   8.837  10.137  1.00  0.00     0.042 A 
HETATM   10  C8  UNK     1      14.905  10.154   8.122  1.00  0.00     0.040 A 
HETATM   11  C9  UNK     1      16.809  10.036   9.609  1.00  0.00     0.035 A 
HETATM   12  C10 UNK     1      16.100  10.693   8.603  1.00  0.00     0.026 A 
ENDROOT
BRANCH   6  13
HETATM   13  C6  UNK     1      11.468   6.892   8.009  1.00  0.00     0.018 A 
HETATM   14  C11 UNK     1      11.444   6.418   6.702  1.00  0.00     0.017 A 
HETATM   15  C13 UNK     1      10.233   6.046   6.128  1.00  0.00     0.020 A 
HETATM   16  C14 UNK     1       9.087   6.165   6.897  1.00  0.00     0.116 A 
HETATM   17  N1  UNK     1       9.073   6.621   8.170  1.00  0.00    -0.272 NA
HETATM   18  C12 UNK     1      10.268   6.973   8.695  1.00  0.00     0.130 A 
ENDBRANCH   6  13
BRANCH   8  19
HETATM   19  O2  UNK     1      12.808   5.369  10.069  1.00  0.00    -0.355 OA
HETATM   20  H7  UNK     1      11.838   5.401  10.049  1.00  0.00     0.218 HD
ENDBRANCH   8  19
TORSDOF 2
ENDMDL
MODEL 3
REMARK VINA RESULT:      -7.6      3.253      4.776
REMARK  2 active torsions:
REMARK  status: ('A' for Active; 'I' for Inactive)
REMARK    1  A    between atoms: C5_10  and  O2_3 
REMARK    2  A    between atoms: C3_8  and  C6_11 
ROOT
HETATM    1 Cl1  UNK     1      15.885  12.244  34.600  1.00  0.00    -0.084 Cl
HETATM    2  O1  UNK     1      17.016   6.945  32.316  1.00  0.00    -0.306 OA
HETATM    3  O3  UNK     1      19.972   8.776  34.440  1.00  0.00    -0.284 OA
HETATM    4  C1  UNK     1      17.767   8.858  33.607  1.00  0.00     0.052 A 
HETATM    5  C2  UNK     1      16.800   8.181  32.868  1.00  0.00     0.090 A 
HETATM    6  C3  UNK     1      18.248   6.341  32.509  1.00  0.00     0.125 A 
HETATM    7  C4  UNK     1      19.082   8.227  33.805  1.00  0.00     0.220 A 
HETATM    8  C5  UNK     1      19.269   6.890  33.192  1.00  0.00     0.152 A 
HETATM    9  C7  UNK     1      17.491  10.116  34.146  1.00  0.00     0.042 A 
HETATM   10  C8  UNK     1      15.547   8.759  32.664  1.00  0.00     0.040 A 
HETATM   11  C9  UNK     1      16.237  10.693  33.941  1.00  0.00     0.035 A 
HETATM   12  C10 UNK     1      15.266  10.016  33.202  1.00  0.00     0.026 A 
ENDROOT
BRANCH   6  13
HETATM   13  C6  UNK     1      18.348   5.019  31.864  1.00  0.00     0.018 A 
HETATM   14  C11 UNK     1      18.815   4.893  30.561  1.00  0.00     0.017 A 
HETATM   15  C13 UNK     1      18.898   3.633  29.980  1.00  0.00     0.020 A 
HETATM   16  C14 UNK     1      18.506   2.542  30.737  1.00  0.00     0.116 A 
HETATM   17  N1  UNK     1      18.047   2.626  32.006  1.00  0.00    -0.272 NA
HETATM   18  C12 UNK     1      17.980   3.867  32.539  1.00  0.00     0.130 A 
ENDBRANCH   6  13
BRANCH   8  19
HETATM   19  O2  UNK     1      20.494   6.276  33.338  1.00  0.00    -0.355 OA
HETATM   20  H7  UNK     1      21.191   6.946  33.428  1.00  0.00     0.218 HD
ENDBRANCH   8  19
TORSDOF 2
ENDMDL
MODEL 4
REMARK VINA RESULT:      -7.5      4.596      6.776
REMARK  2 active torsions:
REMARK  status: ('A' for Active; 'I' for Inactive)
REMARK    1  A    between atoms: C5_10  and  O2_3 
REMARK    2  A    between atoms: C3_8  and  C6_11 
ROOT
HETATM    1 Cl1  UNK     1      21.400  -0.897  28.406  1.00  0.00    -0.084 Cl
HETATM    2  O1  UNK     1      18.210   0.635  33.102  1.00  0.00    -0.306 OA
HETATM    3  O3  UNK     1      20.316  -2.849  33.281  1.00  0.00    -0.284 OA
HETATM    4  C1  UNK     1      19.714  -0.942  32.032  1.00  0.00     0.052 A 
HETATM    5  C2  UNK     1      18.969   0.235  32.032  1.00  0.00     0.090 A 
HETATM    6  C3  UNK     1      18.191  -0.164  34.234  1.00  0.00     0.125 A 
HETATM    7  C4  UNK     1      19.687  -1.801  33.226  1.00  0.00     0.220 A 
HETATM    8  C5  UNK     1      18.855  -1.328  34.359  1.00  0.00     0.152 A 
HETATM    9  C7  UNK     1      20.469  -1.299  30.912  1.00  0.00     0.042 A 
HETATM   10  C8  UNK     1      18.975   1.065  30.911  1.00  0.00     0.040 A 
HETATM   11  C9  UNK     1      20.474  -0.467  29.792  1.00  0.00     0.035 A 
HETATM   12  C10 UNK     1      19.729   0.712  29.791  1.00  0.00     0.026 A 
ENDROOT
BRANCH   6  13
HETATM   13  C6  UNK     1      17.337   0.379  35.306  1.00  0.00     0.018 A 
HETATM   14  C11 UNK     1      17.887   1.081  36.372  1.00  0.00     0.017 A 
HETATM   15  C13 UNK     1      17.056   1.581  37.368  1.00  0.00     0.020 A 
HETATM   16  C14 UNK     1      15.694   1.355  37.251  1.00  0.00     0.116 A 
HETATM   17  N1  UNK     1      15.124   0.678  36.229  1.00  0.00    -0.272 NA
HETATM   18  C12 UNK     1      15.963   0.206  35.279  1.00  0.00     0.130 A 
ENDBRANCH   6  13
BRANCH   8  19
HETATM   19  O2  UNK     1      18.788  -2.116  35.487  1.00  0.00    -0.355 OA
HETATM   20  H7  UNK     1      18.383  -2.970  35.270  1.00  0.00     0.218 HD
ENDBRANCH   8  19
TORSDOF 2
ENDMDL
MODEL 5
REMARK VINA RESULT:      -7.4     24.112     25.130
REMARK  2 active torsions:
REMARK  status: ('A' for Active; 'I' for Inactive)
REMARK    1  A    between atoms: C5_10  and  O2_3 
REMARK    2  A    between atoms: C3_8  and  C6_11 
ROOT
HETATM    1 Cl1  UNK     1       3.655   3.192  13.060  1.00  0.00    -0.084 Cl
HETATM    2  O1  UNK     1       7.758   4.524   9.065  1.00  0.00    -0.306 OA
HETATM    3  O3  UNK     1       6.657   7.424  11.707  1.00  0.00    -0.284 OA
HETATM    4  C1  UNK     1       6.388   5.208  10.948  1.00  0.00     0.052 A 
HETATM    5  C2  UNK     1       6.805   4.261  10.015  1.00  0.00     0.090 A 
HETATM    6  C3  UNK     1       8.335   5.784   9.038  1.00  0.00     0.125 A 
HETATM    7  C4  UNK     1       6.988   6.551  10.917  1.00  0.00     0.220 A 
HETATM    8  C5  UNK     1       8.015   6.789   9.875  1.00  0.00     0.152 A 
HETATM    9  C7  UNK     1       5.413   4.883  11.894  1.00  0.00     0.042 A 
HETATM   10  C8  UNK     1       6.250   2.982  10.022  1.00  0.00     0.040 A 
HETATM   11  C9  UNK     1       4.858   3.602  11.900  1.00  0.00     0.035 A 
HETATM   12  C10 UNK     1       5.275   2.654  10.966  1.00  0.00     0.026 A 
ENDROOT
BRANCH   6  13
HETATM   13  C6  UNK     1       9.340   5.933   7.970  1.00  0.00     0.018 A 
HETATM   14  C11 UNK     1       8.964   6.270   6.675  1.00  0.00     0.017 A 
HETATM   15  C13 UNK     1       9.935   6.404   5.689  1.00  0.00     0.020 A 
HETATM   16  C14 UNK     1      11.256   6.194   6.047  1.00  0.00     0.116 A 
HETATM   17  N1  UNK     1      11.659   5.866   7.295  1.00  0.00    -0.272 NA
HETATM   18  C12 UNK     1      10.688   5.744   8.228  1.00  0.00     0.130 A 
ENDBRANCH   6  13
BRANCH   8  19
HETATM   19  O2  UNK     1       8.585   8.040   9.800  1.00  0.00    -0.355 OA
HETATM   20  H7  UNK     1       8.843   8.340  10.686  1.00  0.00     0.218 HD
ENDBRANCH   8  19
TORSDOF 2
ENDMDL
MODEL 6
REMARK VINA RESULT:      -7.3      3.811      6.274
REMARK  2 active torsions:
REMARK  status: ('A' for Active; 'I' for Inactive)
REMARK    1  A    between atoms: C5_10  and  O2_3 
REMARK    2  A    between atoms: C3_8  and  C6_11 
ROOT
HETATM    1 Cl1  UNK     1      18.065  -2.262  36.509  1.00  0.00    -0.084 Cl
HETATM    2  O1  UNK     1      18.178   3.369  34.822  1.00  0.00    -0.306 OA
HETATM    3  O3  UNK     1      18.483   0.508  31.937  1.00  0.00    -0.284 OA
HETATM    4  C1  UNK     1      18.253   1.017  34.228  1.00  0.00     0.052 A 
HETATM    5  C2  UNK     1      18.156   2.043  35.166  1.00  0.00     0.090 A 
HETATM    6  C3  UNK     1      18.292   3.703  33.482  1.00  0.00     0.125 A 
HETATM    7  C4  UNK     1      18.388   1.365  32.805  1.00  0.00     0.220 A 
HETATM    8  C5  UNK     1      18.404   2.812  32.480  1.00  0.00     0.152 A 
HETATM    9  C7  UNK     1      18.225  -0.318  34.637  1.00  0.00     0.042 A 
HETATM   10  C8  UNK     1      18.030   1.739  36.522  1.00  0.00     0.040 A 
HETATM   11  C9  UNK     1      18.099  -0.620  35.994  1.00  0.00     0.035 A 
HETATM   12  C10 UNK     1      18.002   0.406  36.934  1.00  0.00     0.026 A 
ENDROOT
BRANCH   6  13
HETATM   13  C6  UNK     1      18.304   5.159  33.251  1.00  0.00     0.018 A 
HETATM   14  C11 UNK     1      19.447   5.913  33.492  1.00  0.00     0.017 A 
HETATM   15  C13 UNK     1      19.427   7.284  33.265  1.00  0.00     0.020 A 
HETATM   16  C14 UNK     1      18.251   7.847  32.799  1.00  0.00     0.116 A 
HETATM   17  N1  UNK     1      17.121   7.147  32.553  1.00  0.00    -0.272 NA
HETATM   18  C12 UNK     1      17.177   5.816  32.785  1.00  0.00     0.130 A 
ENDBRANCH   6  13
BRANCH   8  19
HETATM   19  O2  UNK     1      18.550   3.178  31.160  1.00  0.00    -0.355 OA
HETATM   20  H7  UNK     1      18.417   2.406  30.586  1.00  0.00     0.218 HD
ENDBRANCH   8  19
TORSDOF 2
ENDMDL
MODEL 7
REMARK VINA RESULT:      -7.3      6.077      9.348
REMARK  2 active torsions:
REMARK  status: ('A' for Active; 'I' for Inactive)
REMARK    1  A    between atoms: C5_10  and  O2_3 
REMARK    2  A    between atoms: C3_8  and  C6_11 
ROOT
HETATM    1 Cl1  UNK     1      19.926   5.163  30.946  1.00  0.00    -0.084 Cl
HETATM    2  O1  UNK     1      17.389   9.287  34.282  1.00  0.00    -0.306 OA
HETATM    3  O3  UNK     1      15.400   8.039  30.952  1.00  0.00    -0.284 OA
HETATM    4  C1  UNK     1      17.310   7.856  32.324  1.00  0.00     0.052 A 
HETATM    5  C2  UNK     1      17.940   8.327  33.473  1.00  0.00     0.090 A 
HETATM    6  C3  UNK     1      16.148   9.804  33.945  1.00  0.00     0.125 A 
HETATM    7  C4  UNK     1      15.998   8.410  31.953  1.00  0.00     0.220 A 
HETATM    8  C5  UNK     1      15.441   9.443  32.859  1.00  0.00     0.152 A 
HETATM    9  C7  UNK     1      17.919   6.876  31.537  1.00  0.00     0.042 A 
HETATM   10  C8  UNK     1      19.185   7.820  33.844  1.00  0.00     0.040 A 
HETATM   11  C9  UNK     1      19.165   6.370  31.909  1.00  0.00     0.035 A 
HETATM   12  C10 UNK     1      19.797   6.840  33.061  1.00  0.00     0.026 A 
ENDROOT
BRANCH   6  13
HETATM   13  C6  UNK     1      15.674  10.825  34.896  1.00  0.00     0.018 A 
HETATM   14  C11 UNK     1      14.544  10.608  35.675  1.00  0.00     0.017 A 
HETATM   15  C13 UNK     1      14.121  11.591  36.563  1.00  0.00     0.020 A 
HETATM   16  C14 UNK     1      14.858  12.761  36.634  1.00  0.00     0.116 A 
HETATM   17  N1  UNK     1      15.961  13.008  35.893  1.00  0.00    -0.272 NA
HETATM   18  C12 UNK     1      16.342  12.030  35.040  1.00  0.00     0.130 A 
ENDBRANCH   6  13
BRANCH   8  19
HETATM   19  O2  UNK     1      14.224  10.001  32.534  1.00  0.00    -0.355 OA
HETATM   20  H7  UNK     1      14.012   9.814  31.606  1.00  0.00     0.218 HD
ENDBRANCH   8  19
TORSDOF 2
ENDMDL
MODEL 8
REMARK VINA RESULT:      -7.3     23.115     23.784
REMARK  2 active torsions:
REMARK  status: ('A' for Active; 'I' for Inactive)
REMARK    1  A    between atoms: C5_10  and  O2_3 
REMARK    2  A    between atoms: C3_8  and  C6_11 
ROOT
HETATM    1 Cl1  UNK     1      16.817   9.726  10.128  1.00  0.00    -0.084 Cl
HETATM    2  O1  UNK     1      11.524   7.208   9.674  1.00  0.00    -0.306 OA
HETATM    3  O3  UNK     1      14.782   5.003   8.612  1.00  0.00    -0.284 OA
HETATM    4  C1  UNK     1      13.932   7.050   9.419  1.00  0.00     0.052 A 
HETATM    5  C2  UNK     1      12.779   7.752   9.763  1.00  0.00     0.090 A 
HETATM    6  C3  UNK     1      11.399   5.901   9.230  1.00  0.00     0.125 A 
HETATM    7  C4  UNK     1      13.805   5.666   8.934  1.00  0.00     0.220 A 
HETATM    8  C5  UNK     1      12.429   5.120   8.857  1.00  0.00     0.152 A 
HETATM    9  C7  UNK     1      15.186   7.655   9.529  1.00  0.00     0.042 A 
HETATM   10  C8  UNK     1      12.873   9.065  10.221  1.00  0.00     0.040 A 
HETATM   11  C9  UNK     1      15.278   8.970   9.989  1.00  0.00     0.035 A 
HETATM   12  C10 UNK     1      14.124   9.674  10.334  1.00  0.00     0.026 A 
ENDROOT
BRANCH   6  13
HETATM   13  C6  UNK     1       9.999   5.442   9.180  1.00  0.00     0.018 A 
HETATM   14  C11 UNK     1       9.485   4.604  10.163  1.00  0.00     0.017 A 
HETATM   15  C13 UNK     1       8.161   4.189  10.089  1.00  0.00     0.020 A 
HETATM   16  C14 UNK     1       7.399   4.637   9.023  1.00  0.00     0.116 A 
HETATM   17  N1  UNK     1       7.864   5.452   8.049  1.00  0.00    -0.272 NA
HETATM   18  C12 UNK     1       9.156   5.835   8.154  1.00  0.00     0.130 A 
ENDBRANCH   6  13
BRANCH   8  19
HETATM   19  O2  UNK     1      12.267   3.834   8.388  1.00  0.00    -0.355 OA
HETATM   20  H7  UNK     1      13.112   3.358   8.432  1.00  0.00     0.218 HD
ENDBRANCH   8  19
TORSDOF 2
ENDMDL
MODEL 9
REMARK VINA RESULT:      -7.3      3.810      6.688
REMARK  2 active torsions:
REMARK  status: ('A' for Active; 'I' for Inactive)
REMARK    1  A    between atoms: C5_10  and  O2_3 
REMARK    2  A    between atoms: C3_8  and  C6_11 
ROOT
HETATM    1 Cl1  UNK     1      18.492  -1.016  32.734  1.00  0.00    -0.084 Cl
HETATM    2  O1  UNK     1      18.294   4.784  33.681  1.00  0.00    -0.306 OA
HETATM    3  O3  UNK     1      18.790   3.493  29.848  1.00  0.00    -0.284 OA
HETATM    4  C1  UNK     1      18.510   2.936  32.122  1.00  0.00     0.052 A 
HETATM    5  C2  UNK     1      18.346   3.441  33.410  1.00  0.00     0.090 A 
HETATM    6  C3  UNK     1      18.401   5.676  32.626  1.00  0.00     0.125 A 
HETATM    7  C4  UNK     1      18.638   3.878  30.999  1.00  0.00     0.220 A 
HETATM    8  C5  UNK     1      18.573   5.320  31.339  1.00  0.00     0.152 A 
HETATM    9  C7  UNK     1      18.556   1.557  31.905  1.00  0.00     0.042 A 
HETATM   10  C8  UNK     1      18.225   2.568  34.491  1.00  0.00     0.040 A 
HETATM   11  C9  UNK     1      18.436   0.685  32.989  1.00  0.00     0.035 A 
HETATM   12  C10 UNK     1      18.270   1.190  34.279  1.00  0.00     0.026 A 
ENDROOT
BRANCH   6  13
HETATM   13  C6  UNK     1      18.331   7.085  33.054  1.00  0.00     0.018 A 
HETATM   14  C11 UNK     1      19.345   7.652  33.816  1.00  0.00     0.017 A 
HETATM   15  C13 UNK     1      19.250   8.983  34.205  1.00  0.00     0.020 A 
HETATM   16  C14 UNK     1      18.132   9.697  33.808  1.00  0.00     0.116 A 
HETATM   17  N1  UNK     1      17.126   9.179  33.067  1.00  0.00    -0.272 NA
HETATM   18  C12 UNK     1      17.252   7.882  32.708  1.00  0.00     0.130 A 
ENDBRANCH   6  13
BRANCH   8  19
HETATM   19  O2  UNK     1      18.710   6.234  30.317  1.00  0.00    -0.355 OA
HETATM   20  H7  UNK     1      17.889   6.742  30.217  1.00  0.00     0.218 HD
ENDBRANCH   8  19
TORSDOF 2
ENDMDL
MODEL 10
REMARK VINA RESULT:      -7.3      2.701      4.166
REMARK  2 active torsions:
REMARK  status: ('A' for Active; 'I' for Inactive)
REMARK    1  A    between atoms: C5_10  and  O2_3 
REMARK    2  A    between atoms: C3_8  and  C6_11 
ROOT
HETATM    1 Cl1  UNK     1      17.533   1.314  38.551  1.00  0.00    -0.084 Cl
HETATM    2  O1  UNK     1      18.897  -0.081  33.005  1.00  0.00    -0.306 OA
HETATM    3  O3  UNK     1      17.896   3.786  33.807  1.00  0.00    -0.284 OA
HETATM    4  C1  UNK     1      18.224   1.598  34.622  1.00  0.00     0.052 A 
HETATM    5  C2  UNK     1      18.571   0.293  34.283  1.00  0.00     0.090 A 
HETATM    6  C3  UNK     1      18.887   0.884  32.010  1.00  0.00     0.125 A 
HETATM    7  C4  UNK     1      18.199   2.625  33.569  1.00  0.00     0.220 A 
HETATM    8  C5  UNK     1      18.561   2.176  32.203  1.00  0.00     0.152 A 
HETATM    9  C7  UNK     1      17.901   1.921  35.942  1.00  0.00     0.042 A 
HETATM   10  C8  UNK     1      18.599  -0.700  35.262  1.00  0.00     0.040 A 
HETATM   11  C9  UNK     1      17.930   0.927  36.922  1.00  0.00     0.035 A 
HETATM   12  C10 UNK     1      18.278  -0.380  36.583  1.00  0.00     0.026 A 
ENDROOT
BRANCH   6  13
HETATM   13  C6  UNK     1      19.254   0.350  30.686  1.00  0.00     0.018 A 
HETATM   14  C11 UNK     1      20.190  -0.670  30.560  1.00  0.00     0.017 A 
HETATM   15  C13 UNK     1      20.514  -1.153  29.298  1.00  0.00     0.020 A 
HETATM   16  C14 UNK     1      19.879  -0.589  28.204  1.00  0.00     0.116 A 
HETATM   17  N1  UNK     1      18.964   0.403  28.288  1.00  0.00    -0.272 NA
HETATM   18  C12 UNK     1      18.674   0.848  29.531  1.00  0.00     0.130 A 
ENDBRANCH   6  13
BRANCH   8  19
HETATM   19  O2  UNK     1      18.529   3.104  31.186  1.00  0.00    -0.355 OA
HETATM   20  H7  UNK     1      18.588   4.000  31.554  1.00  0.00     0.218 HD
ENDBRANCH   8  19
TORSDOF 2
ENDMDL
