MODEL 1
REMARK VINA RESULT:     -10.4      0.000      0.000
REMARK  3 active torsions:
REMARK  status: ('A' for Active; 'I' for Inactive)
REMARK    1  A    between atoms: C5_12  and  N1_6 
REMARK       I    between atoms: C6_13  and  N2_7 
REMARK    2  A    between atoms: C5_12  and  C7_14 
REMARK    3  A    between atoms: C6_13  and  C8_15 
ROOT
HETATM    1  O1  UNK     1      16.782  -0.697  35.225  1.00  0.00    -0.267 OA
HETATM    2  N1  UNK     1      20.503  -3.343  37.271  1.00  0.00     0.095 N 
HETATM    3  N2  UNK     1      18.900  -1.497  35.762  1.00  0.00    -0.344 N 
HETATM    4  C1  UNK     1      19.042  -3.325  37.428  1.00  0.00     0.292 C 
HETATM    5  C2  UNK     1      20.868  -3.003  35.890  1.00  0.00     0.292 C 
HETATM    6  C3  UNK     1      18.486  -1.943  37.093  1.00  0.00     0.156 C 
HETATM    7  C4  UNK     1      20.339  -1.621  35.498  1.00  0.00     0.156 C 
HETATM    8  C6  UNK     1      17.962  -0.892  34.928  1.00  0.00     0.260 C 
ENDROOT
BRANCH   8   9
HETATM    9  C8  UNK     1      18.414  -0.445  33.596  1.00  0.00     0.108 A 
HETATM   10  C11 UNK     1      19.017  -1.368  32.836  1.00  0.00     0.037 A 
HETATM   11  C13 UNK     1      19.498  -1.024  31.507  1.00  0.00    -0.001 A 
HETATM   12  C16 UNK     1      19.321   0.276  31.044  1.00  0.00     0.089 A 
HETATM   13  C18 UNK     1      20.133  -1.954  30.681  1.00  0.00     0.014 A 
HETATM   14  O2  UNK     1      18.685   1.242  31.848  1.00  0.00    -0.274 OA
HETATM   15  C19 UNK     1      19.759   0.671  29.781  1.00  0.00     0.038 A 
HETATM   16  C12 UNK     1      18.215   0.943  33.123  1.00  0.00     0.304 A 
HETATM   17  O3  UNK     1      17.663   1.791  33.815  1.00  0.00    -0.259 OA
HETATM   18  C21 UNK     1      20.391  -0.264  28.963  1.00  0.00     0.003 A 
HETATM   19  C20 UNK     1      20.578  -1.573  29.411  1.00  0.00     0.001 A 
ENDBRANCH   8   9
BRANCH   2  20
HETATM   20  C5  UNK     1      21.043  -4.650  37.639  1.00  0.00     0.312 C 
BRANCH  20  21
HETATM   21  C7  UNK     1      20.151  -5.775  37.184  1.00  0.00    -0.008 A 
HETATM   22  C10 UNK     1      19.868  -5.872  35.826  1.00  0.00     0.013 A 
HETATM   23  C15 UNK     1      19.045  -6.901  35.366  1.00  0.00     0.043 A 
HETATM   24  C17 UNK     1      18.512  -7.823  36.266  1.00  0.00     0.118 A 
HETATM   25  C14 UNK     1      18.801  -7.718  37.627  1.00  0.00     0.066 A 
HETATM   26  F1  UNK     1      17.722  -8.810  35.823  1.00  0.00    -0.206 F 
HETATM   27  C9  UNK     1      19.624  -6.689  38.087  1.00  0.00     0.045 A 
HETATM   28 Cl1  UNK     1      19.960  -6.590  39.777  1.00  0.00    -0.084 Cl
ENDBRANCH  20  21
ENDBRANCH   2  20
TORSDOF 3
ENDMDL
MODEL 2
REMARK VINA RESULT:      -9.8     27.148     28.691
REMARK  3 active torsions:
REMARK  status: ('A' for Active; 'I' for Inactive)
REMARK    1  A    between atoms: C5_12  and  N1_6 
REMARK       I    between atoms: C6_13  and  N2_7 
REMARK    2  A    between atoms: C5_12  and  C7_14 
REMARK    3  A    between atoms: C6_13  and  C8_15 
ROOT
HETATM    1  O1  UNK     1      11.521   6.970   5.979  1.00  0.00    -0.267 OA
HETATM    2  N1  UNK     1       7.895   5.344   9.018  1.00  0.00     0.095 N 
HETATM    3  N2  UNK     1      10.282   6.471   7.883  1.00  0.00    -0.344 N 
HETATM    4  C1  UNK     1       8.078   5.386   7.561  1.00  0.00     0.292 C 
HETATM    5  C2  UNK     1       9.190   5.161   9.686  1.00  0.00     0.292 C 
HETATM    6  C3  UNK     1       9.004   6.535   7.172  1.00  0.00     0.156 C 
HETATM    7  C4  UNK     1      10.162   6.290   9.336  1.00  0.00     0.156 C 
HETATM    8  C6  UNK     1      11.461   6.706   7.180  1.00  0.00     0.260 C 
ENDROOT
BRANCH   8   9
HETATM    9  C8  UNK     1      12.732   6.642   7.930  1.00  0.00     0.108 A 
HETATM   10  C11 UNK     1      13.314   7.815   8.207  1.00  0.00     0.037 A 
HETATM   11  C13 UNK     1      14.569   7.856   8.941  1.00  0.00    -0.001 A 
HETATM   12  C16 UNK     1      15.150   6.658   9.347  1.00  0.00     0.089 A 
HETATM   13  C18 UNK     1      15.212   9.057   9.251  1.00  0.00     0.014 A 
HETATM   14  O2  UNK     1      14.531   5.427   9.053  1.00  0.00    -0.274 OA
HETATM   15  C19 UNK     1      16.351   6.627  10.053  1.00  0.00     0.038 A 
HETATM   16  C12 UNK     1      13.331   5.357   8.352  1.00  0.00     0.304 A 
HETATM   17  O3  UNK     1      12.801   4.280   8.100  1.00  0.00    -0.259 OA
HETATM   18  C21 UNK     1      16.985   7.830  10.359  1.00  0.00     0.003 A 
HETATM   19  C20 UNK     1      16.418   9.041   9.960  1.00  0.00     0.001 A 
ENDBRANCH   8   9
BRANCH   2  20
HETATM   20  C5  UNK     1       6.969   4.276   9.390  1.00  0.00     0.312 C 
BRANCH  20  21
HETATM   21  C7  UNK     1       6.086   4.673  10.543  1.00  0.00    -0.008 A 
HETATM   22  C10 UNK     1       5.919   6.029  10.797  1.00  0.00     0.013 A 
HETATM   23  C15 UNK     1       5.108   6.437  11.858  1.00  0.00     0.043 A 
HETATM   24  C17 UNK     1       4.472   5.485  12.655  1.00  0.00     0.118 A 
HETATM   25  C14 UNK     1       4.645   4.126  12.392  1.00  0.00     0.066 A 
HETATM   26  F1  UNK     1       3.695   5.877  13.672  1.00  0.00    -0.206 F 
HETATM   27  C9  UNK     1       5.456   3.719  11.331  1.00  0.00     0.045 A 
HETATM   28 Cl1  UNK     1       5.647   2.029  11.037  1.00  0.00    -0.084 Cl
ENDBRANCH  20  21
ENDBRANCH   2  20
TORSDOF 3
ENDMDL
MODEL 3
REMARK VINA RESULT:      -9.7     28.045     29.819
REMARK  3 active torsions:
REMARK  status: ('A' for Active; 'I' for Inactive)
REMARK    1  A    between atoms: C5_12  and  N1_6 
REMARK       I    between atoms: C6_13  and  N2_7 
REMARK    2  A    between atoms: C5_12  and  C7_14 
REMARK    3  A    between atoms: C6_13  and  C8_15 
ROOT
HETATM    1  O1  UNK     1      15.596   6.330   9.496  1.00  0.00    -0.267 OA
HETATM    2  N1  UNK     1      16.756  11.189   9.220  1.00  0.00     0.095 N 
HETATM    3  N2  UNK     1      15.445   8.651   9.530  1.00  0.00    -0.344 N 
HETATM    4  C1  UNK     1      17.514   9.938   9.083  1.00  0.00     0.292 C 
HETATM    5  C2  UNK     1      15.381  11.003   8.740  1.00  0.00     0.292 C 
HETATM    6  C3  UNK     1      16.853   8.822   9.889  1.00  0.00     0.156 C 
HETATM    7  C4  UNK     1      14.665   9.896   9.517  1.00  0.00     0.156 C 
HETATM    8  C6  UNK     1      14.939   7.364   9.364  1.00  0.00     0.260 C 
ENDROOT
BRANCH   8   9
HETATM    9  C8  UNK     1      13.512   7.227   9.012  1.00  0.00     0.108 A 
HETATM   10  C11 UNK     1      13.247   6.844   7.756  1.00  0.00     0.037 A 
HETATM   11  C13 UNK     1      11.871   6.681   7.314  1.00  0.00    -0.001 A 
HETATM   12  C16 UNK     1      10.841   6.930   8.216  1.00  0.00     0.089 A 
HETATM   13  C18 UNK     1      11.548   6.284   6.014  1.00  0.00     0.014 A 
HETATM   14  O2  UNK     1      11.126   7.331   9.536  1.00  0.00    -0.274 OA
HETATM   15  C19 UNK     1       9.502   6.793   7.856  1.00  0.00     0.038 A 
HETATM   16  C12 UNK     1      12.432   7.496   9.987  1.00  0.00     0.304 A 
HETATM   17  O3  UNK     1      12.671   7.847  11.138  1.00  0.00    -0.259 OA
HETATM   18  C21 UNK     1       9.189   6.396   6.557  1.00  0.00     0.003 A 
HETATM   19  C20 UNK     1      10.209   6.142   5.639  1.00  0.00     0.001 A 
ENDBRANCH   8   9
BRANCH   2  20
HETATM   20  C5  UNK     1      17.414  12.271   8.490  1.00  0.00     0.312 C 
BRANCH  20  21
HETATM   21  C7  UNK     1      18.904  12.271   8.708  1.00  0.00    -0.008 A 
HETATM   22  C10 UNK     1      19.370  12.163  10.013  1.00  0.00     0.013 A 
HETATM   23  C15 UNK     1      20.745  12.160  10.255  1.00  0.00     0.043 A 
HETATM   24  C17 UNK     1      21.641  12.265   9.191  1.00  0.00     0.118 A 
HETATM   25  C14 UNK     1      21.163  12.373   7.885  1.00  0.00     0.066 A 
HETATM   26  F1  UNK     1      22.959  12.262   9.424  1.00  0.00    -0.206 F 
HETATM   27  C9  UNK     1      19.789  12.376   7.643  1.00  0.00     0.045 A 
HETATM   28 Cl1  UNK     1      19.235  12.510   6.013  1.00  0.00    -0.084 Cl
ENDBRANCH  20  21
ENDBRANCH   2  20
TORSDOF 3
ENDMDL
MODEL 4
REMARK VINA RESULT:      -9.6      2.763      3.716
REMARK  3 active torsions:
REMARK  status: ('A' for Active; 'I' for Inactive)
REMARK    1  A    between atoms: C5_12  and  N1_6 
REMARK       I    between atoms: C6_13  and  N2_7 
REMARK    2  A    between atoms: C5_12  and  C7_14 
REMARK    3  A    between atoms: C6_13  and  C8_15 
ROOT
HETATM    1  O1  UNK     1      16.923   0.706  37.153  1.00  0.00    -0.267 OA
HETATM    2  N1  UNK     1      19.801  -3.335  36.510  1.00  0.00     0.095 N 
HETATM    3  N2  UNK     1      18.631  -0.712  36.457  1.00  0.00    -0.344 N 
HETATM    4  C1  UNK     1      18.587  -3.046  37.285  1.00  0.00     0.292 C 
HETATM    5  C2  UNK     1      19.812  -2.545  35.272  1.00  0.00     0.292 C 
HETATM    6  C3  UNK     1      18.522  -1.563  37.642  1.00  0.00     0.156 C 
HETATM    7  C4  UNK     1      19.753  -1.045  35.569  1.00  0.00     0.156 C 
HETATM    8  C6  UNK     1      17.782   0.385  36.330  1.00  0.00     0.260 C 
ENDROOT
BRANCH   8   9
HETATM    9  C8  UNK     1      17.925   1.229  35.127  1.00  0.00     0.108 A 
HETATM   10  C11 UNK     1      18.306   2.495  35.334  1.00  0.00     0.037 A 
HETATM   11  C13 UNK     1      18.474   3.404  34.211  1.00  0.00    -0.001 A 
HETATM   12  C16 UNK     1      18.231   2.935  32.924  1.00  0.00     0.089 A 
HETATM   13  C18 UNK     1      18.870   4.733  34.381  1.00  0.00     0.014 A 
HETATM   14  O2  UNK     1      17.831   1.601  32.712  1.00  0.00    -0.274 OA
HETATM   15  C19 UNK     1      18.373   3.754  31.805  1.00  0.00     0.038 A 
HETATM   16  C12 UNK     1      17.662   0.709  33.766  1.00  0.00     0.304 A 
HETATM   17  O3  UNK     1      17.312  -0.451  33.572  1.00  0.00    -0.259 OA
HETATM   18  C21 UNK     1      18.769   5.078  31.984  1.00  0.00     0.003 A 
HETATM   19  C20 UNK     1      19.017   5.566  33.268  1.00  0.00     0.001 A 
ENDBRANCH   8   9
BRANCH   2  20
HETATM   20  C5  UNK     1      19.892  -4.763  36.210  1.00  0.00     0.312 C 
BRANCH  20  21
HETATM   21  C7  UNK     1      20.505  -5.538  37.346  1.00  0.00    -0.008 A 
HETATM   22  C10 UNK     1      21.790  -5.193  37.749  1.00  0.00     0.013 A 
HETATM   23  C15 UNK     1      22.393  -5.890  38.798  1.00  0.00     0.043 A 
HETATM   24  C17 UNK     1      21.706  -6.924  39.435  1.00  0.00     0.118 A 
HETATM   25  C14 UNK     1      20.417  -7.263  39.022  1.00  0.00     0.066 A 
HETATM   26  F1  UNK     1      22.285  -7.591  40.441  1.00  0.00    -0.206 F 
HETATM   27  C9  UNK     1      19.815  -6.567  37.973  1.00  0.00     0.045 A 
HETATM   28 Cl1  UNK     1      18.219  -7.014  37.491  1.00  0.00    -0.084 Cl
ENDBRANCH  20  21
ENDBRANCH   2  20
TORSDOF 3
ENDMDL
MODEL 5
REMARK VINA RESULT:      -9.5      2.242      2.605
REMARK  3 active torsions:
REMARK  status: ('A' for Active; 'I' for Inactive)
REMARK    1  A    between atoms: C5_12  and  N1_6 
REMARK       I    between atoms: C6_13  and  N2_7 
REMARK    2  A    between atoms: C5_12  and  C7_14 
REMARK    3  A    between atoms: C6_13  and  C8_15 
ROOT
HETATM    1  O1  UNK     1      17.455  -0.420  35.736  1.00  0.00    -0.267 OA
HETATM    2  N1  UNK     1      20.000  -4.669  36.442  1.00  0.00     0.095 N 
HETATM    3  N2  UNK     1      19.080  -2.079  35.604  1.00  0.00    -0.344 N 
HETATM    4  C1  UNK     1      18.756  -4.109  36.987  1.00  0.00     0.292 C 
HETATM    5  C2  UNK     1      20.186  -4.231  35.053  1.00  0.00     0.292 C 
HETATM    6  C3  UNK     1      18.795  -2.583  36.948  1.00  0.00     0.156 C 
HETATM    7  C4  UNK     1      20.238  -2.705  34.952  1.00  0.00     0.156 C 
HETATM    8  C6  UNK     1      18.347  -1.000  35.115  1.00  0.00     0.260 C 
ENDROOT
BRANCH   8   9
HETATM    9  C8  UNK     1      18.667  -0.511  33.760  1.00  0.00     0.108 A 
HETATM   10  C11 UNK     1      19.188  -1.409  32.914  1.00  0.00     0.037 A 
HETATM   11  C13 UNK     1      19.536  -1.022  31.556  1.00  0.00    -0.001 A 
HETATM   12  C16 UNK     1      19.319   0.293  31.155  1.00  0.00     0.089 A 
HETATM   13  C18 UNK     1      20.082  -1.925  30.641  1.00  0.00     0.014 A 
HETATM   14  O2  UNK     1      18.769   1.233  32.049  1.00  0.00    -0.274 OA
HETATM   15  C19 UNK     1      19.631   0.728  29.868  1.00  0.00     0.038 A 
HETATM   16  C12 UNK     1      18.427   0.892  33.354  1.00  0.00     0.304 A 
HETATM   17  O3  UNK     1      17.950   1.718  34.125  1.00  0.00    -0.259 OA
HETATM   18  C21 UNK     1      20.175  -0.180  28.962  1.00  0.00     0.003 A 
HETATM   19  C20 UNK     1      20.400  -1.502  29.346  1.00  0.00     0.001 A 
ENDBRANCH   8   9
BRANCH   2  20
HETATM   20  C5  UNK     1      19.985  -6.129  36.524  1.00  0.00     0.312 C 
BRANCH  20  21
HETATM   21  C7  UNK     1      21.179  -6.661  37.271  1.00  0.00    -0.008 A 
HETATM   22  C10 UNK     1      21.682  -5.900  38.321  1.00  0.00     0.013 A 
HETATM   23  C15 UNK     1      22.789  -6.360  39.037  1.00  0.00     0.043 A 
HETATM   24  C17 UNK     1      23.382  -7.577  38.699  1.00  0.00     0.118 A 
HETATM   25  C14 UNK     1      22.870  -8.334  37.644  1.00  0.00     0.066 A 
HETATM   26  F1  UNK     1      24.443  -8.017  39.386  1.00  0.00    -0.206 F 
HETATM   27  C9  UNK     1      21.764  -7.873  36.928  1.00  0.00     0.045 A 
HETATM   28 Cl1  UNK     1      21.158  -8.837  35.630  1.00  0.00    -0.084 Cl
ENDBRANCH  20  21
ENDBRANCH   2  20
TORSDOF 3
ENDMDL
MODEL 6
REMARK VINA RESULT:      -9.5     27.399     29.580
REMARK  3 active torsions:
REMARK  status: ('A' for Active; 'I' for Inactive)
REMARK    1  A    between atoms: C5_12  and  N1_6 
REMARK       I    between atoms: C6_13  and  N2_7 
REMARK    2  A    between atoms: C5_12  and  C7_14 
REMARK    3  A    between atoms: C6_13  and  C8_15 
ROOT
HETATM    1  O1  UNK     1      15.515   5.477   8.589  1.00  0.00    -0.267 OA
HETATM    2  N1  UNK     1      16.168   9.934  10.764  1.00  0.00     0.095 N 
HETATM    3  N2  UNK     1      15.149   7.423   9.809  1.00  0.00    -0.344 N 
HETATM    4  C1  UNK     1      17.020   9.040   9.969  1.00  0.00     0.292 C 
HETATM    5  C2  UNK     1      14.769   9.820  10.330  1.00  0.00     0.292 C 
HETATM    6  C3  UNK     1      16.568   7.590  10.128  1.00  0.00     0.156 C 
HETATM    7  C4  UNK     1      14.258   8.384  10.472  1.00  0.00     0.156 C 
HETATM    8  C6  UNK     1      14.752   6.334   9.037  1.00  0.00     0.260 C 
ENDROOT
BRANCH   8   9
HETATM    9  C8  UNK     1      13.313   6.190   8.741  1.00  0.00     0.108 A 
HETATM   10  C11 UNK     1      12.920   6.565   7.517  1.00  0.00     0.037 A 
HETATM   11  C13 UNK     1      11.522   6.461   7.131  1.00  0.00    -0.001 A 
HETATM   12  C16 UNK     1      10.604   5.967   8.054  1.00  0.00     0.089 A 
HETATM   13  C18 UNK     1      11.068   6.840   5.865  1.00  0.00     0.014 A 
HETATM   14  O2  UNK     1      11.024   5.574   9.340  1.00  0.00    -0.274 OA
HETATM   15  C19 UNK     1       9.250   5.843   7.748  1.00  0.00     0.038 A 
HETATM   16  C12 UNK     1      12.354   5.662   9.738  1.00  0.00     0.304 A 
HETATM   17  O3  UNK     1      12.709   5.318  10.860  1.00  0.00    -0.259 OA
HETATM   18  C21 UNK     1       8.807   6.224   6.483  1.00  0.00     0.003 A 
HETATM   19  C20 UNK     1       9.713   6.721   5.544  1.00  0.00     0.001 A 
ENDBRANCH   8   9
BRANCH   2  20
HETATM   20  C5  UNK     1      16.629  11.317  10.653  1.00  0.00     0.312 C 
BRANCH  20  21
HETATM   21  C7  UNK     1      17.206  11.609   9.293  1.00  0.00    -0.008 A 
HETATM   22  C10 UNK     1      16.321  11.779   8.234  1.00  0.00     0.013 A 
HETATM   23  C15 UNK     1      16.818  12.050   6.958  1.00  0.00     0.043 A 
HETATM   24  C17 UNK     1      18.194  12.149   6.751  1.00  0.00     0.118 A 
HETATM   25  C14 UNK     1      19.074  11.977   7.820  1.00  0.00     0.066 A 
HETATM   26  F1  UNK     1      18.669  12.410   5.527  1.00  0.00    -0.206 F 
HETATM   27  C9  UNK     1      18.577  11.706   9.096  1.00  0.00     0.045 A 
HETATM   28 Cl1  UNK     1      19.696  11.499  10.393  1.00  0.00    -0.084 Cl
ENDBRANCH  20  21
ENDBRANCH   2  20
TORSDOF 3
ENDMDL
MODEL 7
REMARK VINA RESULT:      -9.5     13.596     15.051
REMARK  3 active torsions:
REMARK  status: ('A' for Active; 'I' for Inactive)
REMARK    1  A    between atoms: C5_12  and  N1_6 
REMARK       I    between atoms: C6_13  and  N2_7 
REMARK    2  A    between atoms: C5_12  and  C7_14 
REMARK    3  A    between atoms: C6_13  and  C8_15 
ROOT
HETATM    1  O1  UNK     1      34.090  -6.940  29.206  1.00  0.00    -0.267 OA
HETATM    2  N1  UNK     1      35.345  -7.352  34.031  1.00  0.00     0.095 N 
HETATM    3  N2  UNK     1      34.162  -7.627  31.427  1.00  0.00    -0.344 N 
HETATM    4  C1  UNK     1      35.832  -6.545  32.904  1.00  0.00     0.292 C 
HETATM    5  C2  UNK     1      33.903  -7.594  33.895  1.00  0.00     0.292 C 
HETATM    6  C3  UNK     1      35.571  -7.263  31.581  1.00  0.00     0.156 C 
HETATM    7  C4  UNK     1      33.581  -8.318  32.585  1.00  0.00     0.156 C 
HETATM    8  C6  UNK     1      33.539  -7.418  30.199  1.00  0.00     0.260 C 
ENDROOT
BRANCH   8   9
HETATM    9  C8  UNK     1      32.120  -7.805  30.074  1.00  0.00     0.108 A 
HETATM   10  C11 UNK     1      31.223  -6.902  30.490  1.00  0.00     0.037 A 
HETATM   11  C13 UNK     1      29.800  -7.191  30.408  1.00  0.00    -0.001 A 
HETATM   12  C16 UNK     1      29.391  -8.417  29.891  1.00  0.00     0.089 A 
HETATM   13  C18 UNK     1      28.829  -6.279  30.831  1.00  0.00     0.014 A 
HETATM   14  O2  UNK     1      30.340  -9.362  29.454  1.00  0.00    -0.274 OA
HETATM   15  C19 UNK     1      28.043  -8.756  29.786  1.00  0.00     0.038 A 
HETATM   16  C12 UNK     1      31.707  -9.114  29.521  1.00  0.00     0.304 A 
HETATM   17  O3  UNK     1      32.526  -9.943  29.139  1.00  0.00    -0.259 OA
HETATM   18  C21 UNK     1      27.082  -7.840  30.209  1.00  0.00     0.003 A 
HETATM   19  C20 UNK     1      27.473  -6.606  30.730  1.00  0.00     0.001 A 
ENDBRANCH   8   9
BRANCH   2  20
HETATM   20  C5  UNK     1      35.638  -6.690  35.301  1.00  0.00     0.312 C 
BRANCH  20  21
HETATM   21  C7  UNK     1      34.573  -5.692  35.673  1.00  0.00    -0.008 A 
HETATM   22  C10 UNK     1      34.554  -4.478  34.995  1.00  0.00     0.013 A 
HETATM   23  C15 UNK     1      33.583  -3.527  35.312  1.00  0.00     0.043 A 
HETATM   24  C17 UNK     1      32.639  -3.798  36.304  1.00  0.00     0.118 A 
HETATM   25  C14 UNK     1      32.667  -5.018  36.979  1.00  0.00     0.066 A 
HETATM   26  F1  UNK     1      31.708  -2.885  36.607  1.00  0.00    -0.206 F 
HETATM   27  C9  UNK     1      33.638  -5.969  36.661  1.00  0.00     0.045 A 
HETATM   28 Cl1  UNK     1      33.641  -7.468  37.517  1.00  0.00    -0.084 Cl
ENDBRANCH  20  21
ENDBRANCH   2  20
TORSDOF 3
ENDMDL
MODEL 8
REMARK VINA RESULT:      -9.5      7.677     11.215
REMARK  3 active torsions:
REMARK  status: ('A' for Active; 'I' for Inactive)
REMARK    1  A    between atoms: C5_12  and  N1_6 
REMARK       I    between atoms: C6_13  and  N2_7 
REMARK    2  A    between atoms: C5_12  and  C7_14 
REMARK    3  A    between atoms: C6_13  and  C8_15 
ROOT
HETATM    1  O1  UNK     1      18.231   3.934  29.050  1.00  0.00    -0.267 OA
HETATM    2  N1  UNK     1      18.121   6.728  33.198  1.00  0.00     0.095 N 
HETATM    3  N2  UNK     1      18.630   4.728  31.200  1.00  0.00    -0.344 N 
HETATM    4  C1  UNK     1      17.509   6.834  31.867  1.00  0.00     0.292 C 
HETATM    5  C2  UNK     1      18.259   5.317  33.582  1.00  0.00     0.292 C 
HETATM    6  C3  UNK     1      18.367   6.118  30.826  1.00  0.00     0.156 C 
HETATM    7  C4  UNK     1      19.116   4.548  32.574  1.00  0.00     0.156 C 
HETATM    8  C6  UNK     1      18.531   3.734  30.228  1.00  0.00     0.260 C 
ENDROOT
BRANCH   8   9
HETATM    9  C8  UNK     1      18.812   2.344  30.636  1.00  0.00     0.108 A 
HETATM   10  C11 UNK     1      19.573   1.625  29.801  1.00  0.00     0.037 A 
HETATM   11  C13 UNK     1      19.905   0.244  30.116  1.00  0.00    -0.001 A 
HETATM   12  C16 UNK     1      19.418  -0.312  31.295  1.00  0.00     0.089 A 
HETATM   13  C18 UNK     1      20.696  -0.542  29.275  1.00  0.00     0.014 A 
HETATM   14  O2  UNK     1      18.618   0.449  32.169  1.00  0.00    -0.274 OA
HETATM   15  C19 UNK     1      19.699  -1.629  31.655  1.00  0.00     0.038 A 
HETATM   16  C12 UNK     1      18.284   1.772  31.894  1.00  0.00     0.304 A 
HETATM   17  O3  UNK     1      17.586   2.427  32.661  1.00  0.00    -0.259 OA
HETATM   18  C21 UNK     1      20.488  -2.406  30.810  1.00  0.00     0.003 A 
HETATM   19  C20 UNK     1      20.986  -1.865  29.624  1.00  0.00     0.001 A 
ENDBRANCH   8   9
BRANCH   2  20
HETATM   20  C5  UNK     1      17.327   7.455  34.187  1.00  0.00     0.312 C 
BRANCH  20  21
HETATM   21  C7  UNK     1      17.600   8.935  34.148  1.00  0.00    -0.008 A 
HETATM   22  C10 UNK     1      18.924   9.351  34.070  1.00  0.00     0.013 A 
HETATM   23  C15 UNK     1      19.216  10.716  34.032  1.00  0.00     0.043 A 
HETATM   24  C17 UNK     1      18.183  11.652  34.073  1.00  0.00     0.118 A 
HETATM   25  C14 UNK     1      16.857  11.225  34.152  1.00  0.00     0.066 A 
HETATM   26  F1  UNK     1      18.465  12.960  34.037  1.00  0.00    -0.206 F 
HETATM   27  C9  UNK     1      16.565   9.861  34.190  1.00  0.00     0.045 A 
HETATM   28 Cl1  UNK     1      14.913   9.370  34.287  1.00  0.00    -0.084 Cl
ENDBRANCH  20  21
ENDBRANCH   2  20
TORSDOF 3
ENDMDL
MODEL 9
REMARK VINA RESULT:      -9.4     10.605     11.928
REMARK  3 active torsions:
REMARK  status: ('A' for Active; 'I' for Inactive)
REMARK    1  A    between atoms: C5_12  and  N1_6 
REMARK       I    between atoms: C6_13  and  N2_7 
REMARK    2  A    between atoms: C5_12  and  C7_14 
REMARK    3  A    between atoms: C6_13  and  C8_15 
ROOT
HETATM    1  O1  UNK     1      30.321  -4.157  32.116  1.00  0.00    -0.267 OA
HETATM    2  N1  UNK     1      32.013  -6.316  36.300  1.00  0.00     0.095 N 
HETATM    3  N2  UNK     1      31.071  -5.740  33.648  1.00  0.00    -0.344 N 
HETATM    4  C1  UNK     1      31.702  -4.936  35.905  1.00  0.00     0.292 C 
HETATM    5  C2  UNK     1      31.117  -7.254  35.613  1.00  0.00     0.292 C 
HETATM    6  C3  UNK     1      31.863  -4.763  34.396  1.00  0.00     0.156 C 
HETATM    7  C4  UNK     1      31.239  -7.129  34.093  1.00  0.00     0.156 C 
HETATM    8  C6  UNK     1      30.350  -5.316  32.534  1.00  0.00     0.260 C 
ENDROOT
BRANCH   8   9
HETATM    9  C8  UNK     1      29.568  -6.328  31.796  1.00  0.00     0.108 A 
HETATM   10  C11 UNK     1      30.199  -6.940  30.786  1.00  0.00     0.037 A 
HETATM   11  C13 UNK     1      29.512  -7.952  29.998  1.00  0.00    -0.001 A 
HETATM   12  C16 UNK     1      28.194  -8.270  30.314  1.00  0.00     0.089 A 
HETATM   13  C18 UNK     1      30.130  -8.616  28.936  1.00  0.00     0.014 A 
HETATM   14  O2  UNK     1      27.537  -7.623  31.379  1.00  0.00    -0.274 OA
HETATM   15  C19 UNK     1      27.480  -9.230  29.600  1.00  0.00     0.038 A 
HETATM   16  C12 UNK     1      28.168  -6.651  32.149  1.00  0.00     0.304 A 
HETATM   17  O3  UNK     1      27.587  -6.092  33.073  1.00  0.00    -0.259 OA
HETATM   18  C21 UNK     1      28.104  -9.887  28.541  1.00  0.00     0.003 A 
HETATM   19  C20 UNK     1      29.426  -9.582  28.211  1.00  0.00     0.001 A 
ENDBRANCH   8   9
BRANCH   2  20
HETATM   20  C5  UNK     1      31.908  -6.471  37.750  1.00  0.00     0.312 C 
BRANCH  20  21
HETATM   21  C7  UNK     1      30.520  -6.873  38.172  1.00  0.00    -0.008 A 
HETATM   22  C10 UNK     1      30.149  -8.203  38.010  1.00  0.00     0.013 A 
HETATM   23  C15 UNK     1      28.870  -8.613  38.390  1.00  0.00     0.043 A 
HETATM   24  C17 UNK     1      27.973  -7.691  38.928  1.00  0.00     0.118 A 
HETATM   25  C14 UNK     1      28.353  -6.358  39.086  1.00  0.00     0.066 A 
HETATM   26  F1  UNK     1      26.746  -8.085  39.291  1.00  0.00    -0.206 F 
HETATM   27  C9  UNK     1      29.632  -5.948  38.707  1.00  0.00     0.045 A 
HETATM   28 Cl1  UNK     1      30.067  -4.291  38.918  1.00  0.00    -0.084 Cl
ENDBRANCH  20  21
ENDBRANCH   2  20
TORSDOF 3
ENDMDL
MODEL 10
REMARK VINA RESULT:      -9.4     28.253     30.850
REMARK  3 active torsions:
REMARK  status: ('A' for Active; 'I' for Inactive)
REMARK    1  A    between atoms: C5_12  and  N1_6 
REMARK       I    between atoms: C6_13  and  N2_7 
REMARK    2  A    between atoms: C5_12  and  C7_14 
REMARK    3  A    between atoms: C6_13  and  C8_15 
ROOT
HETATM    1  O1  UNK     1      15.959   7.163   9.910  1.00  0.00    -0.267 OA
HETATM    2  N1  UNK     1      16.776  11.833   8.313  1.00  0.00     0.095 N 
HETATM    3  N2  UNK     1      15.642   9.387   9.305  1.00  0.00    -0.344 N 
HETATM    4  C1  UNK     1      17.624  10.653   8.526  1.00  0.00     0.292 C 
HETATM    5  C2  UNK     1      15.429  11.421   7.899  1.00  0.00     0.292 C 
HETATM    6  C3  UNK     1      17.027   9.754   9.606  1.00  0.00     0.156 C 
HETATM    7  C4  UNK     1      14.776  10.518   8.949  1.00  0.00     0.156 C 
HETATM    8  C6  UNK     1      15.233   8.069   9.497  1.00  0.00     0.260 C 
ENDROOT
BRANCH   8   9
HETATM    9  C8  UNK     1      13.828   7.734   9.193  1.00  0.00     0.108 A 
HETATM   10  C11 UNK     1      13.582   7.286   7.956  1.00  0.00     0.037 A 
HETATM   11  C13 UNK     1      12.228   6.931   7.561  1.00  0.00    -0.001 A 
HETATM   12  C16 UNK     1      11.199   7.065   8.489  1.00  0.00     0.089 A 
HETATM   13  C18 UNK     1      11.924   6.460   6.281  1.00  0.00     0.014 A 
HETATM   14  O2  UNK     1      11.465   7.536   9.789  1.00  0.00    -0.274 OA
HETATM   15  C19 UNK     1       9.880   6.742   8.174  1.00  0.00     0.038 A 
HETATM   16  C12 UNK     1      12.750   7.884  10.196  1.00  0.00     0.304 A 
HETATM   17  O3  UNK     1      12.972   8.294  11.330  1.00  0.00    -0.259 OA
HETATM   18  C21 UNK     1       9.587   6.273   6.895  1.00  0.00     0.003 A 
HETATM   19  C20 UNK     1      10.606   6.132   5.951  1.00  0.00     0.001 A 
ENDBRANCH   8   9
BRANCH   2  20
HETATM   20  C5  UNK     1      17.371  12.720   7.315  1.00  0.00     0.312 C 
BRANCH  20  21
HETATM   21  C7  UNK     1      16.787  14.107   7.376  1.00  0.00    -0.008 A 
HETATM   22  C10 UNK     1      15.876  14.473   6.392  1.00  0.00     0.013 A 
HETATM   23  C15 UNK     1      15.313  15.750   6.415  1.00  0.00     0.043 A 
HETATM   24  C17 UNK     1      15.666  16.650   7.421  1.00  0.00     0.118 A 
HETATM   25  C14 UNK     1      16.581  16.274   8.404  1.00  0.00     0.066 A 
HETATM   26  F1  UNK     1      15.125  17.875   7.442  1.00  0.00    -0.206 F 
HETATM   27  C9  UNK     1      17.144  14.997   8.381  1.00  0.00     0.045 A 
HETATM   28 Cl1  UNK     1      18.272  14.567   9.614  1.00  0.00    -0.084 Cl
ENDBRANCH  20  21
ENDBRANCH   2  20
TORSDOF 3
ENDMDL
