MODEL 1
REMARK VINA RESULT:      -8.4      0.000      0.000
REMARK  4 active torsions:
REMARK  status: ('A' for Active; 'I' for Inactive)
REMARK    1  A    between atoms: C7_12  and  O2_2 
REMARK    2  A    between atoms: C11_16  and  O3_3 
REMARK    3  A    between atoms: C14_19  and  O4_4 
REMARK    4  A    between atoms: C1_6  and  C2_7 
ROOT
HETATM    1  O1  UNK     1      19.315   2.032  31.262  1.00  0.00    -0.309 OA
HETATM    2  O5  UNK     1      17.732   2.029  27.508  1.00  0.00    -0.287 OA
HETATM    3  C1  UNK     1      18.640   3.133  30.756  1.00  0.00     0.093 A 
HETATM    4  C3  UNK     1      18.937   0.858  29.170  1.00  0.00     0.048 A 
HETATM    5  C4  UNK     1      19.452   0.925  30.464  1.00  0.00     0.093 A 
HETATM    6  C5  UNK     1      18.094   3.187  29.530  1.00  0.00     0.094 A 
HETATM    7  C6  UNK     1      18.213   2.020  28.633  1.00  0.00     0.187 A 
HETATM    8  C8  UNK     1      20.141  -0.164  30.997  1.00  0.00     0.075 A 
HETATM    9  C9  UNK     1      19.105  -0.296  28.402  1.00  0.00     0.021 A 
HETATM   10  C11 UNK     1      20.312  -1.318  30.233  1.00  0.00     0.070 A 
HETATM   11  C13 UNK     1      19.795  -1.384  28.939  1.00  0.00     0.038 A 
ENDROOT
BRANCH   3  12
HETATM   12  C2  UNK     1      18.544   4.265  31.699  1.00  0.00     0.031 A 
HETATM   13  C10 UNK     1      18.852   5.553  31.251  1.00  0.00     0.020 A 
HETATM   14  C15 UNK     1      18.770   6.638  32.123  1.00  0.00     0.038 A 
HETATM   15  C14 UNK     1      18.380   6.441  33.447  1.00  0.00     0.070 A 
HETATM   16  C12 UNK     1      18.071   5.158  33.900  1.00  0.00     0.074 A 
HETATM   17  C7  UNK     1      18.154   4.072  33.027  1.00  0.00     0.083 A 
BRANCH  15  18
HETATM   18  O4  UNK     1      18.299   7.500  34.298  1.00  0.00    -0.356 OA
HETATM   19  C18 UNK     1      17.079   7.659  35.022  1.00  0.00     0.210 C 
ENDBRANCH  15  18
BRANCH  17  20
HETATM   20  O2  UNK     1      17.847   2.828  33.496  1.00  0.00    -0.355 OA
HETATM   21  C16 UNK     1      18.332   2.487  34.792  1.00  0.00     0.210 C 
ENDBRANCH  17  20
ENDBRANCH   3  12
BRANCH  10  22
HETATM   22  O3  UNK     1      20.984  -2.382  30.752  1.00  0.00    -0.356 OA
HETATM   23  C17 UNK     1      20.887  -2.588  32.160  1.00  0.00     0.210 C 
ENDBRANCH  10  22
TORSDOF 4
ENDMDL
MODEL 2
REMARK VINA RESULT:      -8.1      2.854      4.413
REMARK  4 active torsions:
REMARK  status: ('A' for Active; 'I' for Inactive)
REMARK    1  A    between atoms: C7_12  and  O2_2 
REMARK    2  A    between atoms: C11_16  and  O3_3 
REMARK    3  A    between atoms: C14_19  and  O4_4 
REMARK    4  A    between atoms: C1_6  and  C2_7 
ROOT
HETATM    1  O1  UNK     1      18.286   4.083  34.364  1.00  0.00    -0.309 OA
HETATM    2  O5  UNK     1      18.256   2.083  30.814  1.00  0.00    -0.287 OA
HETATM    3  C1  UNK     1      18.272   4.754  33.150  1.00  0.00     0.093 A 
HETATM    4  C3  UNK     1      18.291   1.965  33.174  1.00  0.00     0.048 A 
HETATM    5  C4  UNK     1      18.298   2.711  34.352  1.00  0.00     0.093 A 
HETATM    6  C5  UNK     1      18.256   4.149  31.952  1.00  0.00     0.094 A 
HETATM    7  C6  UNK     1      18.267   2.673  31.886  1.00  0.00     0.187 A 
HETATM    8  C8  UNK     1      18.319   2.064  35.587  1.00  0.00     0.075 A 
HETATM    9  C9  UNK     1      18.303   0.570  33.223  1.00  0.00     0.021 A 
HETATM   10  C11 UNK     1      18.332   0.670  35.639  1.00  0.00     0.070 A 
HETATM   11  C13 UNK     1      18.324  -0.075  34.460  1.00  0.00     0.038 A 
ENDROOT
BRANCH   3  12
HETATM   12  C2  UNK     1      18.252   6.225  33.278  1.00  0.00     0.031 A 
HETATM   13  C10 UNK     1      19.357   6.875  33.834  1.00  0.00     0.020 A 
HETATM   14  C15 UNK     1      19.363   8.263  33.966  1.00  0.00     0.038 A 
HETATM   15  C14 UNK     1      18.263   9.008  33.542  1.00  0.00     0.070 A 
HETATM   16  C12 UNK     1      17.158   8.365  32.985  1.00  0.00     0.074 A 
HETATM   17  C7  UNK     1      17.152   6.976  32.854  1.00  0.00     0.083 A 
BRANCH  15  18
HETATM   18  O4  UNK     1      18.269  10.364  33.670  1.00  0.00    -0.356 OA
HETATM   19  C18 UNK     1      17.100  10.967  34.224  1.00  0.00     0.210 C 
ENDBRANCH  15  18
BRANCH  17  20
HETATM   20  O2  UNK     1      16.058   6.373  32.307  1.00  0.00    -0.355 OA
HETATM   21  C16 UNK     1      14.965   7.215  31.950  1.00  0.00     0.210 C 
ENDBRANCH  17  20
ENDBRANCH   3  12
BRANCH  10  22
HETATM   22  O3  UNK     1      18.353   0.036  36.844  1.00  0.00    -0.356 OA
HETATM   23  C17 UNK     1      17.643   0.655  37.916  1.00  0.00     0.210 C 
ENDBRANCH  10  22
TORSDOF 4
ENDMDL
MODEL 3
REMARK VINA RESULT:      -8.0      2.199      3.325
REMARK  4 active torsions:
REMARK  status: ('A' for Active; 'I' for Inactive)
REMARK    1  A    between atoms: C7_12  and  O2_2 
REMARK    2  A    between atoms: C11_16  and  O3_3 
REMARK    3  A    between atoms: C14_19  and  O4_4 
REMARK    4  A    between atoms: C1_6  and  C2_7 
ROOT
HETATM    1  O1  UNK     1      18.047   3.420  33.343  1.00  0.00    -0.309 OA
HETATM    2  O5  UNK     1      19.107   1.988  29.679  1.00  0.00    -0.287 OA
HETATM    3  C1  UNK     1      18.203   4.260  32.251  1.00  0.00     0.093 A 
HETATM    4  C3  UNK     1      18.633   1.521  31.947  1.00  0.00     0.048 A 
HETATM    5  C4  UNK     1      18.266   2.076  33.172  1.00  0.00     0.093 A 
HETATM    6  C5  UNK     1      18.545   3.844  31.021  1.00  0.00     0.094 A 
HETATM    7  C6  UNK     1      18.791   2.407  30.784  1.00  0.00     0.187 A 
HETATM    8  C8  UNK     1      18.107   1.258  34.290  1.00  0.00     0.075 A 
HETATM    9  C9  UNK     1      18.842   0.145  31.830  1.00  0.00     0.021 A 
HETATM   10  C11 UNK     1      18.316  -0.117  34.177  1.00  0.00     0.070 A 
HETATM   11  C13 UNK     1      18.682  -0.672  32.950  1.00  0.00     0.038 A 
ENDROOT
BRANCH   3  12
HETATM   12  C2  UNK     1      17.936   5.682  32.544  1.00  0.00     0.031 A 
HETATM   13  C10 UNK     1      16.691   6.224  32.214  1.00  0.00     0.020 A 
HETATM   14  C15 UNK     1      16.415   7.565  32.480  1.00  0.00     0.038 A 
HETATM   15  C14 UNK     1      17.383   8.370  33.079  1.00  0.00     0.070 A 
HETATM   16  C12 UNK     1      18.628   7.835  33.411  1.00  0.00     0.074 A 
HETATM   17  C7  UNK     1      18.904   6.494  33.144  1.00  0.00     0.083 A 
BRANCH  15  18
HETATM   18  O4  UNK     1      17.114   9.679  33.340  1.00  0.00    -0.356 OA
HETATM   19  C18 UNK     1      18.167  10.457  33.909  1.00  0.00     0.210 C 
ENDBRANCH  15  18
BRANCH  17  20
HETATM   20  O2  UNK     1      20.129   5.996  33.478  1.00  0.00    -0.355 OA
HETATM   21  C16 UNK     1      21.232   6.393  32.667  1.00  0.00     0.210 C 
ENDBRANCH  17  20
ENDBRANCH   3  12
BRANCH  10  22
HETATM   22  O3  UNK     1      18.162  -0.919  35.267  1.00  0.00    -0.356 OA
HETATM   23  C17 UNK     1      19.315  -1.625  35.721  1.00  0.00     0.210 C 
ENDBRANCH  10  22
TORSDOF 4
ENDMDL
MODEL 4
REMARK VINA RESULT:      -7.9      2.602      8.662
REMARK  4 active torsions:
REMARK  status: ('A' for Active; 'I' for Inactive)
REMARK    1  A    between atoms: C7_12  and  O2_2 
REMARK    2  A    between atoms: C11_16  and  O3_3 
REMARK    3  A    between atoms: C14_19  and  O4_4 
REMARK    4  A    between atoms: C1_6  and  C2_7 
ROOT
HETATM    1  O1  UNK     1      16.867   7.347  32.197  1.00  0.00    -0.309 OA
HETATM    2  O5  UNK     1      19.680   9.180  34.506  1.00  0.00    -0.287 OA
HETATM    3  C1  UNK     1      18.146   6.828  32.336  1.00  0.00     0.093 A 
HETATM    4  C3  UNK     1      17.474   9.191  33.658  1.00  0.00     0.048 A 
HETATM    5  C4  UNK     1      16.559   8.512  32.855  1.00  0.00     0.093 A 
HETATM    6  C5  UNK     1      19.110   7.385  33.085  1.00  0.00     0.094 A 
HETATM    7  C6  UNK     1      18.828   8.639  33.814  1.00  0.00     0.187 A 
HETATM    8  C8  UNK     1      15.268   9.012  32.692  1.00  0.00     0.075 A 
HETATM    9  C9  UNK     1      17.105  10.372  34.304  1.00  0.00     0.021 A 
HETATM   10  C11 UNK     1      14.896  10.193  33.336  1.00  0.00     0.070 A 
HETATM   11  C13 UNK     1      15.813  10.871  34.140  1.00  0.00     0.038 A 
ENDROOT
BRANCH   3  12
HETATM   12  C2  UNK     1      18.367   5.572  31.594  1.00  0.00     0.031 A 
HETATM   13  C10 UNK     1      18.773   5.632  30.257  1.00  0.00     0.020 A 
HETATM   14  C15 UNK     1      18.987   4.459  29.535  1.00  0.00     0.038 A 
HETATM   15  C14 UNK     1      18.798   3.219  30.145  1.00  0.00     0.070 A 
HETATM   16  C12 UNK     1      18.394   3.152  31.478  1.00  0.00     0.074 A 
HETATM   17  C7  UNK     1      18.178   4.327  32.201  1.00  0.00     0.083 A 
BRANCH  15  18
HETATM   18  O4  UNK     1      19.009   2.074  29.440  1.00  0.00    -0.356 OA
HETATM   19  C18 UNK     1      17.924   1.590  28.649  1.00  0.00     0.210 C 
ENDBRANCH  15  18
BRANCH  17  20
HETATM   20  O2  UNK     1      17.783   4.233  33.503  1.00  0.00    -0.355 OA
HETATM   21  C16 UNK     1      18.265   3.117  34.247  1.00  0.00     0.210 C 
ENDBRANCH  17  20
ENDBRANCH   3  12
BRANCH  10  22
HETATM   22  O3  UNK     1      13.636  10.684  33.178  1.00  0.00    -0.356 OA
HETATM   23  C17 UNK     1      13.505  11.926  32.487  1.00  0.00     0.210 C 
ENDBRANCH  10  22
TORSDOF 4
ENDMDL
MODEL 5
REMARK VINA RESULT:      -7.9      3.218      5.654
REMARK  4 active torsions:
REMARK  status: ('A' for Active; 'I' for Inactive)
REMARK    1  A    between atoms: C7_12  and  O2_2 
REMARK    2  A    between atoms: C11_16  and  O3_3 
REMARK    3  A    between atoms: C14_19  and  O4_4 
REMARK    4  A    between atoms: C1_6  and  C2_7 
ROOT
HETATM    1  O1  UNK     1      19.071   0.146  34.204  1.00  0.00    -0.309 OA
HETATM    2  O5  UNK     1      16.068   0.491  36.936  1.00  0.00    -0.287 OA
HETATM    3  C1  UNK     1      18.121   1.153  34.118  1.00  0.00     0.093 A 
HETATM    4  C3  UNK     1      17.977  -0.694  36.204  1.00  0.00     0.048 A 
HETATM    5  C4  UNK     1      18.980  -0.753  35.236  1.00  0.00     0.093 A 
HETATM    6  C5  UNK     1      17.114   1.318  34.991  1.00  0.00     0.094 A 
HETATM    7  C6  UNK     1      16.973   0.377  36.120  1.00  0.00     0.187 A 
HETATM    8  C8  UNK     1      19.946  -1.757  35.293  1.00  0.00     0.075 A 
HETATM    9  C9  UNK     1      17.934  -1.636  37.233  1.00  0.00     0.021 A 
HETATM   10  C11 UNK     1      19.905  -2.700  36.320  1.00  0.00     0.070 A 
HETATM   11  C13 UNK     1      18.901  -2.640  37.288  1.00  0.00     0.038 A 
ENDROOT
BRANCH   3  12
HETATM   12  C2  UNK     1      18.317   2.068  32.976  1.00  0.00     0.031 A 
HETATM   13  C10 UNK     1      18.189   3.445  33.177  1.00  0.00     0.020 A 
HETATM   14  C15 UNK     1      18.369   4.330  32.113  1.00  0.00     0.038 A 
HETATM   15  C14 UNK     1      18.678   3.841  30.845  1.00  0.00     0.070 A 
HETATM   16  C12 UNK     1      18.808   2.467  30.638  1.00  0.00     0.074 A 
HETATM   17  C7  UNK     1      18.627   1.582  31.702  1.00  0.00     0.083 A 
BRANCH  15  18
HETATM   18  O4  UNK     1      18.855   4.704  29.807  1.00  0.00    -0.356 OA
HETATM   19  C18 UNK     1      19.663   5.855  30.051  1.00  0.00     0.210 C 
ENDBRANCH  15  18
BRANCH  17  20
HETATM   20  O2  UNK     1      18.759   0.245  31.473  1.00  0.00    -0.355 OA
HETATM   21  C16 UNK     1      19.931  -0.181  30.782  1.00  0.00     0.210 C 
ENDBRANCH  17  20
ENDBRANCH   3  12
BRANCH  10  22
HETATM   22  O3  UNK     1      20.846  -3.682  36.378  1.00  0.00    -0.356 OA
HETATM   23  C17 UNK     1      20.817  -4.544  37.514  1.00  0.00     0.210 C 
ENDBRANCH  10  22
TORSDOF 4
ENDMDL
MODEL 6
REMARK VINA RESULT:      -7.8     22.614     24.852
REMARK  4 active torsions:
REMARK  status: ('A' for Active; 'I' for Inactive)
REMARK    1  A    between atoms: C7_12  and  O2_2 
REMARK    2  A    between atoms: C11_16  and  O3_3 
REMARK    3  A    between atoms: C14_19  and  O4_4 
REMARK    4  A    between atoms: C1_6  and  C2_7 
ROOT
HETATM    1  O1  UNK     1       9.797   4.979   9.318  1.00  0.00    -0.309 OA
HETATM    2  O5  UNK     1       8.880   6.813   5.796  1.00  0.00    -0.287 OA
HETATM    3  C1  UNK     1       8.483   5.200   8.932  1.00  0.00     0.093 A 
HETATM    4  C3  UNK     1      10.559   6.037   7.268  1.00  0.00     0.048 A 
HETATM    5  C4  UNK     1      10.802   5.402   8.485  1.00  0.00     0.093 A 
HETATM    6  C5  UNK     1       8.122   5.794   7.784  1.00  0.00     0.094 A 
HETATM    7  C6  UNK     1       9.167   6.265   6.852  1.00  0.00     0.187 A 
HETATM    8  C8  UNK     1      12.113   5.171   8.901  1.00  0.00     0.075 A 
HETATM    9  C9  UNK     1      11.622   6.445   6.459  1.00  0.00     0.021 A 
HETATM   10  C11 UNK     1      13.178   5.578   8.097  1.00  0.00     0.070 A 
HETATM   11  C13 UNK     1      12.932   6.213   6.879  1.00  0.00     0.038 A 
ENDROOT
BRANCH   3  12
HETATM   12  C2  UNK     1       7.483   4.701   9.897  1.00  0.00     0.031 A 
HETATM   13  C10 UNK     1       7.353   5.338  11.134  1.00  0.00     0.020 A 
HETATM   14  C15 UNK     1       6.416   4.884  12.063  1.00  0.00     0.038 A 
HETATM   15  C14 UNK     1       5.604   3.792  11.758  1.00  0.00     0.070 A 
HETATM   16  C12 UNK     1       5.729   3.153  10.524  1.00  0.00     0.074 A 
HETATM   17  C7  UNK     1       6.668   3.606   9.596  1.00  0.00     0.083 A 
BRANCH  15  18
HETATM   18  O4  UNK     1       4.689   3.350  12.663  1.00  0.00    -0.356 OA
HETATM   19  C18 UNK     1       5.110   2.326  13.564  1.00  0.00     0.210 C 
ENDBRANCH  15  18
BRANCH  17  20
HETATM   20  O2  UNK     1       6.769   2.963   8.398  1.00  0.00    -0.355 OA
HETATM   21  C16 UNK     1       6.136   1.690   8.290  1.00  0.00     0.210 C 
ENDBRANCH  17  20
ENDBRANCH   3  12
BRANCH  10  22
HETATM   22  O3  UNK     1      14.458   5.355   8.501  1.00  0.00    -0.356 OA
HETATM   23  C17 UNK     1      14.677   5.183   9.900  1.00  0.00     0.210 C 
ENDBRANCH  10  22
TORSDOF 4
ENDMDL
MODEL 7
REMARK VINA RESULT:      -7.8     22.593     24.653
REMARK  4 active torsions:
REMARK  status: ('A' for Active; 'I' for Inactive)
REMARK    1  A    between atoms: C7_12  and  O2_2 
REMARK    2  A    between atoms: C11_16  and  O3_3 
REMARK    3  A    between atoms: C14_19  and  O4_4 
REMARK    4  A    between atoms: C1_6  and  C2_7 
ROOT
HETATM    1  O1  UNK     1       9.878   5.477   9.458  1.00  0.00    -0.309 OA
HETATM    2  O5  UNK     1       9.254   6.668   5.612  1.00  0.00    -0.287 OA
HETATM    3  C1  UNK     1       8.605   5.526   8.908  1.00  0.00     0.093 A 
HETATM    4  C3  UNK     1      10.800   6.270   7.355  1.00  0.00     0.048 A 
HETATM    5  C4  UNK     1      10.942   5.850   8.677  1.00  0.00     0.093 A 
HETATM    6  C5  UNK     1       8.341   5.904   7.648  1.00  0.00     0.094 A 
HETATM    7  C6  UNK     1       9.453   6.314   6.766  1.00  0.00     0.187 A 
HETATM    8  C8  UNK     1      12.209   5.797   9.259  1.00  0.00     0.075 A 
HETATM    9  C9  UNK     1      11.919   6.637   6.607  1.00  0.00     0.021 A 
HETATM   10  C11 UNK     1      13.329   6.164   8.515  1.00  0.00     0.070 A 
HETATM   11  C13 UNK     1      13.185   6.583   7.192  1.00  0.00     0.038 A 
ENDROOT
BRANCH   3  12
HETATM   12  C2  UNK     1       7.536   5.097   9.831  1.00  0.00     0.031 A 
HETATM   13  C10 UNK     1       7.022   3.801   9.724  1.00  0.00     0.020 A 
HETATM   14  C15 UNK     1       6.011   3.373  10.584  1.00  0.00     0.038 A 
HETATM   15  C14 UNK     1       5.509   4.239  11.556  1.00  0.00     0.070 A 
HETATM   16  C12 UNK     1       6.018   5.533  11.668  1.00  0.00     0.074 A 
HETATM   17  C7  UNK     1       7.029   5.961  10.807  1.00  0.00     0.083 A 
BRANCH  15  18
HETATM   18  O4  UNK     1       4.523   3.821  12.396  1.00  0.00    -0.356 OA
HETATM   19  C18 UNK     1       4.745   2.599  13.100  1.00  0.00     0.210 C 
ENDBRANCH  15  18
BRANCH  17  20
HETATM   20  O2  UNK     1       7.508   7.231  10.937  1.00  0.00    -0.355 OA
HETATM   21  C16 UNK     1       6.550   8.286  10.953  1.00  0.00     0.210 C 
ENDBRANCH  17  20
ENDBRANCH   3  12
BRANCH  10  22
HETATM   22  O3  UNK     1      14.567   6.114   9.081  1.00  0.00    -0.356 OA
HETATM   23  C17 UNK     1      14.899   4.935   9.811  1.00  0.00     0.210 C 
ENDBRANCH  10  22
TORSDOF 4
ENDMDL
MODEL 8
REMARK VINA RESULT:      -7.7     21.965     24.570
REMARK  4 active torsions:
REMARK  status: ('A' for Active; 'I' for Inactive)
REMARK    1  A    between atoms: C7_12  and  O2_2 
REMARK    2  A    between atoms: C11_16  and  O3_3 
REMARK    3  A    between atoms: C14_19  and  O4_4 
REMARK    4  A    between atoms: C1_6  and  C2_7 
ROOT
HETATM    1  O1  UNK     1      11.631   7.941   8.905  1.00  0.00    -0.309 OA
HETATM    2  O5  UNK     1      11.734   5.851   5.409  1.00  0.00    -0.287 OA
HETATM    3  C1  UNK     1      12.820   7.713   8.228  1.00  0.00     0.093 A 
HETATM    4  C3  UNK     1      10.434   6.711   7.186  1.00  0.00     0.048 A 
HETATM    5  C4  UNK     1      10.470   7.436   8.376  1.00  0.00     0.093 A 
HETATM    6  C5  UNK     1      12.913   7.037   7.072  1.00  0.00     0.094 A 
HETATM    7  C6  UNK     1      11.691   6.475   6.461  1.00  0.00     0.187 A 
HETATM    8  C8  UNK     1       9.291   7.676   9.082  1.00  0.00     0.075 A 
HETATM    9  C9  UNK     1       9.223   6.222   6.693  1.00  0.00     0.021 A 
HETATM   10  C11 UNK     1       8.079   7.188   8.594  1.00  0.00     0.070 A 
HETATM   11  C13 UNK     1       8.045   6.463   7.402  1.00  0.00     0.038 A 
ENDROOT
BRANCH   3  12
HETATM   12  C2  UNK     1      14.005   8.305   8.880  1.00  0.00     0.031 A 
HETATM   13  C10 UNK     1      14.508   9.519   8.405  1.00  0.00     0.020 A 
HETATM   14  C15 UNK     1      15.627  10.098   9.003  1.00  0.00     0.038 A 
HETATM   15  C14 UNK     1      16.247   9.465  10.081  1.00  0.00     0.070 A 
HETATM   16  C12 UNK     1      15.748   8.254  10.560  1.00  0.00     0.074 A 
HETATM   17  C7  UNK     1      14.629   7.674   9.960  1.00  0.00     0.083 A 
BRANCH  15  18
HETATM   18  O4  UNK     1      17.338  10.031  10.666  1.00  0.00    -0.356 OA
HETATM   19  C18 UNK     1      17.976  11.094   9.959  1.00  0.00     0.210 C 
ENDBRANCH  15  18
BRANCH  17  20
HETATM   20  O2  UNK     1      14.163   6.490  10.448  1.00  0.00    -0.355 OA
HETATM   21  C16 UNK     1      14.940   5.326  10.174  1.00  0.00     0.210 C 
ENDBRANCH  17  20
ENDBRANCH   3  12
BRANCH  10  22
HETATM   22  O3  UNK     1       6.927   7.420   9.281  1.00  0.00    -0.356 OA
HETATM   23  C17 UNK     1       7.047   8.062  10.550  1.00  0.00     0.210 C 
ENDBRANCH  10  22
TORSDOF 4
ENDMDL
MODEL 9
REMARK VINA RESULT:      -7.7     13.400     15.118
REMARK  4 active torsions:
REMARK  status: ('A' for Active; 'I' for Inactive)
REMARK    1  A    between atoms: C7_12  and  O2_2 
REMARK    2  A    between atoms: C11_16  and  O3_3 
REMARK    3  A    between atoms: C14_19  and  O4_4 
REMARK    4  A    between atoms: C1_6  and  C2_7 
ROOT
HETATM    1  O1  UNK     1      24.562  -8.612  37.077  1.00  0.00    -0.309 OA
HETATM    2  O5  UNK     1      25.149 -12.386  35.658  1.00  0.00    -0.287 OA
HETATM    3  C1  UNK     1      25.826  -9.181  37.023  1.00  0.00     0.093 A 
HETATM    4  C3  UNK     1      23.622 -10.651  36.150  1.00  0.00     0.048 A 
HETATM    5  C4  UNK     1      23.492  -9.354  36.645  1.00  0.00     0.093 A 
HETATM    6  C5  UNK     1      26.079 -10.416  36.561  1.00  0.00     0.094 A 
HETATM    7  C6  UNK     1      24.961 -11.254  36.084  1.00  0.00     0.187 A 
HETATM    8  C8  UNK     1      22.233  -8.757  36.717  1.00  0.00     0.075 A 
HETATM    9  C9  UNK     1      22.497 -11.360  35.724  1.00  0.00     0.021 A 
HETATM   10  C11 UNK     1      21.107  -9.463  36.292  1.00  0.00     0.070 A 
HETATM   11  C13 UNK     1      21.239 -10.761  35.797  1.00  0.00     0.038 A 
ENDROOT
BRANCH   3  12
HETATM   12  C2  UNK     1      26.904  -8.295  37.504  1.00  0.00     0.031 A 
HETATM   13  C10 UNK     1      27.564  -7.467  36.591  1.00  0.00     0.020 A 
HETATM   14  C15 UNK     1      28.586  -6.621  37.021  1.00  0.00     0.038 A 
HETATM   15  C14 UNK     1      28.953  -6.599  38.366  1.00  0.00     0.070 A 
HETATM   16  C12 UNK     1      28.298  -7.422  39.282  1.00  0.00     0.074 A 
HETATM   17  C7  UNK     1      27.276  -8.269  38.851  1.00  0.00     0.083 A 
BRANCH  15  18
HETATM   18  O4  UNK     1      29.950  -5.773  38.786  1.00  0.00    -0.356 OA
HETATM   19  C18 UNK     1      29.611  -4.403  39.002  1.00  0.00     0.210 C 
ENDBRANCH  15  18
BRANCH  17  20
HETATM   20  O2  UNK     1      26.652  -9.064  39.767  1.00  0.00    -0.355 OA
HETATM   21  C16 UNK     1      27.380 -10.191  40.248  1.00  0.00     0.210 C 
ENDBRANCH  17  20
ENDBRANCH   3  12
BRANCH  10  22
HETATM   22  O3  UNK     1      19.877  -8.883  36.362  1.00  0.00    -0.356 OA
HETATM   23  C17 UNK     1      18.914  -9.504  37.212  1.00  0.00     0.210 C 
ENDBRANCH  10  22
TORSDOF 4
ENDMDL
MODEL 10
REMARK VINA RESULT:      -7.7     11.018     13.905
REMARK  4 active torsions:
REMARK  status: ('A' for Active; 'I' for Inactive)
REMARK    1  A    between atoms: C7_12  and  O2_2 
REMARK    2  A    between atoms: C11_16  and  O3_3 
REMARK    3  A    between atoms: C14_19  and  O4_4 
REMARK    4  A    between atoms: C1_6  and  C2_7 
ROOT
HETATM    1  O1  UNK     1      23.026  -8.598  36.955  1.00  0.00    -0.309 OA
HETATM    2  O5  UNK     1      23.627 -12.232  35.214  1.00  0.00    -0.287 OA
HETATM    3  C1  UNK     1      22.006  -9.265  36.292  1.00  0.00     0.093 A 
HETATM    4  C3  UNK     1      24.539 -10.425  36.435  1.00  0.00     0.048 A 
HETATM    5  C4  UNK     1      24.264  -9.186  37.010  1.00  0.00     0.093 A 
HETATM    6  C5  UNK     1      22.145 -10.465  35.706  1.00  0.00     0.094 A 
HETATM    7  C6  UNK     1      23.459 -11.140  35.739  1.00  0.00     0.187 A 
HETATM    8  C8  UNK     1      25.271  -8.488  37.678  1.00  0.00     0.075 A 
HETATM    9  C9  UNK     1      25.819 -10.976  36.523  1.00  0.00     0.021 A 
HETATM   10  C11 UNK     1      26.551  -9.035  37.767  1.00  0.00     0.070 A 
HETATM   11  C13 UNK     1      26.824 -10.276  37.191  1.00  0.00     0.038 A 
ENDROOT
BRANCH   3  12
HETATM   12  C2  UNK     1      20.716  -8.548  36.299  1.00  0.00     0.031 A 
HETATM   13  C10 UNK     1      20.374  -7.751  35.203  1.00  0.00     0.020 A 
HETATM   14  C15 UNK     1      19.161  -7.063  35.186  1.00  0.00     0.038 A 
HETATM   15  C14 UNK     1      18.284  -7.170  36.265  1.00  0.00     0.070 A 
HETATM   16  C12 UNK     1      18.619  -7.965  37.361  1.00  0.00     0.074 A 
HETATM   17  C7  UNK     1      19.834  -8.652  37.379  1.00  0.00     0.083 A 
BRANCH  15  18
HETATM   18  O4  UNK     1      17.099  -6.499  36.249  1.00  0.00    -0.356 OA
HETATM   19  C18 UNK     1      16.108  -6.955  35.328  1.00  0.00     0.210 C 
ENDBRANCH  15  18
BRANCH  17  20
HETATM   20  O2  UNK     1      20.137  -9.421  38.463  1.00  0.00    -0.355 OA
HETATM   21  C16 UNK     1      19.421 -10.645  38.609  1.00  0.00     0.210 C 
ENDBRANCH  17  20
ENDBRANCH   3  12
BRANCH  10  22
HETATM   22  O3  UNK     1      27.536  -8.356  38.418  1.00  0.00    -0.356 OA
HETATM   23  C17 UNK     1      27.677  -8.599  39.816  1.00  0.00     0.210 C 
ENDBRANCH  10  22
TORSDOF 4
ENDMDL
