MODEL 1
REMARK VINA RESULT:      -7.4      0.000      0.000
REMARK  9 active torsions:
REMARK  status: ('A' for Active; 'I' for Inactive)
REMARK    1  A    between atoms: C3_10  and  O1_1 
REMARK    2  A    between atoms: C5_12  and  O2_2 
REMARK    3  A    between atoms: C6_13  and  O3_3 
REMARK    4  A    between atoms: C7_14  and  O4_4 
REMARK    5  A    between atoms: C14_21  and  O5_5 
REMARK    6  A    between atoms: C10_17  and  O6_6 
REMARK    7  A    between atoms: C1_8  and  C8_15 
REMARK    8  A    between atoms: C11_18  and  C2_9 
REMARK    9  A    between atoms: C11_18  and  C12_19 
ROOT
HETATM    1  O7  UNK     1      18.021   7.596  31.352  1.00  0.00    -0.287 OA
HETATM    2  C11 UNK     1      18.649   6.703  31.909  1.00  0.00     0.187 C 
ENDROOT
BRANCH   2   3
HETATM    3  C2  UNK     1      18.639   5.333  31.342  1.00  0.00     0.081 A 
HETATM    4  C10 UNK     1      19.062   5.119  30.030  1.00  0.00     0.085 A 
HETATM    5  C15 UNK     1      19.054   3.831  29.495  1.00  0.00     0.074 A 
HETATM    6  C14 UNK     1      18.623   2.756  30.274  1.00  0.00     0.073 A 
HETATM    7  C13 UNK     1      18.201   2.969  31.585  1.00  0.00     0.074 A 
HETATM    8  C6  UNK     1      18.209   4.258  32.120  1.00  0.00     0.087 A 
BRANCH   4   9
HETATM    9  O6  UNK     1      19.486   6.155  29.253  1.00  0.00    -0.360 OA
HETATM   10  H7  UNK     1      19.075   6.083  28.374  1.00  0.00     0.217 HD
ENDBRANCH   4   9
BRANCH   6  11
HETATM   11  O5  UNK     1      18.615   1.498  29.753  1.00  0.00    -0.356 OA
HETATM   12  C20 UNK     1      17.973   1.323  28.491  1.00  0.00     0.210 C 
ENDBRANCH   6  11
BRANCH   8  13
HETATM   13  O3  UNK     1      17.792   4.445  33.404  1.00  0.00    -0.355 OA
HETATM   14  C18 UNK     1      18.276   3.527  34.381  1.00  0.00     0.210 C 
ENDBRANCH   8  13
ENDBRANCH   2   3
BRANCH   2  15
HETATM   15  C12 UNK     1      19.461   6.938  33.136  1.00  0.00     0.057 C 
HETATM   16  C8  UNK     1      18.989   7.730  34.123  1.00  0.00     0.018 C 
BRANCH  16  17
HETATM   17  C1  UNK     1      17.701   8.411  34.108  1.00  0.00     0.000 A 
HETATM   18  C3  UNK     1      17.625   9.804  34.086  1.00  0.00     0.081 A 
HETATM   19  C9  UNK     1      16.380  10.435  34.070  1.00  0.00     0.077 A 
HETATM   20  C7  UNK     1      15.213   9.673  34.075  1.00  0.00     0.104 A 
HETATM   21  C5  UNK     1      15.289   8.280  34.097  1.00  0.00     0.102 A 
HETATM   22  C4  UNK     1      16.533   7.649  34.113  1.00  0.00     0.054 A 
BRANCH  18  23
HETATM   23  O1  UNK     1      18.750  10.574  34.082  1.00  0.00    -0.355 OA
HETATM   24  C16 UNK     1      18.573  11.980  33.927  1.00  0.00     0.210 C 
ENDBRANCH  18  23
BRANCH  20  25
HETATM   25  O4  UNK     1      14.004  10.299  34.060  1.00  0.00    -0.353 OA
HETATM   26  C19 UNK     1      13.722  11.138  32.941  1.00  0.00     0.210 C 
ENDBRANCH  20  25
BRANCH  21  27
HETATM   27  O2  UNK     1      14.155   7.525  34.100  1.00  0.00    -0.353 OA
HETATM   28  C17 UNK     1      13.641   7.120  32.833  1.00  0.00     0.210 C 
ENDBRANCH  21  27
ENDBRANCH  16  17
ENDBRANCH   2  15
TORSDOF 9
ENDMDL
MODEL 2
REMARK VINA RESULT:      -7.1      1.372      7.350
REMARK  9 active torsions:
REMARK  status: ('A' for Active; 'I' for Inactive)
REMARK    1  A    between atoms: C3_10  and  O1_1 
REMARK    2  A    between atoms: C5_12  and  O2_2 
REMARK    3  A    between atoms: C6_13  and  O3_3 
REMARK    4  A    between atoms: C7_14  and  O4_4 
REMARK    5  A    between atoms: C14_21  and  O5_5 
REMARK    6  A    between atoms: C10_17  and  O6_6 
REMARK    7  A    between atoms: C1_8  and  C8_15 
REMARK    8  A    between atoms: C11_18  and  C2_9 
REMARK    9  A    between atoms: C11_18  and  C12_19 
ROOT
HETATM    1  O7  UNK     1      16.570   6.408  32.962  1.00  0.00    -0.287 OA
HETATM    2  C11 UNK     1      17.067   7.311  33.625  1.00  0.00     0.187 C 
ENDROOT
BRANCH   2   3
HETATM    3  C2  UNK     1      16.294   8.552  33.875  1.00  0.00     0.081 A 
HETATM    4  C10 UNK     1      14.942   8.475  34.211  1.00  0.00     0.085 A 
HETATM    5  C15 UNK     1      14.214   9.641  34.446  1.00  0.00     0.074 A 
HETATM    6  C14 UNK     1      14.838  10.885  34.346  1.00  0.00     0.073 A 
HETATM    7  C13 UNK     1      16.190  10.962  34.012  1.00  0.00     0.074 A 
HETATM    8  C6  UNK     1      16.918   9.796  33.776  1.00  0.00     0.087 A 
BRANCH   4   9
HETATM    9  O6  UNK     1      14.313   7.270  34.313  1.00  0.00    -0.360 OA
HETATM   10  H7  UNK     1      13.430   7.337  33.910  1.00  0.00     0.217 HD
ENDBRANCH   4   9
BRANCH   6  11
HETATM   11  O5  UNK     1      14.128  12.023  34.576  1.00  0.00    -0.356 OA
HETATM   12  C20 UNK     1      12.722  11.969  34.343  1.00  0.00     0.210 C 
ENDBRANCH   6  11
BRANCH   8  13
HETATM   13  O3  UNK     1      18.238   9.894  33.450  1.00  0.00    -0.355 OA
HETATM   14  C18 UNK     1      18.948  11.021  33.958  1.00  0.00     0.210 C 
ENDBRANCH   8  13
ENDBRANCH   2   3
BRANCH   2  15
HETATM   15  C12 UNK     1      18.425   7.210  34.230  1.00  0.00     0.057 C 
HETATM   16  C8  UNK     1      19.222   6.158  33.941  1.00  0.00     0.018 C 
BRANCH  16  17
HETATM   17  C1  UNK     1      18.869   5.059  33.052  1.00  0.00     0.000 A 
HETATM   18  C3  UNK     1      19.093   5.147  31.677  1.00  0.00     0.081 A 
HETATM   19  C9  UNK     1      18.749   4.081  30.845  1.00  0.00     0.077 A 
HETATM   20  C7  UNK     1      18.182   2.928  31.387  1.00  0.00     0.104 A 
HETATM   21  C5  UNK     1      17.959   2.840  32.761  1.00  0.00     0.102 A 
HETATM   22  C4  UNK     1      18.303   3.906  33.593  1.00  0.00     0.054 A 
BRANCH  18  23
HETATM   23  O1  UNK     1      19.644   6.263  31.120  1.00  0.00    -0.355 OA
HETATM   24  C16 UNK     1      20.398   6.084  29.923  1.00  0.00     0.210 C 
ENDBRANCH  18  23
BRANCH  20  25
HETATM   25  O4  UNK     1      17.849   1.895  30.565  1.00  0.00    -0.353 OA
HETATM   26  C19 UNK     1      18.091   2.073  29.170  1.00  0.00     0.210 C 
ENDBRANCH  20  25
BRANCH  21  27
HETATM   27  O2  UNK     1      17.407   1.718  33.302  1.00  0.00    -0.353 OA
HETATM   28  C17 UNK     1      18.129   1.084  34.355  1.00  0.00     0.210 C 
ENDBRANCH  21  27
ENDBRANCH  16  17
ENDBRANCH   2  15
TORSDOF 9
ENDMDL
MODEL 3
REMARK VINA RESULT:      -7.0      2.122      3.856
REMARK  9 active torsions:
REMARK  status: ('A' for Active; 'I' for Inactive)
REMARK    1  A    between atoms: C3_10  and  O1_1 
REMARK    2  A    between atoms: C5_12  and  O2_2 
REMARK    3  A    between atoms: C6_13  and  O3_3 
REMARK    4  A    between atoms: C7_14  and  O4_4 
REMARK    5  A    between atoms: C14_21  and  O5_5 
REMARK    6  A    between atoms: C10_17  and  O6_6 
REMARK    7  A    between atoms: C1_8  and  C8_15 
REMARK    8  A    between atoms: C11_18  and  C2_9 
REMARK    9  A    between atoms: C11_18  and  C12_19 
ROOT
HETATM    1  O7  UNK     1      17.177   4.410  31.985  1.00  0.00    -0.287 OA
HETATM    2  C11 UNK     1      18.192   3.913  31.509  1.00  0.00     0.187 C 
ENDROOT
BRANCH   2   3
HETATM    3  C2  UNK     1      18.490   2.480  31.745  1.00  0.00     0.081 A 
HETATM    4  C10 UNK     1      18.379   1.947  33.030  1.00  0.00     0.085 A 
HETATM    5  C15 UNK     1      18.660   0.599  33.253  1.00  0.00     0.074 A 
HETATM    6  C14 UNK     1      19.050  -0.217  32.191  1.00  0.00     0.073 A 
HETATM    7  C13 UNK     1      19.160   0.315  30.907  1.00  0.00     0.074 A 
HETATM    8  C6  UNK     1      18.880   1.663  30.683  1.00  0.00     0.087 A 
BRANCH   4   9
HETATM    9  O6  UNK     1      18.000   2.727  34.081  1.00  0.00    -0.360 OA
HETATM   10  H7  UNK     1      18.773   2.898  34.647  1.00  0.00     0.217 HD
ENDBRANCH   4   9
BRANCH   6  11
HETATM   11  O5  UNK     1      19.323  -1.532  32.409  1.00  0.00    -0.356 OA
HETATM   12  C20 UNK     1      20.462  -2.077  31.743  1.00  0.00     0.210 C 
ENDBRANCH   6  11
BRANCH   8  13
HETATM   13  O3  UNK     1      18.994   2.163  29.420  1.00  0.00    -0.355 OA
HETATM   14  C18 UNK     1      17.947   1.853  28.505  1.00  0.00     0.210 C 
ENDBRANCH   8  13
ENDBRANCH   2   3
BRANCH   2  15
HETATM   15  C12 UNK     1      19.144   4.686  30.663  1.00  0.00     0.057 C 
HETATM   16  C8  UNK     1      19.242   6.027  30.800  1.00  0.00     0.018 C 
BRANCH  16  17
HETATM   17  C1  UNK     1      18.472   6.832  31.739  1.00  0.00     0.000 A 
HETATM   18  C3  UNK     1      18.988   7.164  32.993  1.00  0.00     0.081 A 
HETATM   19  C9  UNK     1      18.233   7.937  33.875  1.00  0.00     0.077 A 
HETATM   20  C7  UNK     1      16.963   8.378  33.504  1.00  0.00     0.104 A 
HETATM   21  C5  UNK     1      16.447   8.046  32.251  1.00  0.00     0.102 A 
HETATM   22  C4  UNK     1      17.202   7.273  31.369  1.00  0.00     0.054 A 
BRANCH  18  23
HETATM   23  O1  UNK     1      20.226   6.745  33.381  1.00  0.00    -0.355 OA
HETATM   24  C16 UNK     1      20.284   5.626  34.263  1.00  0.00     0.210 C 
ENDBRANCH  18  23
BRANCH  20  25
HETATM   25  O4  UNK     1      16.235   9.132  34.374  1.00  0.00    -0.353 OA
HETATM   26  C19 UNK     1      16.469  10.539  34.365  1.00  0.00     0.210 C 
ENDBRANCH  20  25
BRANCH  21  27
HETATM   27  O2  UNK     1      15.209   8.473  31.877  1.00  0.00    -0.353 OA
HETATM   28  C17 UNK     1      14.125   7.566  32.068  1.00  0.00     0.210 C 
ENDBRANCH  21  27
ENDBRANCH  16  17
ENDBRANCH   2  15
TORSDOF 9
ENDMDL
MODEL 4
REMARK VINA RESULT:      -7.0      1.169      2.723
REMARK  9 active torsions:
REMARK  status: ('A' for Active; 'I' for Inactive)
REMARK    1  A    between atoms: C3_10  and  O1_1 
REMARK    2  A    between atoms: C5_12  and  O2_2 
REMARK    3  A    between atoms: C6_13  and  O3_3 
REMARK    4  A    between atoms: C7_14  and  O4_4 
REMARK    5  A    between atoms: C14_21  and  O5_5 
REMARK    6  A    between atoms: C10_17  and  O6_6 
REMARK    7  A    between atoms: C1_8  and  C8_15 
REMARK    8  A    between atoms: C11_18  and  C2_9 
REMARK    9  A    between atoms: C11_18  and  C12_19 
ROOT
HETATM    1  O7  UNK     1      18.085   7.714  31.902  1.00  0.00    -0.287 OA
HETATM    2  C11 UNK     1      18.780   6.791  32.308  1.00  0.00     0.187 C 
ENDROOT
BRANCH   2   3
HETATM    3  C2  UNK     1      18.698   5.464  31.651  1.00  0.00     0.081 A 
HETATM    4  C10 UNK     1      18.978   5.342  30.289  1.00  0.00     0.085 A 
HETATM    5  C15 UNK     1      18.900   4.094  29.671  1.00  0.00     0.074 A 
HETATM    6  C14 UNK     1      18.545   2.968  30.413  1.00  0.00     0.073 A 
HETATM    7  C13 UNK     1      18.266   3.090  31.774  1.00  0.00     0.074 A 
HETATM    8  C6  UNK     1      18.343   4.337  32.393  1.00  0.00     0.087 A 
BRANCH   4   9
HETATM    9  O6  UNK     1      19.326   6.429  29.546  1.00  0.00    -0.360 OA
HETATM   10  H7  UNK     1      19.860   7.031  30.093  1.00  0.00     0.217 HD
ENDBRANCH   4   9
BRANCH   6  11
HETATM   11  O5  UNK     1      18.470   1.750  29.810  1.00  0.00    -0.356 OA
HETATM   12  C20 UNK     1      17.845   1.699  28.528  1.00  0.00     0.210 C 
ENDBRANCH   6  11
BRANCH   8  13
HETATM   13  O3  UNK     1      18.066   4.434  33.725  1.00  0.00    -0.355 OA
HETATM   14  C18 UNK     1      18.341   3.289  34.527  1.00  0.00     0.210 C 
ENDBRANCH   8  13
ENDBRANCH   2   3
BRANCH   2  15
HETATM   15  C12 UNK     1      19.746   6.946  33.432  1.00  0.00     0.057 C 
HETATM   16  C8  UNK     1      19.601   7.956  34.319  1.00  0.00     0.018 C 
BRANCH  16  17
HETATM   17  C1  UNK     1      18.542   8.956  34.284  1.00  0.00     0.000 A 
HETATM   18  C3  UNK     1      17.231   8.627  34.629  1.00  0.00     0.081 A 
HETATM   19  C9  UNK     1      16.234   9.602  34.590  1.00  0.00     0.077 A 
HETATM   20  C7  UNK     1      16.548  10.905  34.207  1.00  0.00     0.104 A 
HETATM   21  C5  UNK     1      17.859  11.234  33.862  1.00  0.00     0.102 A 
HETATM   22  C4  UNK     1      18.856  10.259  33.901  1.00  0.00     0.054 A 
BRANCH  18  23
HETATM   23  O1  UNK     1      16.895   7.360  35.006  1.00  0.00    -0.355 OA
HETATM   24  C16 UNK     1      15.674   6.833  34.493  1.00  0.00     0.210 C 
ENDBRANCH  18  23
BRANCH  20  25
HETATM   25  O4  UNK     1      15.566  11.848  34.172  1.00  0.00    -0.353 OA
HETATM   26  C19 UNK     1      14.254  11.405  33.829  1.00  0.00     0.210 C 
ENDBRANCH  20  25
BRANCH  21  27
HETATM   27  O2  UNK     1      18.178  12.505  33.488  1.00  0.00    -0.353 OA
HETATM   28  C17 UNK     1      18.425  13.445  34.531  1.00  0.00     0.210 C 
ENDBRANCH  21  27
ENDBRANCH  16  17
ENDBRANCH   2  15
TORSDOF 9
ENDMDL
MODEL 5
REMARK VINA RESULT:      -7.0     17.745     20.501
REMARK  9 active torsions:
REMARK  status: ('A' for Active; 'I' for Inactive)
REMARK    1  A    between atoms: C3_10  and  O1_1 
REMARK    2  A    between atoms: C5_12  and  O2_2 
REMARK    3  A    between atoms: C6_13  and  O3_3 
REMARK    4  A    between atoms: C7_14  and  O4_4 
REMARK    5  A    between atoms: C14_21  and  O5_5 
REMARK    6  A    between atoms: C10_17  and  O6_6 
REMARK    7  A    between atoms: C1_8  and  C8_15 
REMARK    8  A    between atoms: C11_18  and  C2_9 
REMARK    9  A    between atoms: C11_18  and  C12_19 
ROOT
HETATM    1  O7  UNK     1      31.530  -3.875  36.521  1.00  0.00    -0.287 OA
HETATM    2  C11 UNK     1      31.320  -4.615  37.475  1.00  0.00     0.187 C 
ENDROOT
BRANCH   2   3
HETATM    3  C2  UNK     1      29.990  -5.251  37.634  1.00  0.00     0.081 A 
HETATM    4  C10 UNK     1      29.210  -4.965  38.754  1.00  0.00     0.085 A 
HETATM    5  C15 UNK     1      27.959  -5.564  38.905  1.00  0.00     0.074 A 
HETATM    6  C14 UNK     1      27.487  -6.448  37.934  1.00  0.00     0.073 A 
HETATM    7  C13 UNK     1      28.267  -6.733  36.813  1.00  0.00     0.074 A 
HETATM    8  C6  UNK     1      29.518  -6.136  36.663  1.00  0.00     0.087 A 
BRANCH   4   9
HETATM    9  O6  UNK     1      29.652  -4.105  39.715  1.00  0.00    -0.360 OA
HETATM   10  H7  UNK     1      29.803  -3.231  39.314  1.00  0.00     0.217 HD
ENDBRANCH   4   9
BRANCH   6  11
HETATM   11  O5  UNK     1      26.266  -7.031  38.080  1.00  0.00    -0.356 OA
HETATM   12  C20 UNK     1      26.216  -8.256  38.810  1.00  0.00     0.210 C 
ENDBRANCH   6  11
BRANCH   8  13
HETATM   13  O3  UNK     1      30.264  -6.429  35.560  1.00  0.00    -0.355 OA
HETATM   14  C18 UNK     1      29.619  -6.313  34.294  1.00  0.00     0.210 C 
ENDBRANCH   8  13
ENDBRANCH   2   3
BRANCH   2  15
HETATM   15  C12 UNK     1      32.365  -4.938  38.487  1.00  0.00     0.057 C 
HETATM   16  C8  UNK     1      33.280  -5.901  38.237  1.00  0.00     0.018 C 
BRANCH  16  17
HETATM   17  C1  UNK     1      33.350  -6.694  37.017  1.00  0.00     0.000 A 
HETATM   18  C3  UNK     1      34.030  -6.224  35.893  1.00  0.00     0.081 A 
HETATM   19  C9  UNK     1      34.085  -7.002  34.736  1.00  0.00     0.077 A 
HETATM   20  C7  UNK     1      33.461  -8.248  34.703  1.00  0.00     0.104 A 
HETATM   21  C5  UNK     1      32.781  -8.718  35.827  1.00  0.00     0.102 A 
HETATM   22  C4  UNK     1      32.726  -7.940  36.984  1.00  0.00     0.054 A 
BRANCH  18  23
HETATM   23  O1  UNK     1      34.648  -5.009  35.896  1.00  0.00    -0.355 OA
HETATM   24  C16 UNK     1      34.504  -4.205  34.727  1.00  0.00     0.210 C 
ENDBRANCH  18  23
BRANCH  20  25
HETATM   25  O4  UNK     1      33.521  -8.998  33.568  1.00  0.00    -0.353 OA
HETATM   26  C19 UNK     1      32.724  -8.569  32.465  1.00  0.00     0.210 C 
ENDBRANCH  20  25
BRANCH  21  27
HETATM   27  O2  UNK     1      32.169  -9.935  35.808  1.00  0.00    -0.353 OA
HETATM   28  C17 UNK     1      30.755  -9.947  35.628  1.00  0.00     0.210 C 
ENDBRANCH  21  27
ENDBRANCH  16  17
ENDBRANCH   2  15
TORSDOF 9
ENDMDL
MODEL 6
REMARK VINA RESULT:      -7.0     17.145     19.295
REMARK  9 active torsions:
REMARK  status: ('A' for Active; 'I' for Inactive)
REMARK    1  A    between atoms: C3_10  and  O1_1 
REMARK    2  A    between atoms: C5_12  and  O2_2 
REMARK    3  A    between atoms: C6_13  and  O3_3 
REMARK    4  A    between atoms: C7_14  and  O4_4 
REMARK    5  A    between atoms: C14_21  and  O5_5 
REMARK    6  A    between atoms: C10_17  and  O6_6 
REMARK    7  A    between atoms: C1_8  and  C8_15 
REMARK    8  A    between atoms: C11_18  and  C2_9 
REMARK    9  A    between atoms: C11_18  and  C12_19 
ROOT
HETATM    1  O7  UNK     1      27.373  -9.367  35.731  1.00  0.00    -0.287 OA
HETATM    2  C11 UNK     1      28.411  -9.232  35.094  1.00  0.00     0.187 C 
ENDROOT
BRANCH   2   3
HETATM    3  C2  UNK     1      28.451  -8.300  33.941  1.00  0.00     0.081 A 
HETATM    4  C10 UNK     1      28.105  -6.960  34.116  1.00  0.00     0.085 A 
HETATM    5  C15 UNK     1      28.143  -6.083  33.032  1.00  0.00     0.074 A 
HETATM    6  C14 UNK     1      28.526  -6.545  31.773  1.00  0.00     0.073 A 
HETATM    7  C13 UNK     1      28.872  -7.885  31.598  1.00  0.00     0.074 A 
HETATM    8  C6  UNK     1      28.835  -8.763  32.682  1.00  0.00     0.087 A 
BRANCH   4   9
HETATM    9  O6  UNK     1      27.728  -6.488  35.338  1.00  0.00    -0.360 OA
HETATM   10  H7  UNK     1      28.507  -6.449  35.919  1.00  0.00     0.217 HD
ENDBRANCH   4   9
BRANCH   6  11
HETATM   11  O5  UNK     1      28.563  -5.689  30.716  1.00  0.00    -0.356 OA
HETATM   12  C20 UNK     1      29.715  -4.856  30.596  1.00  0.00     0.210 C 
ENDBRANCH   6  11
BRANCH   8  13
HETATM   13  O3  UNK     1      29.176 -10.068  32.489  1.00  0.00    -0.355 OA
HETATM   14  C18 UNK     1      30.169 -10.337  31.502  1.00  0.00     0.210 C 
ENDBRANCH   8  13
ENDBRANCH   2   3
BRANCH   2  15
HETATM   15  C12 UNK     1      29.668  -9.951  35.445  1.00  0.00     0.057 C 
HETATM   16  C8  UNK     1      30.610  -9.344  36.201  1.00  0.00     0.018 C 
BRANCH  16  17
HETATM   17  C1  UNK     1      30.514  -7.991  36.733  1.00  0.00     0.000 A 
HETATM   18  C3  UNK     1      29.799  -7.728  37.902  1.00  0.00     0.081 A 
HETATM   19  C9  UNK     1      29.722  -6.425  38.394  1.00  0.00     0.077 A 
HETATM   20  C7  UNK     1      30.360  -5.385  37.718  1.00  0.00     0.104 A 
HETATM   21  C5  UNK     1      31.075  -5.649  36.549  1.00  0.00     0.102 A 
HETATM   22  C4  UNK     1      31.152  -6.952  36.057  1.00  0.00     0.054 A 
BRANCH  18  23
HETATM   23  O1  UNK     1      29.164  -8.724  38.583  1.00  0.00    -0.355 OA
HETATM   24  C16 UNK     1      27.905  -8.407  39.171  1.00  0.00     0.210 C 
ENDBRANCH  18  23
BRANCH  20  25
HETATM   25  O4  UNK     1      30.278  -4.117  38.207  1.00  0.00    -0.353 OA
HETATM   26  C19 UNK     1      29.526  -3.933  39.405  1.00  0.00     0.210 C 
ENDBRANCH  20  25
BRANCH  21  27
HETATM   27  O2  UNK     1      31.704  -4.642  35.881  1.00  0.00    -0.353 OA
HETATM   28  C17 UNK     1      33.115  -4.530  36.056  1.00  0.00     0.210 C 
ENDBRANCH  21  27
ENDBRANCH  16  17
ENDBRANCH   2  15
TORSDOF 9
ENDMDL
MODEL 7
REMARK VINA RESULT:      -6.9     16.836     19.773
REMARK  9 active torsions:
REMARK  status: ('A' for Active; 'I' for Inactive)
REMARK    1  A    between atoms: C3_10  and  O1_1 
REMARK    2  A    between atoms: C5_12  and  O2_2 
REMARK    3  A    between atoms: C6_13  and  O3_3 
REMARK    4  A    between atoms: C7_14  and  O4_4 
REMARK    5  A    between atoms: C14_21  and  O5_5 
REMARK    6  A    between atoms: C10_17  and  O6_6 
REMARK    7  A    between atoms: C1_8  and  C8_15 
REMARK    8  A    between atoms: C11_18  and  C2_9 
REMARK    9  A    between atoms: C11_18  and  C12_19 
ROOT
HETATM    1  O7  UNK     1      31.425  -6.754  32.221  1.00  0.00    -0.287 OA
HETATM    2  C11 UNK     1      30.656  -5.930  32.703  1.00  0.00     0.187 C 
ENDROOT
BRANCH   2   3
HETATM    3  C2  UNK     1      30.373  -5.951  34.159  1.00  0.00     0.081 A 
HETATM    4  C10 UNK     1      29.235  -6.601  34.638  1.00  0.00     0.085 A 
HETATM    5  C15 UNK     1      28.968  -6.620  36.007  1.00  0.00     0.074 A 
HETATM    6  C14 UNK     1      29.839  -5.991  36.897  1.00  0.00     0.073 A 
HETATM    7  C13 UNK     1      30.976  -5.342  36.418  1.00  0.00     0.074 A 
HETATM    8  C6  UNK     1      31.244  -5.322  35.049  1.00  0.00     0.087 A 
BRANCH   4   9
HETATM    9  O6  UNK     1      28.372  -7.221  33.785  1.00  0.00    -0.360 OA
HETATM   10  H7  UNK     1      28.860  -7.518  32.998  1.00  0.00     0.217 HD
ENDBRANCH   4   9
BRANCH   6  11
HETATM   11  O5  UNK     1      29.578  -6.011  38.232  1.00  0.00    -0.356 OA
HETATM   12  C20 UNK     1      29.357  -4.754  38.869  1.00  0.00     0.210 C 
ENDBRANCH   6  11
BRANCH   8  13
HETATM   13  O3  UNK     1      32.361  -4.681  34.602  1.00  0.00    -0.355 OA
HETATM   14  C18 UNK     1      33.618  -5.197  35.033  1.00  0.00     0.210 C 
ENDBRANCH   8  13
ENDBRANCH   2   3
BRANCH   2  15
HETATM   15  C12 UNK     1      30.003  -4.868  31.887  1.00  0.00     0.057 C 
HETATM   16  C8  UNK     1      29.434  -5.175  30.701  1.00  0.00     0.018 C 
BRANCH  16  17
HETATM   17  C1  UNK     1      29.392  -6.506  30.111  1.00  0.00     0.000 A 
HETATM   18  C3  UNK     1      28.317  -7.364  30.347  1.00  0.00     0.081 A 
HETATM   19  C9  UNK     1      28.298  -8.634  29.770  1.00  0.00     0.077 A 
HETATM   20  C7  UNK     1      29.354  -9.046  28.957  1.00  0.00     0.104 A 
HETATM   21  C5  UNK     1      30.428  -8.188  28.720  1.00  0.00     0.102 A 
HETATM   22  C4  UNK     1      30.447  -6.918  29.298  1.00  0.00     0.054 A 
BRANCH  18  23
HETATM   23  O1  UNK     1      27.273  -6.987  31.139  1.00  0.00    -0.355 OA
HETATM   24  C16 UNK     1      26.026  -6.741  30.492  1.00  0.00     0.210 C 
ENDBRANCH  18  23
BRANCH  20  25
HETATM   25  O4  UNK     1      29.325 -10.288  28.399  1.00  0.00    -0.353 OA
HETATM   26  C19 UNK     1      29.784 -11.371  29.206  1.00  0.00     0.210 C 
ENDBRANCH  20  25
BRANCH  21  27
HETATM   27  O2  UNK     1      31.464  -8.579  27.926  1.00  0.00    -0.353 OA
HETATM   28  C17 UNK     1      32.778  -8.451  28.464  1.00  0.00     0.210 C 
ENDBRANCH  21  27
ENDBRANCH  16  17
ENDBRANCH   2  15
TORSDOF 9
ENDMDL
MODEL 8
REMARK VINA RESULT:      -6.9     18.209     21.439
REMARK  9 active torsions:
REMARK  status: ('A' for Active; 'I' for Inactive)
REMARK    1  A    between atoms: C3_10  and  O1_1 
REMARK    2  A    between atoms: C5_12  and  O2_2 
REMARK    3  A    between atoms: C6_13  and  O3_3 
REMARK    4  A    between atoms: C7_14  and  O4_4 
REMARK    5  A    between atoms: C14_21  and  O5_5 
REMARK    6  A    between atoms: C10_17  and  O6_6 
REMARK    7  A    between atoms: C1_8  and  C8_15 
REMARK    8  A    between atoms: C11_18  and  C2_9 
REMARK    9  A    between atoms: C11_18  and  C12_19 
ROOT
HETATM    1  O7  UNK     1      34.272  -5.844  37.924  1.00  0.00    -0.287 OA
HETATM    2  C11 UNK     1      33.157  -5.643  37.456  1.00  0.00     0.187 C 
ENDROOT
BRANCH   2   3
HETATM    3  C2  UNK     1      32.104  -6.679  37.593  1.00  0.00     0.081 A 
HETATM    4  C10 UNK     1      32.334  -7.972  37.124  1.00  0.00     0.085 A 
HETATM    5  C15 UNK     1      31.344  -8.947  37.251  1.00  0.00     0.074 A 
HETATM    6  C14 UNK     1      30.125  -8.628  37.849  1.00  0.00     0.073 A 
HETATM    7  C13 UNK     1      29.895  -7.335  38.319  1.00  0.00     0.074 A 
HETATM    8  C6  UNK     1      30.884  -6.360  38.191  1.00  0.00     0.087 A 
BRANCH   4   9
HETATM    9  O6  UNK     1      33.518  -8.304  36.536  1.00  0.00    -0.360 OA
HETATM   10  H7  UNK     1      33.518  -9.257  36.337  1.00  0.00     0.217 HD
ENDBRANCH   4   9
BRANCH   6  11
HETATM   11  O5  UNK     1      29.159  -9.579  37.974  1.00  0.00    -0.356 OA
HETATM   12  C20 UNK     1      28.356  -9.537  39.153  1.00  0.00     0.210 C 
ENDBRANCH   6  11
BRANCH   8  13
HETATM   13  O3  UNK     1      30.639  -5.103  38.656  1.00  0.00    -0.355 OA
HETATM   14  C18 UNK     1      29.294  -4.637  38.582  1.00  0.00     0.210 C 
ENDBRANCH   8  13
ENDBRANCH   2   3
BRANCH   2  15
HETATM   15  C12 UNK     1      32.790  -4.372  36.770  1.00  0.00     0.057 C 
HETATM   16  C8  UNK     1      32.870  -4.278  35.425  1.00  0.00     0.018 C 
BRANCH  16  17
HETATM   17  C1  UNK     1      33.298  -5.348  34.533  1.00  0.00     0.000 A 
HETATM   18  C3  UNK     1      32.367  -6.116  33.833  1.00  0.00     0.081 A 
HETATM   19  C9  UNK     1      32.801  -7.134  32.984  1.00  0.00     0.077 A 
HETATM   20  C7  UNK     1      34.164  -7.384  32.835  1.00  0.00     0.104 A 
HETATM   21  C5  UNK     1      35.095  -6.616  33.534  1.00  0.00     0.102 A 
HETATM   22  C4  UNK     1      34.662  -5.598  34.384  1.00  0.00     0.054 A 
BRANCH  18  23
HETATM   23  O1  UNK     1      31.028  -5.895  33.962  1.00  0.00    -0.355 OA
HETATM   24  C16 UNK     1      30.217  -7.013  34.316  1.00  0.00     0.210 C 
ENDBRANCH  18  23
BRANCH  20  25
HETATM   25  O4  UNK     1      34.576  -8.381  32.003  1.00  0.00    -0.353 OA
HETATM   26  C19 UNK     1      34.621  -8.085  30.609  1.00  0.00     0.210 C 
ENDBRANCH  20  25
BRANCH  21  27
HETATM   27  O2  UNK     1      36.430  -6.849  33.395  1.00  0.00    -0.353 OA
HETATM   28  C17 UNK     1      37.129  -7.326  34.543  1.00  0.00     0.210 C 
ENDBRANCH  21  27
ENDBRANCH  16  17
ENDBRANCH   2  15
TORSDOF 9
ENDMDL
MODEL 9
REMARK VINA RESULT:      -6.9     22.555     24.273
REMARK  9 active torsions:
REMARK  status: ('A' for Active; 'I' for Inactive)
REMARK    1  A    between atoms: C3_10  and  O1_1 
REMARK    2  A    between atoms: C5_12  and  O2_2 
REMARK    3  A    between atoms: C6_13  and  O3_3 
REMARK    4  A    between atoms: C7_14  and  O4_4 
REMARK    5  A    between atoms: C14_21  and  O5_5 
REMARK    6  A    between atoms: C10_17  and  O6_6 
REMARK    7  A    between atoms: C1_8  and  C8_15 
REMARK    8  A    between atoms: C11_18  and  C2_9 
REMARK    9  A    between atoms: C11_18  and  C12_19 
ROOT
HETATM    1  O7  UNK     1      10.337   5.099   9.826  1.00  0.00    -0.287 OA
HETATM    2  C11 UNK     1      10.973   5.744   9.001  1.00  0.00     0.187 C 
ENDROOT
BRANCH   2   3
HETATM    3  C2  UNK     1      12.389   6.094   9.271  1.00  0.00     0.081 A 
HETATM    4  C10 UNK     1      13.396   5.159   9.030  1.00  0.00     0.085 A 
HETATM    5  C15 UNK     1      14.727   5.487   9.284  1.00  0.00     0.074 A 
HETATM    6  C14 UNK     1      15.052   6.751   9.779  1.00  0.00     0.073 A 
HETATM    7  C13 UNK     1      14.045   7.685  10.020  1.00  0.00     0.074 A 
HETATM    8  C6  UNK     1      12.713   7.357   9.766  1.00  0.00     0.087 A 
BRANCH   4   9
HETATM    9  O6  UNK     1      13.100   3.920   8.547  1.00  0.00    -0.360 OA
HETATM   10  H7  UNK     1      12.265   3.963   8.048  1.00  0.00     0.217 HD
ENDBRANCH   4   9
BRANCH   6  11
HETATM   11  O5  UNK     1      16.351   7.071  10.027  1.00  0.00    -0.356 OA
HETATM   12  C20 UNK     1      16.657   8.455  10.196  1.00  0.00     0.210 C 
ENDBRANCH   6  11
BRANCH   8  13
HETATM   13  O3  UNK     1      11.745   8.285  10.009  1.00  0.00    -0.355 OA
HETATM   14  C18 UNK     1      12.173   9.630  10.209  1.00  0.00     0.210 C 
ENDBRANCH   8  13
ENDBRANCH   2   3
BRANCH   2  15
HETATM   15  C12 UNK     1      10.391   6.177   7.699  1.00  0.00     0.057 C 
HETATM   16  C8  UNK     1       9.147   6.703   7.651  1.00  0.00     0.018 C 
BRANCH  16  17
HETATM   17  C1  UNK     1       8.276   6.900   8.802  1.00  0.00     0.000 A 
HETATM   18  C3  UNK     1       7.425   5.885   9.242  1.00  0.00     0.081 A 
HETATM   19  C9  UNK     1       6.601   6.096  10.347  1.00  0.00     0.077 A 
HETATM   20  C7  UNK     1       6.627   7.321  11.013  1.00  0.00     0.104 A 
HETATM   21  C5  UNK     1       7.477   8.336  10.573  1.00  0.00     0.102 A 
HETATM   22  C4  UNK     1       8.302   8.125   9.468  1.00  0.00     0.054 A 
BRANCH  18  23
HETATM   23  O1  UNK     1       7.379   4.678   8.609  1.00  0.00    -0.355 OA
HETATM   24  C16 UNK     1       7.029   3.545   9.401  1.00  0.00     0.210 C 
ENDBRANCH  18  23
BRANCH  20  25
HETATM   25  O4  UNK     1       5.817   7.515  12.090  1.00  0.00    -0.353 OA
HETATM   26  C19 UNK     1       5.586   6.392  12.939  1.00  0.00     0.210 C 
ENDBRANCH  20  25
BRANCH  21  27
HETATM   27  O2  UNK     1       7.513   9.536  11.217  1.00  0.00    -0.353 OA
HETATM   28  C17 UNK     1       8.614  10.394  10.929  1.00  0.00     0.210 C 
ENDBRANCH  21  27
ENDBRANCH  16  17
ENDBRANCH   2  15
TORSDOF 9
ENDMDL
MODEL 10
REMARK VINA RESULT:      -6.9     17.458     20.067
REMARK  9 active torsions:
REMARK  status: ('A' for Active; 'I' for Inactive)
REMARK    1  A    between atoms: C3_10  and  O1_1 
REMARK    2  A    between atoms: C5_12  and  O2_2 
REMARK    3  A    between atoms: C6_13  and  O3_3 
REMARK    4  A    between atoms: C7_14  and  O4_4 
REMARK    5  A    between atoms: C14_21  and  O5_5 
REMARK    6  A    between atoms: C10_17  and  O6_6 
REMARK    7  A    between atoms: C1_8  and  C8_15 
REMARK    8  A    between atoms: C11_18  and  C2_9 
REMARK    9  A    between atoms: C11_18  and  C12_19 
ROOT
HETATM    1  O7  UNK     1      30.843  -3.662  36.935  1.00  0.00    -0.287 OA
HETATM    2  C11 UNK     1      31.625  -4.604  36.882  1.00  0.00     0.187 C 
ENDROOT
BRANCH   2   3
HETATM    3  C2  UNK     1      31.841  -5.310  35.596  1.00  0.00     0.081 A 
HETATM    4  C10 UNK     1      30.756  -5.851  34.906  1.00  0.00     0.085 A 
HETATM    5  C15 UNK     1      30.959  -6.515  33.697  1.00  0.00     0.074 A 
HETATM    6  C14 UNK     1      32.248  -6.638  33.176  1.00  0.00     0.073 A 
HETATM    7  C13 UNK     1      33.333  -6.097  33.866  1.00  0.00     0.074 A 
HETATM    8  C6  UNK     1      33.130  -5.433  35.075  1.00  0.00     0.087 A 
BRANCH   4   9
HETATM    9  O6  UNK     1      29.489  -5.742  35.397  1.00  0.00    -0.360 OA
HETATM   10  H7  UNK     1      28.879  -5.555  34.663  1.00  0.00     0.217 HD
ENDBRANCH   4   9
BRANCH   6  11
HETATM   11  O5  UNK     1      32.446  -7.286  31.996  1.00  0.00    -0.356 OA
HETATM   12  C20 UNK     1      32.566  -8.706  32.048  1.00  0.00     0.210 C 
ENDBRANCH   6  11
BRANCH   8  13
HETATM   13  O3  UNK     1      34.204  -4.912  35.733  1.00  0.00    -0.355 OA
HETATM   14  C18 UNK     1      35.308  -5.785  35.963  1.00  0.00     0.210 C 
ENDBRANCH   8  13
ENDBRANCH   2   3
BRANCH   2  15
HETATM   15  C12 UNK     1      32.407  -5.065  38.064  1.00  0.00     0.057 C 
HETATM   16  C8  UNK     1      32.054  -6.195  38.715  1.00  0.00     0.018 C 
BRANCH  16  17
HETATM   17  C1  UNK     1      30.929  -7.051  38.359  1.00  0.00     0.000 A 
HETATM   18  C3  UNK     1      31.125  -8.237  37.650  1.00  0.00     0.081 A 
HETATM   19  C9  UNK     1      30.033  -9.041  37.322  1.00  0.00     0.077 A 
HETATM   20  C7  UNK     1      28.747  -8.660  37.702  1.00  0.00     0.104 A 
HETATM   21  C5  UNK     1      28.552  -7.474  38.411  1.00  0.00     0.102 A 
HETATM   22  C4  UNK     1      29.643  -6.669  38.739  1.00  0.00     0.054 A 
BRANCH  18  23
HETATM   23  O1  UNK     1      32.371  -8.633  37.265  1.00  0.00    -0.355 OA
HETATM   24  C16 UNK     1      32.515  -9.114  35.931  1.00  0.00     0.210 C 
ENDBRANCH  18  23
BRANCH  20  25
HETATM   25  O4  UNK     1      27.689  -9.452  37.375  1.00  0.00    -0.353 OA
HETATM   26  C19 UNK     1      27.416  -9.629  35.986  1.00  0.00     0.210 C 
ENDBRANCH  20  25
BRANCH  21  27
HETATM   27  O2  UNK     1      27.300  -7.092  38.789  1.00  0.00    -0.353 OA
HETATM   28  C17 UNK     1      26.953  -5.722  38.596  1.00  0.00     0.210 C 
ENDBRANCH  21  27
ENDBRANCH  16  17
ENDBRANCH   2  15
TORSDOF 9
ENDMDL
