MODEL 1
REMARK VINA RESULT:      -8.1      0.000      0.000
REMARK  5 active torsions:
REMARK  status: ('A' for Active; 'I' for Inactive)
REMARK    1  A    between atoms: C8_14  and  O2_2 
REMARK    2  A    between atoms: C9_15  and  O3_3 
REMARK    3  A    between atoms: C11_17  and  O4_4 
REMARK    4  A    between atoms: C5_11  and  O5_5 
REMARK    5  A    between atoms: C1_7  and  C2_8 
ROOT
HETATM    1  O1  UNK     1      19.238  -1.194  17.658  1.00  0.00    -0.306 OA
HETATM    2  O6  UNK     1      19.141   2.197  15.400  1.00  0.00    -0.284 OA
HETATM    3  C2  UNK     1      19.363  -1.240  16.278  1.00  0.00     0.123 A 
HETATM    4  C3  UNK     1      19.053   1.224  17.546  1.00  0.00     0.051 A 
HETATM    5  C4  UNK     1      19.092   0.029  18.260  1.00  0.00     0.090 A 
HETATM    6  C5  UNK     1      19.333  -0.162  15.473  1.00  0.00     0.152 A 
HETATM    7  C10 UNK     1      19.173   1.181  16.081  1.00  0.00     0.220 A 
HETATM    8  C12 UNK     1      18.902   2.441  18.215  1.00  0.00     0.018 A 
HETATM    9  C13 UNK     1      18.978   0.043  19.651  1.00  0.00     0.038 A 
HETATM   10  C14 UNK     1      18.789   2.453  19.606  1.00  0.00     0.001 A 
HETATM   11  C15 UNK     1      18.826   1.256  20.322  1.00  0.00     0.003 A 
ENDROOT
BRANCH   3  12
HETATM   12  C1  UNK     1      19.511  -2.612  15.760  1.00  0.00     0.006 A 
HETATM   13  C6  UNK     1      18.419  -3.262  15.185  1.00  0.00     0.054 A 
HETATM   14  C9  UNK     1      18.559  -4.560  14.694  1.00  0.00     0.105 A 
HETATM   15  C11 UNK     1      19.791  -5.208  14.777  1.00  0.00     0.135 A 
HETATM   16  C8  UNK     1      20.884  -4.558  15.351  1.00  0.00     0.105 A 
HETATM   17  C7  UNK     1      20.744  -3.260  15.842  1.00  0.00     0.054 A 
BRANCH  14  18
HETATM   18  O3  UNK     1      17.484  -5.183  14.135  1.00  0.00    -0.353 OA
HETATM   19  C17 UNK     1      16.786  -6.125  14.947  1.00  0.00     0.210 C 
ENDBRANCH  14  18
BRANCH  15  20
HETATM   20  O4  UNK     1      19.928  -6.477  14.297  1.00  0.00    -0.351 OA
HETATM   21  C18 UNK     1      20.323  -6.614  12.934  1.00  0.00     0.210 C 
ENDBRANCH  15  20
BRANCH  16  22
HETATM   22  O2  UNK     1      22.093  -5.179  15.438  1.00  0.00    -0.353 OA
HETATM   23  C16 UNK     1      22.888  -4.893  16.587  1.00  0.00     0.210 C 
ENDBRANCH  16  22
ENDBRANCH   3  12
BRANCH   6  24
HETATM   24  O5  UNK     1      19.426  -0.245  14.100  1.00  0.00    -0.355 OA
HETATM   25  H7  UNK     1      19.602  -1.162  13.837  1.00  0.00     0.218 HD
ENDBRANCH   6  24
TORSDOF 5
ENDMDL
MODEL 2
REMARK VINA RESULT:      -8.1     14.035     17.918
REMARK  5 active torsions:
REMARK  status: ('A' for Active; 'I' for Inactive)
REMARK    1  A    between atoms: C8_14  and  O2_2 
REMARK    2  A    between atoms: C9_15  and  O3_3 
REMARK    3  A    between atoms: C11_17  and  O4_4 
REMARK    4  A    between atoms: C5_11  and  O5_5 
REMARK    5  A    between atoms: C1_7  and  C2_8 
ROOT
HETATM    1  O1  UNK     1      16.555   5.873  32.548  1.00  0.00    -0.306 OA
HETATM    2  O6  UNK     1      19.280   8.567  33.933  1.00  0.00    -0.284 OA
HETATM    3  C2  UNK     1      17.888   5.532  32.713  1.00  0.00     0.123 A 
HETATM    4  C3  UNK     1      17.040   8.110  33.356  1.00  0.00     0.051 A 
HETATM    5  C4  UNK     1      16.159   7.144  32.876  1.00  0.00     0.090 A 
HETATM    6  C5  UNK     1      18.840   6.373  33.158  1.00  0.00     0.152 A 
HETATM    7  C10 UNK     1      18.459   7.759  33.520  1.00  0.00     0.220 A 
HETATM    8  C12 UNK     1      16.579   9.390  33.672  1.00  0.00     0.018 A 
HETATM    9  C13 UNK     1      14.808   7.453  32.707  1.00  0.00     0.038 A 
HETATM   10  C14 UNK     1      15.228   9.697  33.503  1.00  0.00     0.001 A 
HETATM   11  C15 UNK     1      14.344   8.730  33.021  1.00  0.00     0.003 A 
ENDROOT
BRANCH   3  12
HETATM   12  C1  UNK     1      18.179   4.141  32.324  1.00  0.00     0.006 A 
HETATM   13  C6  UNK     1      18.212   3.139  33.294  1.00  0.00     0.054 A 
HETATM   14  C9  UNK     1      18.487   1.821  32.926  1.00  0.00     0.105 A 
HETATM   15  C11 UNK     1      18.728   1.506  31.589  1.00  0.00     0.135 A 
HETATM   16  C8  UNK     1      18.694   2.508  30.619  1.00  0.00     0.105 A 
HETATM   17  C7  UNK     1      18.419   3.825  30.987  1.00  0.00     0.054 A 
BRANCH  14  18
HETATM   18  O3  UNK     1      18.516   0.852  33.883  1.00  0.00    -0.353 OA
HETATM   19  C17 UNK     1      17.444   0.836  34.824  1.00  0.00     0.210 C 
ENDBRANCH  14  18
BRANCH  15  20
HETATM   20  O4  UNK     1      18.996   0.218  31.230  1.00  0.00    -0.351 OA
HETATM   21  C18 UNK     1      20.359  -0.112  30.976  1.00  0.00     0.210 C 
ENDBRANCH  15  20
BRANCH  16  22
HETATM   22  O2  UNK     1      18.927   2.213  29.310  1.00  0.00    -0.353 OA
HETATM   23  C16 UNK     1      17.800   1.844  28.518  1.00  0.00     0.210 C 
ENDBRANCH  16  22
ENDBRANCH   3  12
BRANCH   6  24
HETATM   24  O5  UNK     1      20.165   6.013  33.280  1.00  0.00    -0.355 OA
HETATM   25  H7  UNK     1      20.232   5.066  33.480  1.00  0.00     0.218 HD
ENDBRANCH   6  24
TORSDOF 5
ENDMDL
MODEL 3
REMARK VINA RESULT:      -8.1      0.029      2.516
REMARK  5 active torsions:
REMARK  status: ('A' for Active; 'I' for Inactive)
REMARK    1  A    between atoms: C8_14  and  O2_2 
REMARK    2  A    between atoms: C9_15  and  O3_3 
REMARK    3  A    between atoms: C11_17  and  O4_4 
REMARK    4  A    between atoms: C5_11  and  O5_5 
REMARK    5  A    between atoms: C1_7  and  C2_8 
ROOT
HETATM    1  O1  UNK     1      19.235  -1.181  17.658  1.00  0.00    -0.306 OA
HETATM    2  O6  UNK     1      19.150   2.201  15.387  1.00  0.00    -0.284 OA
HETATM    3  C2  UNK     1      19.360  -1.233  16.279  1.00  0.00     0.123 A 
HETATM    4  C3  UNK     1      19.060   1.237  17.537  1.00  0.00     0.051 A 
HETATM    5  C4  UNK     1      19.095   0.045  18.256  1.00  0.00     0.090 A 
HETATM    6  C5  UNK     1      19.333  -0.158  15.470  1.00  0.00     0.152 A 
HETATM    7  C10 UNK     1      19.179   1.187  16.072  1.00  0.00     0.220 A 
HETATM    8  C12 UNK     1      18.913   2.457  18.201  1.00  0.00     0.018 A 
HETATM    9  C13 UNK     1      18.981   0.065  19.647  1.00  0.00     0.038 A 
HETATM   10  C14 UNK     1      18.800   2.475  19.592  1.00  0.00     0.001 A 
HETATM   11  C15 UNK     1      18.834   1.281  20.314  1.00  0.00     0.003 A 
ENDROOT
BRANCH   3  12
HETATM   12  C1  UNK     1      19.503  -2.607  15.766  1.00  0.00     0.006 A 
HETATM   13  C6  UNK     1      20.738  -3.252  15.835  1.00  0.00     0.054 A 
HETATM   14  C9  UNK     1      20.874  -4.553  15.349  1.00  0.00     0.105 A 
HETATM   15  C11 UNK     1      19.775  -5.209  14.797  1.00  0.00     0.135 A 
HETATM   16  C8  UNK     1      18.539  -4.566  14.729  1.00  0.00     0.105 A 
HETATM   17  C7  UNK     1      18.404  -3.264  15.214  1.00  0.00     0.054 A 
BRANCH  14  18
HETATM   18  O3  UNK     1      22.086  -5.171  15.422  1.00  0.00    -0.353 OA
HETATM   19  C17 UNK     1      22.884  -4.899  16.573  1.00  0.00     0.210 C 
ENDBRANCH  14  18
BRANCH  15  20
HETATM   20  O4  UNK     1      19.908  -6.482  14.323  1.00  0.00    -0.351 OA
HETATM   21  C18 UNK     1      20.297  -6.626  12.959  1.00  0.00     0.210 C 
ENDBRANCH  15  20
BRANCH  16  22
HETATM   22  O2  UNK     1      17.458  -5.196  14.192  1.00  0.00    -0.353 OA
HETATM   23  C16 UNK     1      16.774  -6.131  15.022  1.00  0.00     0.210 C 
ENDBRANCH  16  22
ENDBRANCH   3  12
BRANCH   6  24
HETATM   24  O5  UNK     1      19.426  -0.247  14.097  1.00  0.00    -0.355 OA
HETATM   25  H7  UNK     1      18.804   0.372  13.685  1.00  0.00     0.218 HD
ENDBRANCH   6  24
TORSDOF 5
ENDMDL
MODEL 4
REMARK VINA RESULT:      -8.0     15.209     18.942
REMARK  5 active torsions:
REMARK  status: ('A' for Active; 'I' for Inactive)
REMARK    1  A    between atoms: C8_14  and  O2_2 
REMARK    2  A    between atoms: C9_15  and  O3_3 
REMARK    3  A    between atoms: C11_17  and  O4_4 
REMARK    4  A    between atoms: C5_11  and  O5_5 
REMARK    5  A    between atoms: C1_7  and  C2_8 
ROOT
HETATM    1  O1  UNK     1      18.044   3.037  33.126  1.00  0.00    -0.306 OA
HETATM    2  O6  UNK     1      19.348   1.380  29.639  1.00  0.00    -0.284 OA
HETATM    3  C2  UNK     1      18.235   3.805  31.987  1.00  0.00     0.123 A 
HETATM    4  C3  UNK     1      18.738   1.063  31.894  1.00  0.00     0.051 A 
HETATM    5  C4  UNK     1      18.292   1.691  33.056  1.00  0.00     0.090 A 
HETATM    6  C5  UNK     1      18.669   3.324  30.808  1.00  0.00     0.152 A 
HETATM    7  C10 UNK     1      18.954   1.874  30.687  1.00  0.00     0.220 A 
HETATM    8  C12 UNK     1      18.974  -0.313  31.883  1.00  0.00     0.018 A 
HETATM    9  C13 UNK     1      18.082   0.944  34.216  1.00  0.00     0.038 A 
HETATM   10  C14 UNK     1      18.763  -1.058  33.045  1.00  0.00     0.001 A 
HETATM   11  C15 UNK     1      18.319  -0.430  34.209  1.00  0.00     0.003 A 
ENDROOT
BRANCH   3  12
HETATM   12  C1  UNK     1      17.934   5.232  32.199  1.00  0.00     0.006 A 
HETATM   13  C6  UNK     1      18.852   6.047  32.862  1.00  0.00     0.054 A 
HETATM   14  C9  UNK     1      18.568   7.398  33.062  1.00  0.00     0.105 A 
HETATM   15  C11 UNK     1      17.367   7.934  32.599  1.00  0.00     0.135 A 
HETATM   16  C8  UNK     1      16.449   7.120  31.935  1.00  0.00     0.105 A 
HETATM   17  C7  UNK     1      16.733   5.769  31.735  1.00  0.00     0.054 A 
BRANCH  14  18
HETATM   18  O3  UNK     1      19.474   8.183  33.711  1.00  0.00    -0.353 OA
HETATM   19  C17 UNK     1      19.546   8.052  35.129  1.00  0.00     0.210 C 
ENDBRANCH  14  18
BRANCH  15  20
HETATM   20  O4  UNK     1      17.090   9.255  32.794  1.00  0.00    -0.351 OA
HETATM   21  C18 UNK     1      16.374   9.598  33.978  1.00  0.00     0.210 C 
ENDBRANCH  15  20
BRANCH  16  22
HETATM   22  O2  UNK     1      15.273   7.631  31.478  1.00  0.00    -0.353 OA
HETATM   23  C16 UNK     1      14.082   7.212  32.141  1.00  0.00     0.210 C 
ENDBRANCH  16  22
ENDBRANCH   3  12
BRANCH   6  24
HETATM   24  O5  UNK     1      18.880   4.120  29.702  1.00  0.00    -0.355 OA
HETATM   25  H7  UNK     1      19.683   4.650  29.827  1.00  0.00     0.218 HD
ENDBRANCH   6  24
TORSDOF 5
ENDMDL
MODEL 5
REMARK VINA RESULT:      -8.0     15.203     18.777
REMARK  5 active torsions:
REMARK  status: ('A' for Active; 'I' for Inactive)
REMARK    1  A    between atoms: C8_14  and  O2_2 
REMARK    2  A    between atoms: C9_15  and  O3_3 
REMARK    3  A    between atoms: C11_17  and  O4_4 
REMARK    4  A    between atoms: C5_11  and  O5_5 
REMARK    5  A    between atoms: C1_7  and  C2_8 
ROOT
HETATM    1  O1  UNK     1      18.043   3.040  33.121  1.00  0.00    -0.306 OA
HETATM    2  O6  UNK     1      19.333   1.380  29.631  1.00  0.00    -0.284 OA
HETATM    3  C2  UNK     1      18.230   3.807  31.982  1.00  0.00     0.123 A 
HETATM    4  C3  UNK     1      18.730   1.065  31.889  1.00  0.00     0.051 A 
HETATM    5  C4  UNK     1      18.289   1.694  33.051  1.00  0.00     0.090 A 
HETATM    6  C5  UNK     1      18.659   3.325  30.801  1.00  0.00     0.152 A 
HETATM    7  C10 UNK     1      18.942   1.875  30.680  1.00  0.00     0.220 A 
HETATM    8  C12 UNK     1      18.965  -0.312  31.878  1.00  0.00     0.018 A 
HETATM    9  C13 UNK     1      18.082   0.948  34.213  1.00  0.00     0.038 A 
HETATM   10  C14 UNK     1      18.758  -1.056  33.040  1.00  0.00     0.001 A 
HETATM   11  C15 UNK     1      18.318  -0.427  34.205  1.00  0.00     0.003 A 
ENDROOT
BRANCH   3  12
HETATM   12  C1  UNK     1      17.931   5.234  32.193  1.00  0.00     0.006 A 
HETATM   13  C6  UNK     1      16.732   5.773  31.726  1.00  0.00     0.054 A 
HETATM   14  C9  UNK     1      16.449   7.124  31.927  1.00  0.00     0.105 A 
HETATM   15  C11 UNK     1      17.365   7.937  32.595  1.00  0.00     0.135 A 
HETATM   16  C8  UNK     1      18.564   7.399  33.062  1.00  0.00     0.105 A 
HETATM   17  C7  UNK     1      18.847   6.047  32.862  1.00  0.00     0.054 A 
BRANCH  14  18
HETATM   18  O3  UNK     1      15.274   7.637  31.466  1.00  0.00    -0.353 OA
HETATM   19  C17 UNK     1      14.080   7.211  32.119  1.00  0.00     0.210 C 
ENDBRANCH  14  18
BRANCH  15  20
HETATM   20  O4  UNK     1      17.088   9.258  32.791  1.00  0.00    -0.351 OA
HETATM   21  C18 UNK     1      16.371   9.600  33.974  1.00  0.00     0.210 C 
ENDBRANCH  15  20
BRANCH  16  22
HETATM   22  O2  UNK     1      19.466   8.181  33.716  1.00  0.00    -0.353 OA
HETATM   23  C16 UNK     1      19.539   8.042  35.134  1.00  0.00     0.210 C 
ENDBRANCH  16  22
ENDBRANCH   3  12
BRANCH   6  24
HETATM   24  O5  UNK     1      18.867   4.120  29.694  1.00  0.00    -0.355 OA
HETATM   25  H7  UNK     1      18.017   4.344  29.285  1.00  0.00     0.218 HD
ENDBRANCH   6  24
TORSDOF 5
ENDMDL
MODEL 6
REMARK VINA RESULT:      -8.0     14.046     17.899
REMARK  5 active torsions:
REMARK  status: ('A' for Active; 'I' for Inactive)
REMARK    1  A    between atoms: C8_14  and  O2_2 
REMARK    2  A    between atoms: C9_15  and  O3_3 
REMARK    3  A    between atoms: C11_17  and  O4_4 
REMARK    4  A    between atoms: C5_11  and  O5_5 
REMARK    5  A    between atoms: C1_7  and  C2_8 
ROOT
HETATM    1  O1  UNK     1      16.560   5.888  32.564  1.00  0.00    -0.306 OA
HETATM    2  O6  UNK     1      19.294   8.575  33.944  1.00  0.00    -0.284 OA
HETATM    3  C2  UNK     1      17.894   5.546  32.722  1.00  0.00     0.123 A 
HETATM    4  C3  UNK     1      17.051   8.123  33.374  1.00  0.00     0.051 A 
HETATM    5  C4  UNK     1      16.167   7.159  32.896  1.00  0.00     0.090 A 
HETATM    6  C5  UNK     1      18.848   6.384  33.166  1.00  0.00     0.152 A 
HETATM    7  C10 UNK     1      18.470   7.770  33.533  1.00  0.00     0.220 A 
HETATM    8  C12 UNK     1      16.593   9.403  33.696  1.00  0.00     0.018 A 
HETATM    9  C13 UNK     1      14.816   7.469  32.734  1.00  0.00     0.038 A 
HETATM   10  C14 UNK     1      15.241   9.711  33.534  1.00  0.00     0.001 A 
HETATM   11  C15 UNK     1      14.355   8.747  33.053  1.00  0.00     0.003 A 
ENDROOT
BRANCH   3  12
HETATM   12  C1  UNK     1      18.181   4.155  32.329  1.00  0.00     0.006 A 
HETATM   13  C6  UNK     1      18.411   3.843  30.988  1.00  0.00     0.054 A 
HETATM   14  C9  UNK     1      18.684   2.526  30.616  1.00  0.00     0.105 A 
HETATM   15  C11 UNK     1      18.727   1.522  31.583  1.00  0.00     0.135 A 
HETATM   16  C8  UNK     1      18.498   1.834  32.923  1.00  0.00     0.105 A 
HETATM   17  C7  UNK     1      18.225   3.151  33.296  1.00  0.00     0.054 A 
BRANCH  14  18
HETATM   18  O3  UNK     1      18.907   2.235  29.304  1.00  0.00    -0.353 OA
HETATM   19  C17 UNK     1      17.776   1.851  28.523  1.00  0.00     0.210 C 
ENDBRANCH  14  18
BRANCH  15  20
HETATM   20  O4  UNK     1      18.993   0.235  31.218  1.00  0.00    -0.351 OA
HETATM   21  C18 UNK     1      20.352  -0.088  30.934  1.00  0.00     0.210 C 
ENDBRANCH  15  20
BRANCH  16  22
HETATM   22  O2  UNK     1      18.537   0.863  33.877  1.00  0.00    -0.353 OA
HETATM   23  C16 UNK     1      17.527   0.902  34.884  1.00  0.00     0.210 C 
ENDBRANCH  16  22
ENDBRANCH   3  12
BRANCH   6  24
HETATM   24  O5  UNK     1      20.174   6.022  33.280  1.00  0.00    -0.355 OA
HETATM   25  H7  UNK     1      20.623   6.612  33.907  1.00  0.00     0.218 HD
ENDBRANCH   6  24
TORSDOF 5
ENDMDL
MODEL 7
REMARK VINA RESULT:      -7.8     18.192     21.604
REMARK  5 active torsions:
REMARK  status: ('A' for Active; 'I' for Inactive)
REMARK    1  A    between atoms: C8_14  and  O2_2 
REMARK    2  A    between atoms: C9_15  and  O3_3 
REMARK    3  A    between atoms: C11_17  and  O4_4 
REMARK    4  A    between atoms: C5_11  and  O5_5 
REMARK    5  A    between atoms: C1_7  and  C2_8 
ROOT
HETATM    1  O1  UNK     1      21.152  -4.717  37.680  1.00  0.00    -0.306 OA
HETATM    2  O6  UNK     1      18.481  -7.790  37.840  1.00  0.00    -0.284 OA
HETATM    3  C2  UNK     1      19.887  -4.604  37.126  1.00  0.00     0.123 A 
HETATM    4  C3  UNK     1      20.624  -6.976  38.393  1.00  0.00     0.051 A 
HETATM    5  C4  UNK     1      21.491  -5.890  38.303  1.00  0.00     0.090 A 
HETATM    6  C5  UNK     1      18.960  -5.580  37.137  1.00  0.00     0.152 A 
HETATM    7  C10 UNK     1      19.285  -6.868  37.796  1.00  0.00     0.220 A 
HETATM    8  C12 UNK     1      21.026  -8.148  39.040  1.00  0.00     0.018 A 
HETATM    9  C13 UNK     1      22.769  -5.969  38.859  1.00  0.00     0.038 A 
HETATM   10  C14 UNK     1      22.304  -8.224  39.596  1.00  0.00     0.001 A 
HETATM   11  C15 UNK     1      23.174  -7.137  39.505  1.00  0.00     0.003 A 
ENDROOT
BRANCH   3  12
HETATM   12  C1  UNK     1      19.653  -3.296  36.488  1.00  0.00     0.006 A 
HETATM   13  C6  UNK     1      19.033  -2.272  37.205  1.00  0.00     0.054 A 
HETATM   14  C9  UNK     1      18.812  -1.034  36.601  1.00  0.00     0.105 A 
HETATM   15  C11 UNK     1      19.210  -0.820  35.282  1.00  0.00     0.135 A 
HETATM   16  C8  UNK     1      19.830  -1.843  34.566  1.00  0.00     0.105 A 
HETATM   17  C7  UNK     1      20.052  -3.082  35.169  1.00  0.00     0.054 A 
BRANCH  14  18
HETATM   18  O3  UNK     1      18.206  -0.042  37.312  1.00  0.00    -0.353 OA
HETATM   19  C17 UNK     1      16.779  -0.024  37.315  1.00  0.00     0.210 C 
ENDBRANCH  14  18
BRANCH  15  20
HETATM   20  O4  UNK     1      18.993   0.391  34.693  1.00  0.00    -0.351 OA
HETATM   21  C18 UNK     1      17.793   0.538  33.939  1.00  0.00     0.210 C 
ENDBRANCH  15  20
BRANCH  16  22
HETATM   22  O2  UNK     1      20.224  -1.647  33.277  1.00  0.00    -0.353 OA
HETATM   23  C16 UNK     1      20.930  -2.713  32.645  1.00  0.00     0.210 C 
ENDBRANCH  16  22
ENDBRANCH   3  12
BRANCH   6  24
HETATM   24  O5  UNK     1      17.721  -5.448  36.547  1.00  0.00    -0.355 OA
HETATM   25  H7  UNK     1      17.236  -6.286  36.611  1.00  0.00     0.218 HD
ENDBRANCH   6  24
TORSDOF 5
ENDMDL
MODEL 8
REMARK VINA RESULT:      -7.6     18.727     20.877
REMARK  5 active torsions:
REMARK  status: ('A' for Active; 'I' for Inactive)
REMARK    1  A    between atoms: C8_14  and  O2_2 
REMARK    2  A    between atoms: C9_15  and  O3_3 
REMARK    3  A    between atoms: C11_17  and  O4_4 
REMARK    4  A    between atoms: C5_11  and  O5_5 
REMARK    5  A    between atoms: C1_7  and  C2_8 
ROOT
HETATM    1  O1  UNK     1      18.948  -2.362  37.399  1.00  0.00    -0.306 OA
HETATM    2  O6  UNK     1      19.393  -0.745  33.685  1.00  0.00    -0.284 OA
HETATM    3  C2  UNK     1      19.536  -3.074  36.366  1.00  0.00     0.123 A 
HETATM    4  C3  UNK     1      18.648  -0.471  35.905  1.00  0.00     0.051 A 
HETATM    5  C4  UNK     1      18.523  -1.082  37.151  1.00  0.00     0.090 A 
HETATM    6  C5  UNK     1      19.708  -2.605  35.117  1.00  0.00     0.152 A 
HETATM    7  C10 UNK     1      19.261  -1.227  34.802  1.00  0.00     0.220 A 
HETATM    8  C12 UNK     1      18.196   0.836  35.713  1.00  0.00     0.018 A 
HETATM    9  C13 UNK     1      17.943  -0.388  38.214  1.00  0.00     0.038 A 
HETATM   10  C14 UNK     1      17.617   1.529  36.777  1.00  0.00     0.001 A 
HETATM   11  C15 UNK     1      17.490   0.918  38.025  1.00  0.00     0.003 A 
ENDROOT
BRANCH   3  12
HETATM   12  C1  UNK     1      19.945  -4.433  36.765  1.00  0.00     0.006 A 
HETATM   13  C6  UNK     1      21.173  -4.635  37.395  1.00  0.00     0.054 A 
HETATM   14  C9  UNK     1      21.559  -5.922  37.773  1.00  0.00     0.105 A 
HETATM   15  C11 UNK     1      20.718  -7.005  37.520  1.00  0.00     0.135 A 
HETATM   16  C8  UNK     1      19.490  -6.803  36.891  1.00  0.00     0.105 A 
HETATM   17  C7  UNK     1      19.104  -5.517  36.513  1.00  0.00     0.054 A 
BRANCH  14  18
HETATM   18  O3  UNK     1      22.761  -6.105  38.388  1.00  0.00    -0.353 OA
HETATM   19  C17 UNK     1      22.736  -6.590  39.729  1.00  0.00     0.210 C 
ENDBRANCH  14  18
BRANCH  15  20
HETATM   20  O4  UNK     1      21.097  -8.262  37.890  1.00  0.00    -0.351 OA
HETATM   21  C18 UNK     1      21.845  -9.018  36.941  1.00  0.00     0.210 C 
ENDBRANCH  15  20
BRANCH  16  22
HETATM   22  O2  UNK     1      18.660  -7.852  36.639  1.00  0.00    -0.353 OA
HETATM   23  C16 UNK     1      17.713  -7.692  35.584  1.00  0.00     0.210 C 
ENDBRANCH  16  22
ENDBRANCH   3  12
BRANCH   6  24
HETATM   24  O5  UNK     1      20.268  -3.351  34.102  1.00  0.00    -0.355 OA
HETATM   25  H7  UNK     1      19.704  -3.310  33.313  1.00  0.00     0.218 HD
ENDBRANCH   6  24
TORSDOF 5
ENDMDL
MODEL 9
REMARK VINA RESULT:      -7.6     18.727     20.716
REMARK  5 active torsions:
REMARK  status: ('A' for Active; 'I' for Inactive)
REMARK    1  A    between atoms: C8_14  and  O2_2 
REMARK    2  A    between atoms: C9_15  and  O3_3 
REMARK    3  A    between atoms: C11_17  and  O4_4 
REMARK    4  A    between atoms: C5_11  and  O5_5 
REMARK    5  A    between atoms: C1_7  and  C2_8 
ROOT
HETATM    1  O1  UNK     1      18.951  -2.372  37.392  1.00  0.00    -0.306 OA
HETATM    2  O6  UNK     1      19.382  -0.728  33.689  1.00  0.00    -0.284 OA
HETATM    3  C2  UNK     1      19.539  -3.075  36.353  1.00  0.00     0.123 A 
HETATM    4  C3  UNK     1      18.643  -0.472  35.913  1.00  0.00     0.051 A 
HETATM    5  C4  UNK     1      18.523  -1.091  37.155  1.00  0.00     0.090 A 
HETATM    6  C5  UNK     1      19.706  -2.597  35.106  1.00  0.00     0.152 A 
HETATM    7  C10 UNK     1      19.254  -1.218  34.803  1.00  0.00     0.220 A 
HETATM    8  C12 UNK     1      18.187   0.836  35.730  1.00  0.00     0.018 A 
HETATM    9  C13 UNK     1      17.944  -0.406  38.224  1.00  0.00     0.038 A 
HETATM   10  C14 UNK     1      17.609   1.520  36.801  1.00  0.00     0.001 A 
HETATM   11  C15 UNK     1      17.487   0.900  38.045  1.00  0.00     0.003 A 
ENDROOT
BRANCH   3  12
HETATM   12  C1  UNK     1      19.952  -4.436  36.741  1.00  0.00     0.006 A 
HETATM   13  C6  UNK     1      19.128  -5.524  36.452  1.00  0.00     0.054 A 
HETATM   14  C9  UNK     1      19.519  -6.812  36.819  1.00  0.00     0.105 A 
HETATM   15  C11 UNK     1      20.734  -7.012  37.474  1.00  0.00     0.135 A 
HETATM   16  C8  UNK     1      21.559  -5.925  37.761  1.00  0.00     0.105 A 
HETATM   17  C7  UNK     1      21.168  -4.637  37.395  1.00  0.00     0.054 A 
BRANCH  14  18
HETATM   18  O3  UNK     1      18.704  -7.865  36.531  1.00  0.00    -0.353 OA
HETATM   19  C17 UNK     1      17.693  -7.654  35.548  1.00  0.00     0.210 C 
ENDBRANCH  14  18
BRANCH  15  20
HETATM   20  O4  UNK     1      21.116  -8.272  37.832  1.00  0.00    -0.351 OA
HETATM   21  C18 UNK     1      21.898  -9.002  36.891  1.00  0.00     0.210 C 
ENDBRANCH  15  20
BRANCH  16  22
HETATM   22  O2  UNK     1      22.748  -6.107  38.400  1.00  0.00    -0.353 OA
HETATM   23  C16 UNK     1      22.699  -6.625  39.728  1.00  0.00     0.210 C 
ENDBRANCH  16  22
ENDBRANCH   3  12
BRANCH   6  24
HETATM   24  O5  UNK     1      20.265  -3.335  34.085  1.00  0.00    -0.355 OA
HETATM   25  H7  UNK     1      20.173  -4.282  34.275  1.00  0.00     0.218 HD
ENDBRANCH   6  24
TORSDOF 5
ENDMDL
MODEL 10
REMARK VINA RESULT:      -7.5     14.433     18.877
REMARK  5 active torsions:
REMARK  status: ('A' for Active; 'I' for Inactive)
REMARK    1  A    between atoms: C8_14  and  O2_2 
REMARK    2  A    between atoms: C9_15  and  O3_3 
REMARK    3  A    between atoms: C11_17  and  O4_4 
REMARK    4  A    between atoms: C5_11  and  O5_5 
REMARK    5  A    between atoms: C1_7  and  C2_8 
ROOT
HETATM    1  O1  UNK     1      18.485   3.484  30.956  1.00  0.00    -0.306 OA
HETATM    2  O6  UNK     1      18.714   0.838  34.047  1.00  0.00    -0.284 OA
HETATM    3  C2  UNK     1      18.248   3.877  32.264  1.00  0.00     0.123 A 
HETATM    4  C3  UNK     1      18.912   1.223  31.729  1.00  0.00     0.051 A 
HETATM    5  C4  UNK     1      18.816   2.175  30.717  1.00  0.00     0.090 A 
HETATM    6  C5  UNK     1      18.300   3.056  33.329  1.00  0.00     0.152 A 
HETATM    7  C10 UNK     1      18.649   1.631  33.117  1.00  0.00     0.220 A 
HETATM    8  C12 UNK     1      19.253  -0.098  31.424  1.00  0.00     0.018 A 
HETATM    9  C13 UNK     1      19.058   1.813  29.392  1.00  0.00     0.038 A 
HETATM   10  C14 UNK     1      19.495  -0.458  30.098  1.00  0.00     0.001 A 
HETATM   11  C15 UNK     1      19.397   0.495  29.084  1.00  0.00     0.003 A 
ENDROOT
BRANCH   3  12
HETATM   12  C1  UNK     1      17.902   5.305  32.381  1.00  0.00     0.006 A 
HETATM   13  C6  UNK     1      16.685   5.771  31.883  1.00  0.00     0.054 A 
HETATM   14  C9  UNK     1      16.357   7.123  31.994  1.00  0.00     0.105 A 
HETATM   15  C11 UNK     1      17.246   8.008  32.604  1.00  0.00     0.135 A 
HETATM   16  C8  UNK     1      18.463   7.543  33.103  1.00  0.00     0.105 A 
HETATM   17  C7  UNK     1      18.790   6.191  32.991  1.00  0.00     0.054 A 
BRANCH  14  18
HETATM   18  O3  UNK     1      15.166   7.565  31.504  1.00  0.00    -0.353 OA
HETATM   19  C17 UNK     1      13.993   7.219  32.240  1.00  0.00     0.210 C 
ENDBRANCH  14  18
BRANCH  15  20
HETATM   20  O4  UNK     1      16.925   9.329  32.712  1.00  0.00    -0.351 OA
HETATM   21  C18 UNK     1      16.272   9.740  33.910  1.00  0.00     0.210 C 
ENDBRANCH  15  20
BRANCH  16  22
HETATM   22  O2  UNK     1      19.339   8.396  33.700  1.00  0.00    -0.353 OA
HETATM   23  C16 UNK     1      19.575   8.213  35.095  1.00  0.00     0.210 C 
ENDBRANCH  16  22
ENDBRANCH   3  12
BRANCH   6  24
HETATM   24  O5  UNK     1      18.025   3.471  34.614  1.00  0.00    -0.355 OA
HETATM   25  H7  UNK     1      17.459   4.259  34.592  1.00  0.00     0.218 HD
ENDBRANCH   6  24
TORSDOF 5
ENDMDL
