MODEL 1
REMARK VINA RESULT:      -9.8      0.000      0.000
REMARK  3 active torsions:
REMARK  status: ('A' for Active; 'I' for Inactive)
REMARK    1  A    between atoms: C3_8  and  C8_13 
REMARK    2  A    between atoms: C10_15  and  C8_13 
REMARK    3  A    between atoms: C11_16  and  C9_14 
ROOT
HETATM    1  O3  UNK     1      17.949   2.412  28.215  1.00  0.00    -0.288 OA
HETATM    2  C8  UNK     1      18.387   2.166  29.349  1.00  0.00     0.182 C 
ENDROOT
BRANCH   2   3
HETATM    3  C10 UNK     1      18.284   3.189  30.445  1.00  0.00     0.056 C 
HETATM    4  C11 UNK     1      19.088   4.261  30.458  1.00  0.00     0.015 C 
BRANCH   4   5
HETATM    5  C9  UNK     1      19.071   5.306  31.496  1.00  0.00    -0.034 A 
HETATM    6  C12 UNK     1      17.862   5.691  32.053  1.00  0.00     0.037 A 
HETATM    7  C14 UNK     1      17.847   6.680  33.036  1.00  0.00     0.056 A 
HETATM    8  C16 UNK     1      19.040   7.271  33.449  1.00  0.00     0.055 A 
HETATM    9 Cl1  UNK     1      16.317   7.131  33.705  1.00  0.00    -0.083 Cl
HETATM   10  C15 UNK     1      20.249   6.873  32.879  1.00  0.00     0.026 A 
HETATM   11 Cl2  UNK     1      19.088   8.502  34.663  1.00  0.00    -0.083 Cl
HETATM   12  C13 UNK     1      20.265   5.884  31.896  1.00  0.00     0.013 A 
ENDBRANCH   4   5
ENDBRANCH   2   3
BRANCH   2  13
HETATM   13  C3  UNK     1      19.036   0.898  29.639  1.00  0.00     0.017 A 
HETATM   14  C4  UNK     1      19.259   0.520  30.965  1.00  0.00     0.055 A 
HETATM   15  C1  UNK     1      19.879  -0.692  31.191  1.00  0.00     0.105 A 
HETATM   16  O1  UNK     1      20.178  -1.222  32.408  1.00  0.00    -0.323 OA
HETATM   17  C2  UNK     1      20.270  -1.510  30.155  1.00  0.00     0.105 A 
HETATM   18  C7  UNK     1      20.799  -2.465  32.022  1.00  0.00     0.352 A 
HETATM   19  O2  UNK     1      20.861  -2.654  30.593  1.00  0.00    -0.323 OA
HETATM   20  C5  UNK     1      20.061  -1.161  28.836  1.00  0.00     0.040 A 
HETATM   21  C6  UNK     1      19.435   0.062  28.581  1.00  0.00     0.018 A 
ENDBRANCH   2  13
TORSDOF 3
ENDMDL
MODEL 2
REMARK VINA RESULT:      -8.8      1.981      3.373
REMARK  3 active torsions:
REMARK  status: ('A' for Active; 'I' for Inactive)
REMARK    1  A    between atoms: C3_8  and  C8_13 
REMARK    2  A    between atoms: C10_15  and  C8_13 
REMARK    3  A    between atoms: C11_16  and  C9_14 
ROOT
HETATM    1  O3  UNK     1      17.893   2.456  33.632  1.00  0.00    -0.288 OA
HETATM    2  C8  UNK     1      18.165   3.054  32.580  1.00  0.00     0.182 C 
ENDROOT
BRANCH   2   3
HETATM    3  C10 UNK     1      18.206   4.555  32.544  1.00  0.00     0.056 C 
HETATM    4  C11 UNK     1      18.155   5.267  33.678  1.00  0.00     0.015 C 
BRANCH   4   5
HETATM    5  C9  UNK     1      18.174   6.739  33.742  1.00  0.00    -0.034 A 
HETATM    6  C12 UNK     1      19.345   7.389  34.097  1.00  0.00     0.037 A 
HETATM    7  C14 UNK     1      19.363   8.783  34.157  1.00  0.00     0.056 A 
HETATM    8  C16 UNK     1      18.209   9.507  33.861  1.00  0.00     0.055 A 
HETATM    9 Cl1  UNK     1      20.844   9.553  34.605  1.00  0.00    -0.083 Cl
HETATM   10  C15 UNK     1      17.038   8.839  33.504  1.00  0.00     0.026 A 
HETATM   11 Cl2  UNK     1      18.166  11.235  33.916  1.00  0.00    -0.083 Cl
HETATM   12  C13 UNK     1      17.020   7.446  33.444  1.00  0.00     0.013 A 
ENDBRANCH   4   5
ENDBRANCH   2   3
BRANCH   2  13
HETATM   13  C3  UNK     1      18.422   2.320  31.351  1.00  0.00     0.017 A 
HETATM   14  C4  UNK     1      19.192   1.155  31.387  1.00  0.00     0.055 A 
HETATM   15  C1  UNK     1      19.410   0.494  30.196  1.00  0.00     0.105 A 
HETATM   16  O1  UNK     1      20.131  -0.649  30.037  1.00  0.00    -0.323 OA
HETATM   17  C2  UNK     1      18.894   0.955  29.006  1.00  0.00     0.105 A 
HETATM   18  C7  UNK     1      20.011  -0.857  28.615  1.00  0.00     0.352 A 
HETATM   19  O2  UNK     1      19.227   0.159  27.955  1.00  0.00    -0.323 OA
HETATM   20  C5  UNK     1      18.130   2.103  28.943  1.00  0.00     0.040 A 
HETATM   21  C6  UNK     1      17.895   2.791  30.135  1.00  0.00     0.018 A 
ENDBRANCH   2  13
TORSDOF 3
ENDMDL
MODEL 3
REMARK VINA RESULT:      -8.3      4.189      7.489
REMARK  3 active torsions:
REMARK  status: ('A' for Active; 'I' for Inactive)
REMARK    1  A    between atoms: C3_8  and  C8_13 
REMARK    2  A    between atoms: C10_15  and  C8_13 
REMARK    3  A    between atoms: C11_16  and  C9_14 
ROOT
HETATM    1  O3  UNK     1      17.898   2.677  28.135  1.00  0.00    -0.288 OA
HETATM    2  C8  UNK     1      18.347   2.523  29.281  1.00  0.00     0.182 C 
ENDROOT
BRANCH   2   3
HETATM    3  C10 UNK     1      18.624   1.145  29.813  1.00  0.00     0.056 C 
HETATM    4  C11 UNK     1      19.883   0.707  29.952  1.00  0.00     0.015 C 
BRANCH   4   5
HETATM    5  C9  UNK     1      20.252  -0.631  30.449  1.00  0.00    -0.034 A 
HETATM    6  C12 UNK     1      20.153  -0.903  31.804  1.00  0.00     0.037 A 
HETATM    7  C14 UNK     1      20.502  -2.170  32.274  1.00  0.00     0.056 A 
HETATM    8  C16 UNK     1      20.945  -3.146  31.383  1.00  0.00     0.055 A 
HETATM    9 Cl1  UNK     1      20.363  -2.468  33.972  1.00  0.00    -0.083 Cl
HETATM   10  C15 UNK     1      21.039  -2.856  30.022  1.00  0.00     0.026 A 
HETATM   11 Cl2  UNK     1      21.391  -4.734  31.902  1.00  0.00    -0.083 Cl
HETATM   12  C13 UNK     1      20.691  -1.591  29.551  1.00  0.00     0.013 A 
ENDBRANCH   4   5
ENDBRANCH   2   3
BRANCH   2  13
HETATM   13  C3  UNK     1      18.590   3.665  30.147  1.00  0.00     0.017 A 
HETATM   14  C4  UNK     1      18.212   3.610  31.491  1.00  0.00     0.055 A 
HETATM   15  C1  UNK     1      18.461   4.719  32.273  1.00  0.00     0.105 A 
HETATM   16  O1  UNK     1      18.162   4.848  33.594  1.00  0.00    -0.323 OA
HETATM   17  C2  UNK     1      19.060   5.847  31.760  1.00  0.00     0.105 A 
HETATM   18  C7  UNK     1      18.642   6.183  33.857  1.00  0.00     0.352 A 
HETATM   19  O2  UNK     1      19.213   6.822  32.696  1.00  0.00    -0.323 OA
HETATM   20  C5  UNK     1      19.445   5.928  30.437  1.00  0.00     0.040 A 
HETATM   21  C6  UNK     1      19.203   4.818  29.624  1.00  0.00     0.018 A 
ENDBRANCH   2  13
TORSDOF 3
ENDMDL
MODEL 4
REMARK VINA RESULT:      -8.2      4.554      8.217
REMARK  3 active torsions:
REMARK  status: ('A' for Active; 'I' for Inactive)
REMARK    1  A    between atoms: C3_8  and  C8_13 
REMARK    2  A    between atoms: C10_15  and  C8_13 
REMARK    3  A    between atoms: C11_16  and  C9_14 
ROOT
HETATM    1  O3  UNK     1      20.213   6.502  32.884  1.00  0.00    -0.288 OA
HETATM    2  C8  UNK     1      19.179   6.012  32.405  1.00  0.00     0.182 C 
ENDROOT
BRANCH   2   3
HETATM    3  C10 UNK     1      19.258   4.959  31.336  1.00  0.00     0.056 C 
HETATM    4  C11 UNK     1      18.701   3.754  31.522  1.00  0.00     0.015 C 
BRANCH   4   5
HETATM    5  C9  UNK     1      18.740   2.655  30.541  1.00  0.00    -0.034 A 
HETATM    6  C12 UNK     1      19.498   1.528  30.812  1.00  0.00     0.037 A 
HETATM    7  C14 UNK     1      19.533   0.488  29.883  1.00  0.00     0.056 A 
HETATM    8  C16 UNK     1      18.810   0.590  28.695  1.00  0.00     0.055 A 
HETATM    9 Cl1  UNK     1      20.492  -0.901  30.261  1.00  0.00    -0.083 Cl
HETATM   10  C15 UNK     1      18.051   1.731  28.436  1.00  0.00     0.026 A 
HETATM   11 Cl2  UNK     1      18.813  -0.664  27.504  1.00  0.00    -0.083 Cl
HETATM   12  C13 UNK     1      18.016   2.771  29.365  1.00  0.00     0.013 A 
ENDBRANCH   4   5
ENDBRANCH   2   3
BRANCH   2  13
HETATM   13  C3  UNK     1      17.868   6.462  32.844  1.00  0.00     0.017 A 
HETATM   14  C4  UNK     1      16.795   6.450  31.950  1.00  0.00     0.055 A 
HETATM   15  C1  UNK     1      15.571   6.888  32.412  1.00  0.00     0.105 A 
HETATM   16  O1  UNK     1      14.420   6.949  31.689  1.00  0.00    -0.323 OA
HETATM   17  C2  UNK     1      15.399   7.325  33.706  1.00  0.00     0.105 A 
HETATM   18  C7  UNK     1      13.503   7.471  32.672  1.00  0.00     0.352 A 
HETATM   19  O2  UNK     1      14.119   7.712  33.955  1.00  0.00    -0.323 OA
HETATM   20  C5  UNK     1      16.441   7.346  34.609  1.00  0.00     0.040 A 
HETATM   21  C6  UNK     1      17.692   6.908  34.166  1.00  0.00     0.018 A 
ENDBRANCH   2  13
TORSDOF 3
ENDMDL
MODEL 5
REMARK VINA RESULT:      -8.2      4.272      7.795
REMARK  3 active torsions:
REMARK  status: ('A' for Active; 'I' for Inactive)
REMARK    1  A    between atoms: C3_8  and  C8_13 
REMARK    2  A    between atoms: C10_15  and  C8_13 
REMARK    3  A    between atoms: C11_16  and  C9_14 
ROOT
HETATM    1  O3  UNK     1      18.371   5.784  29.354  1.00  0.00    -0.288 OA
HETATM    2  C8  UNK     1      18.792   5.255  30.394  1.00  0.00     0.182 C 
ENDROOT
BRANCH   2   3
HETATM    3  C10 UNK     1      19.399   3.881  30.358  1.00  0.00     0.056 C 
HETATM    4  C11 UNK     1      18.625   2.790  30.435  1.00  0.00     0.015 C 
BRANCH   4   5
HETATM    5  C9  UNK     1      19.128   1.405  30.424  1.00  0.00    -0.034 A 
HETATM    6  C12 UNK     1      19.042   0.641  31.577  1.00  0.00     0.037 A 
HETATM    7  C14 UNK     1      19.519  -0.670  31.565  1.00  0.00     0.056 A 
HETATM    8  C16 UNK     1      20.074  -1.200  30.400  1.00  0.00     0.055 A 
HETATM    9 Cl1  UNK     1      19.393  -1.589  33.024  1.00  0.00    -0.083 Cl
HETATM   10  C15 UNK     1      20.153  -0.418  29.248  1.00  0.00     0.026 A 
HETATM   11 Cl2  UNK     1      20.681  -2.817  30.321  1.00  0.00    -0.083 Cl
HETATM   12  C13 UNK     1      19.677   0.893  29.259  1.00  0.00     0.013 A 
ENDBRANCH   4   5
ENDBRANCH   2   3
BRANCH   2  13
HETATM   13  C3  UNK     1      18.684   5.936  31.674  1.00  0.00     0.017 A 
HETATM   14  C4  UNK     1      17.428   6.127  32.254  1.00  0.00     0.055 A 
HETATM   15  C1  UNK     1      17.376   6.779  33.468  1.00  0.00     0.105 A 
HETATM   16  O1  UNK     1      16.248   7.055  34.179  1.00  0.00    -0.323 OA
HETATM   17  C2  UNK     1      18.513   7.233  34.097  1.00  0.00     0.105 A 
HETATM   18  C7  UNK     1      16.803   7.731  35.326  1.00  0.00     0.352 A 
HETATM   19  O2  UNK     1      18.240   7.848  35.279  1.00  0.00    -0.323 OA
HETATM   20  C5  UNK     1      19.766   7.057  33.546  1.00  0.00     0.040 A 
HETATM   21  C6  UNK     1      19.847   6.399  32.316  1.00  0.00     0.018 A 
ENDBRANCH   2  13
TORSDOF 3
ENDMDL
MODEL 6
REMARK VINA RESULT:      -8.0      7.745     11.159
REMARK  3 active torsions:
REMARK  status: ('A' for Active; 'I' for Inactive)
REMARK    1  A    between atoms: C3_8  and  C8_13 
REMARK    2  A    between atoms: C10_15  and  C8_13 
REMARK    3  A    between atoms: C11_16  and  C9_14 
ROOT
HETATM    1  O3  UNK     1      21.710  -1.735  35.505  1.00  0.00    -0.288 OA
HETATM    2  C8  UNK     1      20.629  -2.148  35.951  1.00  0.00     0.182 C 
ENDROOT
BRANCH   2   3
HETATM    3  C10 UNK     1      20.584  -3.352  36.849  1.00  0.00     0.056 C 
HETATM    4  C11 UNK     1      20.171  -4.538  36.381  1.00  0.00     0.015 C 
BRANCH   4   5
HETATM    5  C9  UNK     1      20.078  -5.768  37.187  1.00  0.00    -0.034 A 
HETATM    6  C12 UNK     1      21.116  -6.099  38.044  1.00  0.00     0.037 A 
HETATM    7  C14 UNK     1      21.028  -7.263  38.807  1.00  0.00     0.056 A 
HETATM    8  C16 UNK     1      19.903  -8.081  38.704  1.00  0.00     0.055 A 
HETATM    9 Cl1  UNK     1      22.345  -7.639  39.863  1.00  0.00    -0.083 Cl
HETATM   10  C15 UNK     1      18.866  -7.734  37.837  1.00  0.00     0.026 A 
HETATM   11 Cl2  UNK     1      19.734  -9.536  39.622  1.00  0.00    -0.083 Cl
HETATM   12  C13 UNK     1      18.954  -6.570  37.074  1.00  0.00     0.013 A 
ENDBRANCH   4   5
ENDBRANCH   2   3
BRANCH   2  13
HETATM   13  C3  UNK     1      19.379  -1.497  35.596  1.00  0.00     0.017 A 
HETATM   14  C4  UNK     1      18.537  -1.015  36.601  1.00  0.00     0.055 A 
HETATM   15  C1  UNK     1      17.361  -0.406  36.216  1.00  0.00     0.105 A 
HETATM   16  O1  UNK     1      16.422   0.119  37.049  1.00  0.00    -0.323 OA
HETATM   17  C2  UNK     1      17.015  -0.272  34.890  1.00  0.00     0.105 A 
HETATM   18  C7  UNK     1      15.449   0.601  36.101  1.00  0.00     0.352 A 
HETATM   19  O2  UNK     1      15.819   0.355  34.728  1.00  0.00    -0.323 OA
HETATM   20  C5  UNK     1      17.829  -0.738  33.877  1.00  0.00     0.040 A 
HETATM   21  C6  UNK     1      19.026  -1.360  34.242  1.00  0.00     0.018 A 
ENDBRANCH   2  13
TORSDOF 3
ENDMDL
MODEL 7
REMARK VINA RESULT:      -7.9      7.467     10.340
REMARK  3 active torsions:
REMARK  status: ('A' for Active; 'I' for Inactive)
REMARK    1  A    between atoms: C3_8  and  C8_13 
REMARK    2  A    between atoms: C10_15  and  C8_13 
REMARK    3  A    between atoms: C11_16  and  C9_14 
ROOT
HETATM    1  O3  UNK     1      22.423  -5.019  37.905  1.00  0.00    -0.288 OA
HETATM    2  C8  UNK     1      21.273  -5.384  37.614  1.00  0.00     0.182 C 
ENDROOT
BRANCH   2   3
HETATM    3  C10 UNK     1      20.333  -4.451  36.906  1.00  0.00     0.056 C 
HETATM    4  C11 UNK     1      20.148  -3.200  37.352  1.00  0.00     0.015 C 
BRANCH   4   5
HETATM    5  C9  UNK     1      19.237  -2.220  36.734  1.00  0.00    -0.034 A 
HETATM    6  C12 UNK     1      19.354  -1.941  35.382  1.00  0.00     0.037 A 
HETATM    7  C14 UNK     1      18.492  -1.013  34.799  1.00  0.00     0.056 A 
HETATM    8  C16 UNK     1      17.524  -0.377  35.575  1.00  0.00     0.055 A 
HETATM    9 Cl1  UNK     1      18.672  -0.694  33.109  1.00  0.00    -0.083 Cl
HETATM   10  C15 UNK     1      17.418  -0.669  36.934  1.00  0.00     0.026 A 
HETATM   11 Cl2  UNK     1      16.425   0.782  34.911  1.00  0.00    -0.083 Cl
HETATM   12  C13 UNK     1      18.280  -1.596  37.518  1.00  0.00     0.013 A 
ENDBRANCH   4   5
ENDBRANCH   2   3
BRANCH   2  13
HETATM   13  C3  UNK     1      20.799  -6.711  37.974  1.00  0.00     0.017 A 
HETATM   14  C4  UNK     1      20.885  -7.753  37.047  1.00  0.00     0.055 A 
HETATM   15  C1  UNK     1      20.421  -8.993  37.433  1.00  0.00     0.105 A 
HETATM   16  O1  UNK     1      20.421 -10.120  36.670  1.00  0.00    -0.323 OA
HETATM   17  C2  UNK     1      19.889  -9.211  38.684  1.00  0.00     0.105 A 
HETATM   18  C7  UNK     1      19.832 -11.071  37.580  1.00  0.00     0.352 A 
HETATM   19  O2  UNK     1      19.491 -10.500  38.860  1.00  0.00    -0.323 OA
HETATM   20  C5  UNK     1      19.793  -8.199  39.618  1.00  0.00     0.040 A 
HETATM   21  C6  UNK     1      20.256  -6.933  39.252  1.00  0.00     0.018 A 
ENDBRANCH   2  13
TORSDOF 3
ENDMDL
MODEL 8
REMARK VINA RESULT:      -7.9      4.660      7.753
REMARK  3 active torsions:
REMARK  status: ('A' for Active; 'I' for Inactive)
REMARK    1  A    between atoms: C3_8  and  C8_13 
REMARK    2  A    between atoms: C10_15  and  C8_13 
REMARK    3  A    between atoms: C11_16  and  C9_14 
ROOT
HETATM    1  O3  UNK     1      18.626   4.038  30.196  1.00  0.00    -0.288 OA
HETATM    2  C8  UNK     1      18.481   4.113  31.425  1.00  0.00     0.182 C 
ENDROOT
BRANCH   2   3
HETATM    3  C10 UNK     1      18.297   2.871  32.250  1.00  0.00     0.056 C 
HETATM    4  C11 UNK     1      18.328   2.928  33.588  1.00  0.00     0.015 C 
BRANCH   4   5
HETATM    5  C9  UNK     1      18.173   1.764  34.478  1.00  0.00    -0.034 A 
HETATM    6  C12 UNK     1      18.001   1.966  35.838  1.00  0.00     0.037 A 
HETATM    7  C14 UNK     1      17.853   0.863  36.680  1.00  0.00     0.056 A 
HETATM    8  C16 UNK     1      17.880  -0.426  36.151  1.00  0.00     0.055 A 
HETATM    9 Cl1  UNK     1      17.640   1.161  38.370  1.00  0.00    -0.083 Cl
HETATM   10  C15 UNK     1      18.055  -0.614  34.780  1.00  0.00     0.026 A 
HETATM   11 Cl2  UNK     1      17.703  -1.833  37.141  1.00  0.00    -0.083 Cl
HETATM   12  C13 UNK     1      18.202   0.488  33.938  1.00  0.00     0.013 A 
ENDBRANCH   4   5
ENDBRANCH   2   3
BRANCH   2  13
HETATM   13  C3  UNK     1      18.458   5.404  32.095  1.00  0.00     0.017 A 
HETATM   14  C4  UNK     1      17.240   6.053  32.308  1.00  0.00     0.055 A 
HETATM   15  C1  UNK     1      17.267   7.275  32.946  1.00  0.00     0.105 A 
HETATM   16  O1  UNK     1      16.187   8.050  33.236  1.00  0.00    -0.323 OA
HETATM   17  C2  UNK     1      18.448   7.848  33.364  1.00  0.00     0.105 A 
HETATM   18  C7  UNK     1      16.818   9.173  33.885  1.00  0.00     0.352 A 
HETATM   19  O2  UNK     1      18.253   9.051  33.969  1.00  0.00    -0.323 OA
HETATM   20  C5  UNK     1      19.665   7.228  33.167  1.00  0.00     0.040 A 
HETATM   21  C6  UNK     1      19.663   5.988  32.523  1.00  0.00     0.018 A 
ENDBRANCH   2  13
TORSDOF 3
ENDMDL
MODEL 9
REMARK VINA RESULT:      -7.8      3.477      5.700
REMARK  3 active torsions:
REMARK  status: ('A' for Active; 'I' for Inactive)
REMARK    1  A    between atoms: C3_8  and  C8_13 
REMARK    2  A    between atoms: C10_15  and  C8_13 
REMARK    3  A    between atoms: C11_16  and  C9_14 
ROOT
HETATM    1  O3  UNK     1      19.779   5.804  34.619  1.00  0.00    -0.288 OA
HETATM    2  C8  UNK     1      19.035   6.202  33.710  1.00  0.00     0.182 C 
ENDROOT
BRANCH   2   3
HETATM    3  C10 UNK     1      18.178   7.421  33.905  1.00  0.00     0.056 C 
HETATM    4  C11 UNK     1      18.708   8.649  33.822  1.00  0.00     0.015 C 
BRANCH   4   5
HETATM    5  C9  UNK     1      17.953   9.900  34.013  1.00  0.00    -0.034 A 
HETATM    6  C12 UNK     1      16.579   9.845  34.182  1.00  0.00     0.037 A 
HETATM    7  C14 UNK     1      15.865  11.029  34.363  1.00  0.00     0.056 A 
HETATM    8  C16 UNK     1      16.534  12.252  34.372  1.00  0.00     0.055 A 
HETATM    9 Cl1  UNK     1      14.152  10.916  34.571  1.00  0.00    -0.083 Cl
HETATM   10  C15 UNK     1      17.917  12.292  34.200  1.00  0.00     0.026 A 
HETATM   11 Cl2  UNK     1      15.706  13.755  34.592  1.00  0.00    -0.083 Cl
HETATM   12  C13 UNK     1      18.632  11.108  34.019  1.00  0.00     0.013 A 
ENDBRANCH   4   5
ENDBRANCH   2   3
BRANCH   2  13
HETATM   13  C3  UNK     1      18.952   5.487  32.447  1.00  0.00     0.017 A 
HETATM   14  C4  UNK     1      18.289   4.259  32.388  1.00  0.00     0.055 A 
HETATM   15  C1  UNK     1      18.237   3.617  31.168  1.00  0.00     0.105 A 
HETATM   16  O1  UNK     1      17.639   2.419  30.920  1.00  0.00    -0.323 OA
HETATM   17  C2  UNK     1      18.815   4.154  30.041  1.00  0.00     0.105 A 
HETATM   18  C7  UNK     1      17.904   2.265  29.511  1.00  0.00     0.352 A 
HETATM   19  O2  UNK     1      18.651   3.363  28.947  1.00  0.00    -0.323 OA
HETATM   20  C5  UNK     1      19.476   5.366  30.072  1.00  0.00     0.040 A 
HETATM   21  C6  UNK     1      19.543   6.037  31.296  1.00  0.00     0.018 A 
ENDBRANCH   2  13
TORSDOF 3
ENDMDL
MODEL 10
REMARK VINA RESULT:      -7.8      4.941      8.351
REMARK  3 active torsions:
REMARK  status: ('A' for Active; 'I' for Inactive)
REMARK    1  A    between atoms: C3_8  and  C8_13 
REMARK    2  A    between atoms: C10_15  and  C8_13 
REMARK    3  A    between atoms: C11_16  and  C9_14 
ROOT
HETATM    1  O3  UNK     1      18.724   4.465  31.336  1.00  0.00    -0.288 OA
HETATM    2  C8  UNK     1      18.326   4.814  32.458  1.00  0.00     0.182 C 
ENDROOT
BRANCH   2   3
HETATM    3  C10 UNK     1      18.276   3.827  33.590  1.00  0.00     0.056 C 
HETATM    4  C11 UNK     1      18.187   2.512  33.347  1.00  0.00     0.015 C 
BRANCH   4   5
HETATM    5  C9  UNK     1      18.117   1.473  34.389  1.00  0.00    -0.034 A 
HETATM    6  C12 UNK     1      17.941   1.847  35.712  1.00  0.00     0.037 A 
HETATM    7  C14 UNK     1      17.874   0.862  36.698  1.00  0.00     0.056 A 
HETATM    8  C16 UNK     1      17.984  -0.483  36.348  1.00  0.00     0.055 A 
HETATM    9 Cl1  UNK     1      17.653   1.372  38.335  1.00  0.00    -0.083 Cl
HETATM   10  C15 UNK     1      18.161  -0.844  35.012  1.00  0.00     0.026 A 
HETATM   11 Cl2  UNK     1      17.909  -1.750  37.522  1.00  0.00    -0.083 Cl
HETATM   12  C13 UNK     1      18.228   0.140  34.026  1.00  0.00     0.013 A 
ENDBRANCH   4   5
ENDBRANCH   2   3
BRANCH   2  13
HETATM   13  C3  UNK     1      17.874   6.175  32.699  1.00  0.00     0.017 A 
HETATM   14  C4  UNK     1      18.745   7.104  33.273  1.00  0.00     0.055 A 
HETATM   15  C1  UNK     1      18.270   8.382  33.483  1.00  0.00     0.105 A 
HETATM   16  O1  UNK     1      18.969   9.414  34.029  1.00  0.00    -0.323 OA
HETATM   17  C2  UNK     1      16.986   8.743  33.145  1.00  0.00     0.105 A 
HETATM   18  C7  UNK     1      17.982  10.465  33.996  1.00  0.00     0.352 A 
HETATM   19  O2  UNK     1      16.721  10.045  33.435  1.00  0.00    -0.323 OA
HETATM   20  C5  UNK     1      16.106   7.845  32.576  1.00  0.00     0.040 A 
HETATM   21  C6  UNK     1      16.562   6.543  32.353  1.00  0.00     0.018 A 
ENDBRANCH   2  13
TORSDOF 3
ENDMDL
