MODEL 1
REMARK VINA RESULT:      -8.7      0.000      0.000
REMARK  6 active torsions:
REMARK  status: ('A' for Active; 'I' for Inactive)
REMARK    1  A    between atoms: C17_23  and  O2_3 
REMARK    2  A    between atoms: C22_28  and  O2_3 
REMARK    3  A    between atoms: C5_11  and  N1_5 
REMARK    4  A    between atoms: C6_12  and  N2_6 
REMARK    5  A    between atoms: C5_11  and  C7_13 
REMARK    6  A    between atoms: C6_12  and  C8_14 
ROOT
HETATM    1  C5  UNK     1      18.157   2.473  30.584  1.00  0.00     0.312 C 
ENDROOT
BRANCH   1   2
HETATM    2  N1  UNK     1      18.806   3.504  31.392  1.00  0.00     0.096 N 
HETATM    3  C1  UNK     1      19.142   4.674  30.573  1.00  0.00     0.303 C 
HETATM    4  C3  UNK     1      19.820   5.757  31.420  1.00  0.00     0.303 C 
HETATM    5  N2  UNK     1      18.967   6.148  32.548  1.00  0.00     0.096 N 
HETATM    6  C4  UNK     1      18.629   4.977  33.368  1.00  0.00     0.303 C 
HETATM    7  C2  UNK     1      17.951   3.896  32.520  1.00  0.00     0.303 C 
BRANCH   5   8
HETATM    8  C6  UNK     1      19.616   7.178  33.358  1.00  0.00     0.311 C 
BRANCH   8   9
HETATM    9  C8  UNK     1      18.706   8.349  33.612  1.00  0.00    -0.029 A 
HETATM   10  C12 UNK     1      17.324   8.197  33.499  1.00  0.00     0.032 A 
HETATM   11  C18 UNK     1      16.482   9.283  33.735  1.00  0.00     0.034 A 
HETATM   12  C21 UNK     1      17.021  10.521  34.084  1.00  0.00     0.024 A 
HETATM   13 Cl1  UNK     1      14.777   9.095  33.597  1.00  0.00    -0.084 Cl
HETATM   14  C19 UNK     1      18.402  10.674  34.197  1.00  0.00     0.002 A 
HETATM   15  C13 UNK     1      19.245   9.588  33.961  1.00  0.00     0.009 A 
ENDBRANCH   8   9
ENDBRANCH   5   8
ENDBRANCH   1   2
BRANCH   1  16
HETATM   16  C7  UNK     1      18.949   1.212  30.543  1.00  0.00    -0.011 A 
HETATM   17  C10 UNK     1      19.646   0.866  29.451  1.00  0.00     0.092 A 
HETATM   18  C15 UNK     1      20.441  -0.370  29.364  1.00  0.00     0.288 A 
HETATM   19  O1  UNK     1      20.445  -1.189  30.481  1.00  0.00    -0.275 OA
HETATM   20  O3  UNK     1      21.068  -0.653  28.348  1.00  0.00    -0.260 OA
HETATM   21  C11 UNK     1      19.721  -0.854  31.643  1.00  0.00     0.090 A 
HETATM   22  C9  UNK     1      18.970   0.321  31.712  1.00  0.00     0.009 A 
HETATM   23  C16 UNK     1      19.795  -1.754  32.708  1.00  0.00     0.041 A 
HETATM   24  C14 UNK     1      18.278   0.581  32.902  1.00  0.00     0.051 A 
HETATM   25  C17 UNK     1      18.343  -0.311  33.978  1.00  0.00     0.069 A 
HETATM   26  C20 UNK     1      19.101  -1.477  33.880  1.00  0.00     0.039 A 
BRANCH  25  27
HETATM   27  O2  UNK     1      17.663  -0.040  35.126  1.00  0.00    -0.351 OA
BRANCH  27  28
HETATM   28  C22 UNK     1      16.264   0.214  35.007  1.00  0.00     0.171 C 
HETATM   29  C23 UNK     1      15.718   0.607  36.363  1.00  0.00     0.034 C 
ENDBRANCH  27  28
ENDBRANCH  25  27
ENDBRANCH   1  16
TORSDOF 6
ENDMDL
MODEL 2
REMARK VINA RESULT:      -8.5      4.327      9.605
REMARK  6 active torsions:
REMARK  status: ('A' for Active; 'I' for Inactive)
REMARK    1  A    between atoms: C17_23  and  O2_3 
REMARK    2  A    between atoms: C22_28  and  O2_3 
REMARK    3  A    between atoms: C5_11  and  N1_5 
REMARK    4  A    between atoms: C6_12  and  N2_6 
REMARK    5  A    between atoms: C5_11  and  C7_13 
REMARK    6  A    between atoms: C6_12  and  C8_14 
ROOT
HETATM    1  C5  UNK     1      18.004   6.872  32.508  1.00  0.00     0.312 C 
ENDROOT
BRANCH   1   2
HETATM    2  N1  UNK     1      17.944   5.757  31.564  1.00  0.00     0.096 N 
HETATM    3  C1  UNK     1      19.091   5.787  30.648  1.00  0.00     0.303 C 
HETATM    4  C3  UNK     1      19.031   4.616  29.661  1.00  0.00     0.303 C 
HETATM    5  N2  UNK     1      18.976   3.334  30.373  1.00  0.00     0.096 N 
HETATM    6  C4  UNK     1      17.830   3.304  31.290  1.00  0.00     0.303 C 
HETATM    7  C2  UNK     1      17.892   4.474  32.278  1.00  0.00     0.303 C 
BRANCH   5   8
HETATM    8  C6  UNK     1      18.915   2.219  29.430  1.00  0.00     0.311 C 
BRANCH   8   9
HETATM    9  C8  UNK     1      19.400   0.934  30.047  1.00  0.00    -0.029 A 
HETATM   10  C12 UNK     1      18.951   0.553  31.312  1.00  0.00     0.032 A 
HETATM   11  C18 UNK     1      19.400  -0.637  31.882  1.00  0.00     0.034 A 
HETATM   12  C21 UNK     1      20.300  -1.446  31.189  1.00  0.00     0.024 A 
HETATM   13 Cl1  UNK     1      18.845  -1.107  33.442  1.00  0.00    -0.084 Cl
HETATM   14  C19 UNK     1      20.749  -1.067  29.925  1.00  0.00     0.002 A 
HETATM   15  C13 UNK     1      20.299   0.124  29.354  1.00  0.00     0.009 A 
ENDBRANCH   8   9
ENDBRANCH   5   8
ENDBRANCH   1   2
BRANCH   1  16
HETATM   16  C7  UNK     1      16.674   7.514  32.702  1.00  0.00    -0.011 A 
HETATM   17  C10 UNK     1      15.540   6.866  32.399  1.00  0.00     0.092 A 
HETATM   18  C15 UNK     1      14.204   7.460  32.573  1.00  0.00     0.288 A 
HETATM   19  O1  UNK     1      14.156   8.751  33.074  1.00  0.00    -0.275 OA
HETATM   20  O3  UNK     1      13.188   6.835  32.286  1.00  0.00    -0.260 OA
HETATM   21  C11 UNK     1      15.330   9.459  33.400  1.00  0.00     0.090 A 
HETATM   22  C9  UNK     1      16.591   8.883  33.230  1.00  0.00     0.009 A 
HETATM   23  C16 UNK     1      15.163  10.754  33.895  1.00  0.00     0.041 A 
HETATM   24  C14 UNK     1      17.709   9.653  33.575  1.00  0.00     0.051 A 
HETATM   25  C17 UNK     1      17.557  10.952  34.074  1.00  0.00     0.069 A 
HETATM   26  C20 UNK     1      16.285  11.501  34.233  1.00  0.00     0.039 A 
BRANCH  25  27
HETATM   27  O2  UNK     1      18.657  11.685  34.405  1.00  0.00    -0.351 OA
BRANCH  27  28
HETATM   28  C22 UNK     1      18.501  13.102  34.460  1.00  0.00     0.171 C 
HETATM   29  C23 UNK     1      18.794  13.683  33.094  1.00  0.00     0.034 C 
ENDBRANCH  27  28
ENDBRANCH  25  27
ENDBRANCH   1  16
TORSDOF 6
ENDMDL
MODEL 3
REMARK VINA RESULT:      -8.4     13.516     16.714
REMARK  6 active torsions:
REMARK  status: ('A' for Active; 'I' for Inactive)
REMARK    1  A    between atoms: C17_23  and  O2_3 
REMARK    2  A    between atoms: C22_28  and  O2_3 
REMARK    3  A    between atoms: C5_11  and  N1_5 
REMARK    4  A    between atoms: C6_12  and  N2_6 
REMARK    5  A    between atoms: C5_11  and  C7_13 
REMARK    6  A    between atoms: C6_12  and  C8_14 
ROOT
HETATM    1  C5  UNK     1      25.521  -8.986  37.530  1.00  0.00     0.312 C 
ENDROOT
BRANCH   1   2
HETATM    2  N1  UNK     1      26.926  -9.380  37.438  1.00  0.00     0.096 N 
HETATM    3  C1  UNK     1      27.636  -8.553  36.455  1.00  0.00     0.303 C 
HETATM    4  C3  UNK     1      29.110  -8.963  36.361  1.00  0.00     0.303 C 
HETATM    5  N2  UNK     1      29.762  -8.874  37.673  1.00  0.00     0.096 N 
HETATM    6  C4  UNK     1      29.052  -9.699  38.657  1.00  0.00     0.303 C 
HETATM    7  C2  UNK     1      27.578  -9.289  38.751  1.00  0.00     0.303 C 
BRANCH   5   8
HETATM    8  C6  UNK     1      31.167  -9.269  37.582  1.00  0.00     0.311 C 
BRANCH   8   9
HETATM    9  C8  UNK     1      32.083  -8.076  37.523  1.00  0.00    -0.029 A 
HETATM   10  C12 UNK     1      33.191  -8.086  36.676  1.00  0.00     0.032 A 
HETATM   11  C18 UNK     1      34.038  -6.981  36.623  1.00  0.00     0.034 A 
HETATM   12  C21 UNK     1      33.779  -5.864  37.417  1.00  0.00     0.024 A 
HETATM   13 Cl1  UNK     1      35.405  -6.994  35.576  1.00  0.00    -0.084 Cl
HETATM   14  C19 UNK     1      32.672  -5.852  38.264  1.00  0.00     0.002 A 
HETATM   15  C13 UNK     1      31.823  -6.958  38.317  1.00  0.00     0.009 A 
ENDBRANCH   8   9
ENDBRANCH   5   8
ENDBRANCH   1   2
BRANCH   1  16
HETATM   16  C7  UNK     1      24.627  -9.924  36.795  1.00  0.00    -0.011 A 
HETATM   17  C10 UNK     1      25.078 -11.104  36.346  1.00  0.00     0.092 A 
HETATM   18  C15 UNK     1      24.233 -12.062  35.614  1.00  0.00     0.288 A 
HETATM   19  O1  UNK     1      22.915 -11.692  35.398  1.00  0.00    -0.275 OA
HETATM   20  O3  UNK     1      24.681 -13.134  35.220  1.00  0.00    -0.260 OA
HETATM   21  C11 UNK     1      22.412 -10.458  35.856  1.00  0.00     0.090 A 
HETATM   22  C9  UNK     1      23.225  -9.559  36.548  1.00  0.00     0.009 A 
HETATM   23  C16 UNK     1      21.070 -10.188  35.579  1.00  0.00     0.041 A 
HETATM   24  C14 UNK     1      22.650  -8.352  36.968  1.00  0.00     0.051 A 
HETATM   25  C17 UNK     1      21.306  -8.069  36.699  1.00  0.00     0.069 A 
HETATM   26  C20 UNK     1      20.517  -8.986  36.006  1.00  0.00     0.039 A 
BRANCH  25  27
HETATM   27  O2  UNK     1      20.765  -6.890  37.117  1.00  0.00    -0.351 OA
BRANCH  27  28
HETATM   28  C22 UNK     1      19.627  -6.965  37.973  1.00  0.00     0.171 C 
HETATM   29  C23 UNK     1      20.089  -7.268  39.382  1.00  0.00     0.034 C 
ENDBRANCH  27  28
ENDBRANCH  25  27
ENDBRANCH   1  16
TORSDOF 6
ENDMDL
MODEL 4
REMARK VINA RESULT:      -8.3     14.958     17.526
REMARK  6 active torsions:
REMARK  status: ('A' for Active; 'I' for Inactive)
REMARK    1  A    between atoms: C17_23  and  O2_3 
REMARK    2  A    between atoms: C22_28  and  O2_3 
REMARK    3  A    between atoms: C5_11  and  N1_5 
REMARK    4  A    between atoms: C6_12  and  N2_6 
REMARK    5  A    between atoms: C5_11  and  C7_13 
REMARK    6  A    between atoms: C6_12  and  C8_14 
ROOT
HETATM    1  C5  UNK     1      33.377  -8.580  33.032  1.00  0.00     0.312 C 
ENDROOT
BRANCH   1   2
HETATM    2  N1  UNK     1      33.210  -7.584  34.088  1.00  0.00     0.096 N 
HETATM    3  C1  UNK     1      31.796  -7.444  34.456  1.00  0.00     0.303 C 
HETATM    4  C3  UNK     1      31.622  -6.402  35.566  1.00  0.00     0.303 C 
HETATM    5  N2  UNK     1      32.426  -6.751  36.743  1.00  0.00     0.096 N 
HETATM    6  C4  UNK     1      33.841  -6.892  36.375  1.00  0.00     0.303 C 
HETATM    7  C2  UNK     1      34.014  -7.935  35.266  1.00  0.00     0.303 C 
BRANCH   5   8
HETATM    8  C6  UNK     1      32.261  -5.754  37.799  1.00  0.00     0.311 C 
BRANCH   8   9
HETATM    9  C8  UNK     1      30.828  -5.640  38.245  1.00  0.00    -0.029 A 
HETATM   10  C12 UNK     1      30.106  -6.786  38.575  1.00  0.00     0.032 A 
HETATM   11  C18 UNK     1      28.778  -6.679  38.988  1.00  0.00     0.034 A 
HETATM   12  C21 UNK     1      28.173  -5.426  39.070  1.00  0.00     0.024 A 
HETATM   13 Cl1  UNK     1      27.887  -8.094  39.396  1.00  0.00    -0.084 Cl
HETATM   14  C19 UNK     1      28.894  -4.279  38.741  1.00  0.00     0.002 A 
HETATM   15  C13 UNK     1      30.222  -4.386  38.328  1.00  0.00     0.009 A 
ENDBRANCH   8   9
ENDBRANCH   5   8
ENDBRANCH   1   2
BRANCH   1  16
HETATM   16  C7  UNK     1      33.469  -7.957  31.682  1.00  0.00    -0.011 A 
HETATM   17  C10 UNK     1      34.594  -7.354  31.272  1.00  0.00     0.092 A 
HETATM   18  C15 UNK     1      34.732  -6.724  29.949  1.00  0.00     0.288 A 
HETATM   19  O1  UNK     1      33.625  -6.776  29.115  1.00  0.00    -0.275 OA
HETATM   20  O3  UNK     1      35.778  -6.182  29.608  1.00  0.00    -0.260 OA
HETATM   21  C11 UNK     1      32.429  -7.401  29.518  1.00  0.00     0.090 A 
HETATM   22  C9  UNK     1      32.312  -7.994  30.777  1.00  0.00     0.009 A 
HETATM   23  C16 UNK     1      31.378  -7.392  28.598  1.00  0.00     0.041 A 
HETATM   24  C14 UNK     1      31.088  -8.593  31.102  1.00  0.00     0.051 A 
HETATM   25  C17 UNK     1      30.026  -8.593  30.190  1.00  0.00     0.069 A 
HETATM   26  C20 UNK     1      30.171  -7.992  28.940  1.00  0.00     0.039 A 
BRANCH  25  27
HETATM   27  O2  UNK     1      28.844  -9.181  30.525  1.00  0.00    -0.351 OA
BRANCH  27  28
HETATM   28  C22 UNK     1      27.655  -8.592  30.003  1.00  0.00     0.171 C 
HETATM   29  C23 UNK     1      27.243  -7.439  30.893  1.00  0.00     0.034 C 
ENDBRANCH  27  28
ENDBRANCH  25  27
ENDBRANCH   1  16
TORSDOF 6
ENDMDL
MODEL 5
REMARK VINA RESULT:      -8.2     23.100     25.275
REMARK  6 active torsions:
REMARK  status: ('A' for Active; 'I' for Inactive)
REMARK    1  A    between atoms: C17_23  and  O2_3 
REMARK    2  A    between atoms: C22_28  and  O2_3 
REMARK    3  A    between atoms: C5_11  and  N1_5 
REMARK    4  A    between atoms: C6_12  and  N2_6 
REMARK    5  A    between atoms: C5_11  and  C7_13 
REMARK    6  A    between atoms: C6_12  and  C8_14 
ROOT
HETATM    1  C5  UNK     1      13.150   6.895   7.193  1.00  0.00     0.312 C 
ENDROOT
BRANCH   1   2
HETATM    2  N1  UNK     1      11.860   6.262   7.458  1.00  0.00     0.096 N 
HETATM    3  C1  UNK     1      11.454   6.468   8.854  1.00  0.00     0.303 C 
HETATM    4  C3  UNK     1      10.099   5.806   9.131  1.00  0.00     0.303 C 
HETATM    5  N2  UNK     1       9.071   6.317   8.216  1.00  0.00     0.096 N 
HETATM    6  C4  UNK     1       9.477   6.112   6.820  1.00  0.00     0.303 C 
HETATM    7  C2  UNK     1      10.831   6.775   6.544  1.00  0.00     0.303 C 
BRANCH   5   8
HETATM    8  C6  UNK     1       7.781   5.683   8.479  1.00  0.00     0.311 C 
BRANCH   8   9
HETATM    9  C8  UNK     1       7.170   6.165   9.768  1.00  0.00    -0.029 A 
HETATM   10  C12 UNK     1       6.894   5.259  10.792  1.00  0.00     0.032 A 
HETATM   11  C18 UNK     1       6.328   5.707  11.985  1.00  0.00     0.034 A 
HETATM   12  C21 UNK     1       6.039   7.060  12.155  1.00  0.00     0.024 A 
HETATM   13 Cl1  UNK     1       5.988   4.589  13.249  1.00  0.00    -0.084 Cl
HETATM   14  C19 UNK     1       6.315   7.966  11.132  1.00  0.00     0.002 A 
HETATM   15  C13 UNK     1       6.881   7.519   9.938  1.00  0.00     0.009 A 
ENDBRANCH   8   9
ENDBRANCH   5   8
ENDBRANCH   1   2
BRANCH   1  16
HETATM   16  C7  UNK     1      14.141   6.621   8.271  1.00  0.00    -0.011 A 
HETATM   17  C10 UNK     1      14.536   5.370   8.548  1.00  0.00     0.092 A 
HETATM   18  C15 UNK     1      15.511   5.051   9.604  1.00  0.00     0.288 A 
HETATM   19  O1  UNK     1      16.023   6.118  10.324  1.00  0.00    -0.275 OA
HETATM   20  O3  UNK     1      15.849   3.893   9.828  1.00  0.00    -0.260 OA
HETATM   21  C11 UNK     1      15.627   7.444  10.057  1.00  0.00     0.090 A 
HETATM   22  C9  UNK     1      14.700   7.732   9.053  1.00  0.00     0.009 A 
HETATM   23  C16 UNK     1      16.205   8.440  10.846  1.00  0.00     0.041 A 
HETATM   24  C14 UNK     1      14.357   9.076   8.852  1.00  0.00     0.051 A 
HETATM   25  C17 UNK     1      14.929  10.086   9.634  1.00  0.00     0.069 A 
HETATM   26  C20 UNK     1      15.852   9.768  10.630  1.00  0.00     0.039 A 
BRANCH  25  27
HETATM   27  O2  UNK     1      14.583  11.386   9.422  1.00  0.00    -0.351 OA
BRANCH  27  28
HETATM   28  C22 UNK     1      15.602  12.259   8.939  1.00  0.00     0.171 C 
HETATM   29  C23 UNK     1      15.630  12.194   7.427  1.00  0.00     0.034 C 
ENDBRANCH  27  28
ENDBRANCH  25  27
ENDBRANCH   1  16
TORSDOF 6
ENDMDL
MODEL 6
REMARK VINA RESULT:      -8.2      7.085     12.431
REMARK  6 active torsions:
REMARK  status: ('A' for Active; 'I' for Inactive)
REMARK    1  A    between atoms: C17_23  and  O2_3 
REMARK    2  A    between atoms: C22_28  and  O2_3 
REMARK    3  A    between atoms: C5_11  and  N1_5 
REMARK    4  A    between atoms: C6_12  and  N2_6 
REMARK    5  A    between atoms: C5_11  and  C7_13 
REMARK    6  A    between atoms: C6_12  and  C8_14 
ROOT
HETATM    1  C5  UNK     1      19.524  -2.902  35.344  1.00  0.00     0.312 C 
ENDROOT
BRANCH   1   2
HETATM    2  N1  UNK     1      19.691  -3.833  36.459  1.00  0.00     0.096 N 
HETATM    3  C1  UNK     1      19.172  -5.162  36.112  1.00  0.00     0.303 C 
HETATM    4  C3  UNK     1      19.349  -6.139  37.279  1.00  0.00     0.303 C 
HETATM    5  N2  UNK     1      20.759  -6.226  37.678  1.00  0.00     0.096 N 
HETATM    6  C4  UNK     1      21.279  -4.898  38.024  1.00  0.00     0.303 C 
HETATM    7  C2  UNK     1      21.102  -3.922  36.856  1.00  0.00     0.303 C 
BRANCH   5   8
HETATM    8  C6  UNK     1      20.926  -7.156  38.794  1.00  0.00     0.311 C 
BRANCH   8   9
HETATM    9  C8  UNK     1      20.629  -8.576  38.391  1.00  0.00    -0.029 A 
HETATM   10  C12 UNK     1      21.322  -9.161  37.332  1.00  0.00     0.032 A 
HETATM   11  C18 UNK     1      21.045 -10.476  36.960  1.00  0.00     0.034 A 
HETATM   12  C21 UNK     1      20.076 -11.206  37.647  1.00  0.00     0.024 A 
HETATM   13 Cl1  UNK     1      21.901 -11.198  35.653  1.00  0.00    -0.084 Cl
HETATM   14  C19 UNK     1      19.383 -10.622  38.706  1.00  0.00     0.002 A 
HETATM   15  C13 UNK     1      19.660  -9.307  39.079  1.00  0.00     0.009 A 
ENDBRANCH   8   9
ENDBRANCH   5   8
ENDBRANCH   1   2
BRANCH   1  16
HETATM   16  C7  UNK     1      18.978  -1.589  35.787  1.00  0.00    -0.011 A 
HETATM   17  C10 UNK     1      18.701  -1.352  37.077  1.00  0.00     0.092 A 
HETATM   18  C15 UNK     1      18.160  -0.072  37.561  1.00  0.00     0.288 A 
HETATM   19  O1  UNK     1      17.939   0.911  36.609  1.00  0.00    -0.275 OA
HETATM   20  O3  UNK     1      17.920   0.109  38.751  1.00  0.00    -0.260 OA
HETATM   21  C11 UNK     1      18.218   0.692  35.246  1.00  0.00     0.090 A 
HETATM   22  C9  UNK     1      18.731  -0.528  34.801  1.00  0.00     0.009 A 
HETATM   23  C16 UNK     1      17.955   1.752  34.375  1.00  0.00     0.041 A 
HETATM   24  C14 UNK     1      18.980  -0.667  33.429  1.00  0.00     0.051 A 
HETATM   25  C17 UNK     1      18.722   0.387  32.545  1.00  0.00     0.069 A 
HETATM   26  C20 UNK     1      18.210   1.594  33.018  1.00  0.00     0.039 A 
BRANCH  25  27
HETATM   27  O2  UNK     1      18.972   0.232  31.215  1.00  0.00    -0.351 OA
BRANCH  27  28
HETATM   28  C22 UNK     1      20.200  -0.396  30.853  1.00  0.00     0.171 C 
HETATM   29  C23 UNK     1      20.425  -0.220  29.367  1.00  0.00     0.034 C 
ENDBRANCH  27  28
ENDBRANCH  25  27
ENDBRANCH   1  16
TORSDOF 6
ENDMDL
MODEL 7
REMARK VINA RESULT:      -8.2     14.582     17.496
REMARK  6 active torsions:
REMARK  status: ('A' for Active; 'I' for Inactive)
REMARK    1  A    between atoms: C17_23  and  O2_3 
REMARK    2  A    between atoms: C22_28  and  O2_3 
REMARK    3  A    between atoms: C5_11  and  N1_5 
REMARK    4  A    between atoms: C6_12  and  N2_6 
REMARK    5  A    between atoms: C5_11  and  C7_13 
REMARK    6  A    between atoms: C6_12  and  C8_14 
ROOT
HETATM    1  C5  UNK     1      31.632  -6.484  31.795  1.00  0.00     0.312 C 
ENDROOT
BRANCH   1   2
HETATM    2  N1  UNK     1      31.661  -7.250  33.039  1.00  0.00     0.096 N 
HETATM    3  C1  UNK     1      32.618  -6.667  33.988  1.00  0.00     0.303 C 
HETATM    4  C3  UNK     1      32.648  -7.469  35.294  1.00  0.00     0.303 C 
HETATM    5  N2  UNK     1      31.310  -7.541  35.894  1.00  0.00     0.096 N 
HETATM    6  C4  UNK     1      30.352  -8.123  34.945  1.00  0.00     0.303 C 
HETATM    7  C2  UNK     1      30.323  -7.320  33.639  1.00  0.00     0.303 C 
BRANCH   5   8
HETATM    8  C6  UNK     1      31.339  -8.309  37.137  1.00  0.00     0.311 C 
BRANCH   8   9
HETATM    9  C8  UNK     1      30.093  -8.101  37.955  1.00  0.00    -0.029 A 
HETATM   10  C12 UNK     1      29.292  -9.190  38.298  1.00  0.00     0.032 A 
HETATM   11  C18 UNK     1      28.138  -8.996  39.055  1.00  0.00     0.034 A 
HETATM   12  C21 UNK     1      27.783  -7.713  39.471  1.00  0.00     0.024 A 
HETATM   13 Cl1  UNK     1      27.150 -10.341  39.478  1.00  0.00    -0.084 Cl
HETATM   14  C19 UNK     1      28.583  -6.623  39.129  1.00  0.00     0.002 A 
HETATM   15  C13 UNK     1      29.738  -6.817  38.372  1.00  0.00     0.009 A 
ENDBRANCH   8   9
ENDBRANCH   5   8
ENDBRANCH   1   2
BRANCH   1  16
HETATM   16  C7  UNK     1      32.064  -7.298  30.625  1.00  0.00    -0.011 A 
HETATM   17  C10 UNK     1      33.352  -7.355  30.257  1.00  0.00     0.092 A 
HETATM   18  C15 UNK     1      33.825  -8.144  29.108  1.00  0.00     0.288 A 
HETATM   19  O1  UNK     1      32.866  -8.848  28.397  1.00  0.00    -0.275 OA
HETATM   20  O3  UNK     1      35.013  -8.173  28.802  1.00  0.00    -0.260 OA
HETATM   21  C11 UNK     1      31.504  -8.807  28.758  1.00  0.00     0.090 A 
HETATM   22  C9  UNK     1      31.069  -8.053  29.850  1.00  0.00     0.009 A 
HETATM   23  C16 UNK     1      30.625  -9.553  27.970  1.00  0.00     0.041 A 
HETATM   24  C14 UNK     1      29.699  -8.063  30.142  1.00  0.00     0.051 A 
HETATM   25  C17 UNK     1      28.806  -8.807  29.362  1.00  0.00     0.069 A 
HETATM   26  C20 UNK     1      29.269  -9.550  28.277  1.00  0.00     0.039 A 
BRANCH  25  27
HETATM   27  O2  UNK     1      27.478  -8.804  29.662  1.00  0.00    -0.351 OA
BRANCH  27  28
HETATM   28  C22 UNK     1      27.053  -7.946  30.720  1.00  0.00     0.171 C 
HETATM   29  C23 UNK     1      26.300  -6.773  30.131  1.00  0.00     0.034 C 
ENDBRANCH  27  28
ENDBRANCH  25  27
ENDBRANCH   1  16
TORSDOF 6
ENDMDL
MODEL 8
REMARK VINA RESULT:      -8.1     14.895     17.430
REMARK  6 active torsions:
REMARK  status: ('A' for Active; 'I' for Inactive)
REMARK    1  A    between atoms: C17_23  and  O2_3 
REMARK    2  A    between atoms: C22_28  and  O2_3 
REMARK    3  A    between atoms: C5_11  and  N1_5 
REMARK    4  A    between atoms: C6_12  and  N2_6 
REMARK    5  A    between atoms: C5_11  and  C7_13 
REMARK    6  A    between atoms: C6_12  and  C8_14 
ROOT
HETATM    1  C5  UNK     1      30.928  -9.583  37.575  1.00  0.00     0.312 C 
ENDROOT
BRANCH   1   2
HETATM    2  N1  UNK     1      30.617  -9.888  36.180  1.00  0.00     0.096 N 
HETATM    3  C1  UNK     1      29.289  -9.379  35.818  1.00  0.00     0.303 C 
HETATM    4  C3  UNK     1      28.964  -9.696  34.354  1.00  0.00     0.303 C 
HETATM    5  N2  UNK     1      29.988  -9.142  33.459  1.00  0.00     0.096 N 
HETATM    6  C4  UNK     1      31.316  -9.651  33.822  1.00  0.00     0.303 C 
HETATM    7  C2  UNK     1      31.641  -9.333  35.286  1.00  0.00     0.303 C 
BRANCH   5   8
HETATM    8  C6  UNK     1      29.678  -9.449  32.064  1.00  0.00     0.311 C 
BRANCH   8   9
HETATM    9  C8  UNK     1      28.981  -8.304  31.379  1.00  0.00    -0.029 A 
HETATM   10  C12 UNK     1      29.595  -7.053  31.308  1.00  0.00     0.032 A 
HETATM   11  C18 UNK     1      28.948  -5.994  30.674  1.00  0.00     0.034 A 
HETATM   12  C21 UNK     1      27.687  -6.184  30.109  1.00  0.00     0.024 A 
HETATM   13 Cl1  UNK     1      29.707  -4.451  30.586  1.00  0.00    -0.084 Cl
HETATM   14  C19 UNK     1      27.073  -7.433  30.179  1.00  0.00     0.002 A 
HETATM   15  C13 UNK     1      27.720  -8.494  30.814  1.00  0.00     0.009 A 
ENDBRANCH   8   9
ENDBRANCH   5   8
ENDBRANCH   1   2
BRANCH   1  16
HETATM   16  C7  UNK     1      29.861  -8.768  38.222  1.00  0.00    -0.011 A 
HETATM   17  C10 UNK     1      28.744  -9.338  38.696  1.00  0.00     0.092 A 
HETATM   18  C15 UNK     1      27.664  -8.573  39.340  1.00  0.00     0.288 A 
HETATM   19  O1  UNK     1      27.845  -7.203  39.444  1.00  0.00    -0.275 OA
HETATM   20  O3  UNK     1      26.655  -9.130  39.763  1.00  0.00    -0.260 OA
HETATM   21  C11 UNK     1      29.008  -6.575  38.955  1.00  0.00     0.090 A 
HETATM   22  C9  UNK     1      30.024  -7.313  38.345  1.00  0.00     0.009 A 
HETATM   23  C16 UNK     1      29.083  -5.190  39.111  1.00  0.00     0.041 A 
HETATM   24  C14 UNK     1      31.147  -6.613  37.883  1.00  0.00     0.051 A 
HETATM   25  C17 UNK     1      31.238  -5.225  38.033  1.00  0.00     0.069 A 
HETATM   26  C20 UNK     1      30.207  -4.514  38.647  1.00  0.00     0.039 A 
BRANCH  25  27
HETATM   27  O2  UNK     1      32.338  -4.563  37.578  1.00  0.00    -0.351 OA
BRANCH  27  28
HETATM   28  C22 UNK     1      32.152  -3.676  36.477  1.00  0.00     0.171 C 
HETATM   29  C23 UNK     1      32.905  -4.213  35.279  1.00  0.00     0.034 C 
ENDBRANCH  27  28
ENDBRANCH  25  27
ENDBRANCH   1  16
TORSDOF 6
ENDMDL
MODEL 9
REMARK VINA RESULT:      -8.1      2.581      3.909
REMARK  6 active torsions:
REMARK  status: ('A' for Active; 'I' for Inactive)
REMARK    1  A    between atoms: C17_23  and  O2_3 
REMARK    2  A    between atoms: C22_28  and  O2_3 
REMARK    3  A    between atoms: C5_11  and  N1_5 
REMARK    4  A    between atoms: C6_12  and  N2_6 
REMARK    5  A    between atoms: C5_11  and  C7_13 
REMARK    6  A    between atoms: C6_12  and  C8_14 
ROOT
HETATM    1  C5  UNK     1      18.598   5.610  32.412  1.00  0.00     0.312 C 
ENDROOT
BRANCH   1   2
HETATM    2  N1  UNK     1      17.293   6.254  32.549  1.00  0.00     0.096 N 
HETATM    3  C1  UNK     1      17.079   6.712  33.928  1.00  0.00     0.303 C 
HETATM    4  C3  UNK     1      15.712   7.390  34.071  1.00  0.00     0.303 C 
HETATM    5  N2  UNK     1      15.583   8.510  33.132  1.00  0.00     0.096 N 
HETATM    6  C4  UNK     1      15.798   8.053  31.754  1.00  0.00     0.303 C 
HETATM    7  C2  UNK     1      17.165   7.376  31.611  1.00  0.00     0.303 C 
BRANCH   5   8
HETATM    8  C6  UNK     1      14.277   9.154  33.268  1.00  0.00     0.311 C 
BRANCH   8   9
HETATM    9  C8  UNK     1      14.402  10.641  33.464  1.00  0.00    -0.029 A 
HETATM   10  C12 UNK     1      15.248  11.147  34.451  1.00  0.00     0.032 A 
HETATM   11  C18 UNK     1      15.362  12.525  34.632  1.00  0.00     0.034 A 
HETATM   12  C21 UNK     1      14.630  13.397  33.826  1.00  0.00     0.024 A 
HETATM   13 Cl1  UNK     1      16.406  13.150  35.849  1.00  0.00    -0.084 Cl
HETATM   14  C19 UNK     1      13.785  12.892  32.839  1.00  0.00     0.002 A 
HETATM   15  C13 UNK     1      13.671  11.514  32.658  1.00  0.00     0.009 A 
ENDBRANCH   8   9
ENDBRANCH   5   8
ENDBRANCH   1   2
BRANCH   1  16
HETATM   16  C7  UNK     1      18.489   4.236  31.845  1.00  0.00    -0.011 A 
HETATM   17  C10 UNK     1      18.446   4.034  30.521  1.00  0.00     0.092 A 
HETATM   18  C15 UNK     1      18.337   2.696  29.916  1.00  0.00     0.288 A 
HETATM   19  O1  UNK     1      18.279   1.620  30.788  1.00  0.00    -0.275 OA
HETATM   20  O3  UNK     1      18.302   2.549  28.699  1.00  0.00    -0.260 OA
HETATM   21  C11 UNK     1      18.320   1.801  32.185  1.00  0.00     0.090 A 
HETATM   22  C9  UNK     1      18.423   3.076  32.745  1.00  0.00     0.009 A 
HETATM   23  C16 UNK     1      18.252   0.646  32.968  1.00  0.00     0.041 A 
HETATM   24  C14 UNK     1      18.456   3.171  34.142  1.00  0.00     0.051 A 
HETATM   25  C17 UNK     1      18.390   2.023  34.940  1.00  0.00     0.069 A 
HETATM   26  C20 UNK     1      18.287   0.762  34.353  1.00  0.00     0.039 A 
BRANCH  25  27
HETATM   27  O2  UNK     1      18.424   2.137  36.297  1.00  0.00    -0.351 OA
BRANCH  27  28
HETATM   28  C22 UNK     1      17.270   1.702  37.014  1.00  0.00     0.171 C 
HETATM   29  C23 UNK     1      17.667   0.584  37.954  1.00  0.00     0.034 C 
ENDBRANCH  27  28
ENDBRANCH  25  27
ENDBRANCH   1  16
TORSDOF 6
ENDMDL
MODEL 10
REMARK VINA RESULT:      -8.0     14.820     17.447
REMARK  6 active torsions:
REMARK  status: ('A' for Active; 'I' for Inactive)
REMARK    1  A    between atoms: C17_23  and  O2_3 
REMARK    2  A    between atoms: C22_28  and  O2_3 
REMARK    3  A    between atoms: C5_11  and  N1_5 
REMARK    4  A    between atoms: C6_12  and  N2_6 
REMARK    5  A    between atoms: C5_11  and  C7_13 
REMARK    6  A    between atoms: C6_12  and  C8_14 
ROOT
HETATM    1  C5  UNK     1      31.497  -9.324  37.740  1.00  0.00     0.312 C 
ENDROOT
BRANCH   1   2
HETATM    2  N1  UNK     1      31.081  -9.707  36.392  1.00  0.00     0.096 N 
HETATM    3  C1  UNK     1      29.673  -9.362  36.163  1.00  0.00     0.303 C 
HETATM    4  C3  UNK     1      29.237  -9.761  34.749  1.00  0.00     0.303 C 
HETATM    5  N2  UNK     1      30.091  -9.125  33.740  1.00  0.00     0.096 N 
HETATM    6  C4  UNK     1      31.500  -9.468  33.969  1.00  0.00     0.303 C 
HETATM    7  C2  UNK     1      31.936  -9.069  35.383  1.00  0.00     0.303 C 
BRANCH   5   8
HETATM    8  C6  UNK     1      29.676  -9.509  32.392  1.00  0.00     0.311 C 
BRANCH   8   9
HETATM    9  C8  UNK     1      29.022  -8.369  31.659  1.00  0.00    -0.029 A 
HETATM   10  C12 UNK     1      29.605  -7.101  31.677  1.00  0.00     0.032 A 
HETATM   11  C18 UNK     1      28.998  -6.046  30.997  1.00  0.00     0.034 A 
HETATM   12  C21 UNK     1      27.809  -6.256  30.301  1.00  0.00     0.024 A 
HETATM   13 Cl1  UNK     1      29.718  -4.482  31.018  1.00  0.00    -0.084 Cl
HETATM   14  C19 UNK     1      27.226  -7.522  30.282  1.00  0.00     0.002 A 
HETATM   15  C13 UNK     1      27.833  -8.579  30.961  1.00  0.00     0.009 A 
ENDBRANCH   8   9
ENDBRANCH   5   8
ENDBRANCH   1   2
BRANCH   1  16
HETATM   16  C7  UNK     1      31.979  -7.915  37.799  1.00  0.00    -0.011 A 
HETATM   17  C10 UNK     1      33.240  -7.600  37.472  1.00  0.00     0.092 A 
HETATM   18  C15 UNK     1      33.761  -6.223  37.516  1.00  0.00     0.288 A 
HETATM   19  O1  UNK     1      32.877  -5.235  37.919  1.00  0.00    -0.275 OA
HETATM   20  O3  UNK     1      34.922  -5.972  37.208  1.00  0.00    -0.260 OA
HETATM   21  C11 UNK     1      31.546  -5.535  38.270  1.00  0.00     0.090 A 
HETATM   22  C9  UNK     1      31.066  -6.846  38.224  1.00  0.00     0.009 A 
HETATM   23  C16 UNK     1      30.745  -4.461  38.663  1.00  0.00     0.041 A 
HETATM   24  C14 UNK     1      29.731  -7.061  38.591  1.00  0.00     0.051 A 
HETATM   25  C17 UNK     1      28.916  -5.995  38.986  1.00  0.00     0.069 A 
HETATM   26  C20 UNK     1      29.423  -4.696  39.022  1.00  0.00     0.039 A 
BRANCH  25  27
HETATM   27  O2  UNK     1      27.620  -6.225  39.339  1.00  0.00    -0.351 OA
BRANCH  27  28
HETATM   28  C22 UNK     1      26.819  -6.965  38.419  1.00  0.00     0.171 C 
HETATM   29  C23 UNK     1      26.431  -8.283  39.054  1.00  0.00     0.034 C 
ENDBRANCH  27  28
ENDBRANCH  25  27
ENDBRANCH   1  16
TORSDOF 6
ENDMDL
