MODEL 1
REMARK VINA RESULT:      -7.2      0.000      0.000
REMARK  2 active torsions:
REMARK  status: ('A' for Active; 'I' for Inactive)
REMARK    1  A    between atoms: C11_16  and  O2_3 
REMARK    2  A    between atoms: C6_11  and  O2_3 
ROOT
HETATM    1  I1  UNK     1      17.747   0.588  34.792  1.00  0.00    -0.039 I 
HETATM    2  O1  UNK     1      18.491   1.205  31.779  1.00  0.00    -0.273 OA
HETATM    3  O3  UNK     1      18.074   2.822  30.219  1.00  0.00    -0.260 OA
HETATM    4  C1  UNK     1      19.890  -0.705  31.176  1.00  0.00     0.005 A 
HETATM    5  C2  UNK     1      19.117  -0.014  32.111  1.00  0.00     0.109 A 
HETATM    6  C3  UNK     1      20.041  -0.138  29.830  1.00  0.00    -0.043 A 
HETATM    7  C4  UNK     1      20.480  -1.910  31.585  1.00  0.00     0.017 A 
HETATM    8  C5  UNK     1      18.923  -0.483  33.411  1.00  0.00     0.075 A 
HETATM    9  C6  UNK     1      19.517  -1.680  33.797  1.00  0.00     0.098 A 
HETATM   10  C7  UNK     1      20.294  -2.392  32.885  1.00  0.00     0.040 A 
HETATM   11  C8  UNK     1      19.434   1.023  29.542  1.00  0.00     0.090 A 
HETATM   12  C9  UNK     1      20.866  -0.857  28.803  1.00  0.00     0.049 C 
HETATM   13  C10 UNK     1      18.615   1.764  30.517  1.00  0.00     0.288 A 
ENDROOT
BRANCH   9  14
HETATM   14  O2  UNK     1      19.368  -2.195  35.050  1.00  0.00    -0.278 OA
BRANCH  14  15
HETATM   15  C11 UNK     1      20.545  -2.189  35.815  1.00  0.00     0.260 C 
HETATM   16  O4  UNK     1      21.503  -1.445  35.649  1.00  0.00    -0.265 OA
HETATM   17  C12 UNK     1      20.469  -3.242  36.881  1.00  0.00     0.126 C 
ENDBRANCH  14  15
ENDBRANCH   9  14
TORSDOF 2
ENDMDL
MODEL 2
REMARK VINA RESULT:      -7.1      2.048      5.137
REMARK  2 active torsions:
REMARK  status: ('A' for Active; 'I' for Inactive)
REMARK    1  A    between atoms: C11_16  and  O2_3 
REMARK    2  A    between atoms: C6_11  and  O2_3 
ROOT
HETATM    1  I1  UNK     1      18.026   1.667  34.643  1.00  0.00    -0.039 I 
HETATM    2  O1  UNK     1      19.424  -0.554  32.876  1.00  0.00    -0.273 OA
HETATM    3  O3  UNK     1      20.320  -2.639  33.154  1.00  0.00    -0.260 OA
HETATM    4  C1  UNK     1      19.439   0.465  30.655  1.00  0.00     0.005 A 
HETATM    5  C2  UNK     1      19.120   0.519  32.013  1.00  0.00     0.109 A 
HETATM    6  C3  UNK     1      20.103  -0.737  30.135  1.00  0.00    -0.043 A 
HETATM    7  C4  UNK     1      19.102   1.573  29.865  1.00  0.00     0.017 A 
HETATM    8  C5  UNK     1      18.488   1.623  32.588  1.00  0.00     0.075 A 
HETATM    9  C6  UNK     1      18.162   2.712  31.787  1.00  0.00     0.098 A 
HETATM   10  C7  UNK     1      18.469   2.687  30.428  1.00  0.00     0.040 A 
HETATM   11  C8  UNK     1      20.381  -1.742  30.978  1.00  0.00     0.090 A 
HETATM   12  C9  UNK     1      20.458  -0.825  28.680  1.00  0.00     0.049 C 
HETATM   13  C10 UNK     1      20.050  -1.701  32.413  1.00  0.00     0.288 A 
ENDROOT
BRANCH   9  14
HETATM   14  O2  UNK     1      17.546   3.822  32.283  1.00  0.00    -0.278 OA
BRANCH  14  15
HETATM   15  C11 UNK     1      18.300   4.999  32.157  1.00  0.00     0.260 C 
HETATM   16  O4  UNK     1      18.399   5.681  31.146  1.00  0.00    -0.265 OA
HETATM   17  C12 UNK     1      18.984   5.311  33.456  1.00  0.00     0.126 C 
ENDBRANCH  14  15
ENDBRANCH   9  14
TORSDOF 2
ENDMDL
MODEL 3
REMARK VINA RESULT:      -6.9      1.397      1.798
REMARK  2 active torsions:
REMARK  status: ('A' for Active; 'I' for Inactive)
REMARK    1  A    between atoms: C11_16  and  O2_3 
REMARK    2  A    between atoms: C6_11  and  O2_3 
ROOT
HETATM    1  I1  UNK     1      17.774   1.256  36.157  1.00  0.00    -0.039 I 
HETATM    2  O1  UNK     1      18.018   2.547  33.279  1.00  0.00    -0.273 OA
HETATM    3  O3  UNK     1      17.655   4.573  32.284  1.00  0.00    -0.260 OA
HETATM    4  C1  UNK     1      18.829   0.681  31.927  1.00  0.00     0.005 A 
HETATM    5  C2  UNK     1      18.423   1.202  33.156  1.00  0.00     0.109 A 
HETATM    6  C3  UNK     1      18.827   1.563  30.753  1.00  0.00    -0.043 A 
HETATM    7  C4  UNK     1      19.218  -0.666  31.889  1.00  0.00     0.017 A 
HETATM    8  C5  UNK     1      18.396   0.433  34.321  1.00  0.00     0.075 A 
HETATM    9  C6  UNK     1      18.786  -0.901  34.262  1.00  0.00     0.098 A 
HETATM   10  C7  UNK     1      19.196  -1.450  33.048  1.00  0.00     0.040 A 
HETATM   11  C8  UNK     1      18.437   2.837  30.898  1.00  0.00     0.090 A 
HETATM   12  C9  UNK     1      19.259   1.032  29.417  1.00  0.00     0.049 C 
HETATM   13  C10 UNK     1      18.006   3.403  32.188  1.00  0.00     0.288 A 
ENDROOT
BRANCH   9  14
HETATM   14  O2  UNK     1      18.782  -1.709  35.360  1.00  0.00    -0.278 OA
BRANCH  14  15
HETATM   15  C11 UNK     1      20.055  -2.164  35.740  1.00  0.00     0.260 C 
HETATM   16  O4  UNK     1      21.099  -1.533  35.642  1.00  0.00    -0.265 OA
HETATM   17  C12 UNK     1      19.958  -3.557  36.288  1.00  0.00     0.126 C 
ENDBRANCH  14  15
ENDBRANCH   9  14
TORSDOF 2
ENDMDL
MODEL 4
REMARK VINA RESULT:      -6.7      3.270      6.606
REMARK  2 active torsions:
REMARK  status: ('A' for Active; 'I' for Inactive)
REMARK    1  A    between atoms: C11_16  and  O2_3 
REMARK    2  A    between atoms: C6_11  and  O2_3 
ROOT
HETATM    1  I1  UNK     1      18.417   2.434  29.635  1.00  0.00    -0.039 I 
HETATM    2  O1  UNK     1      18.506   0.530  32.160  1.00  0.00    -0.273 OA
HETATM    3  O3  UNK     1      18.672  -1.707  32.602  1.00  0.00    -0.260 OA
HETATM    4  C1  UNK     1      18.330   2.105  34.019  1.00  0.00     0.005 A 
HETATM    5  C2  UNK     1      18.387   1.847  32.649  1.00  0.00     0.109 A 
HETATM    6  C3  UNK     1      18.396   0.973  34.952  1.00  0.00    -0.043 A 
HETATM    7  C4  UNK     1      18.213   3.442  34.424  1.00  0.00     0.017 A 
HETATM    8  C5  UNK     1      18.331   2.865  31.695  1.00  0.00     0.075 A 
HETATM    9  C6  UNK     1      18.216   4.185  32.117  1.00  0.00     0.098 A 
HETATM   10  C7  UNK     1      18.156   4.473  33.479  1.00  0.00     0.040 A 
HETATM   11  C8  UNK     1      18.508  -0.269  34.459  1.00  0.00     0.090 A 
HETATM   12  C9  UNK     1      18.338   1.218  36.431  1.00  0.00     0.049 C 
HETATM   13  C10 UNK     1      18.570  -0.558  33.016  1.00  0.00     0.288 A 
ENDROOT
BRANCH   9  14
HETATM   14  O2  UNK     1      18.155   5.227  31.240  1.00  0.00    -0.278 OA
BRANCH  14  15
HETATM   15  C11 UNK     1      19.244   6.109  31.323  1.00  0.00     0.260 C 
HETATM   16  O4  UNK     1      19.422   6.945  32.199  1.00  0.00    -0.265 OA
HETATM   17  C12 UNK     1      20.174   5.884  30.168  1.00  0.00     0.126 C 
ENDBRANCH  14  15
ENDBRANCH   9  14
TORSDOF 2
ENDMDL
MODEL 5
REMARK VINA RESULT:      -6.4      3.090      4.253
REMARK  2 active torsions:
REMARK  status: ('A' for Active; 'I' for Inactive)
REMARK    1  A    between atoms: C11_16  and  O2_3 
REMARK    2  A    between atoms: C6_11  and  O2_3 
ROOT
HETATM    1  I1  UNK     1      18.580  -1.042  33.016  1.00  0.00    -0.039 I 
HETATM    2  O1  UNK     1      18.614   1.310  30.901  1.00  0.00    -0.273 OA
HETATM    3  O3  UNK     1      18.748   1.560  28.632  1.00  0.00    -0.260 OA
HETATM    4  C1  UNK     1      18.444   3.297  32.313  1.00  0.00     0.005 A 
HETATM    5  C2  UNK     1      18.510   1.910  32.172  1.00  0.00     0.109 A 
HETATM    6  C3  UNK     1      18.487   4.129  31.104  1.00  0.00    -0.043 A 
HETATM    7  C4  UNK     1      18.341   3.814  33.612  1.00  0.00     0.017 A 
HETATM    8  C5  UNK     1      18.475   1.046  33.269  1.00  0.00     0.075 A 
HETATM    9  C6  UNK     1      18.372   1.579  34.550  1.00  0.00     0.098 A 
HETATM   10  C7  UNK     1      18.305   2.960  34.721  1.00  0.00     0.040 A 
HETATM   11  C8  UNK     1      18.586   3.533  29.908  1.00  0.00     0.090 A 
HETATM   12  C9  UNK     1      18.417   5.624  31.222  1.00  0.00     0.049 C 
HETATM   13  C10 UNK     1      18.656   2.071  29.742  1.00  0.00     0.288 A 
ENDROOT
BRANCH   9  14
HETATM   14  O2  UNK     1      18.334   0.794  35.663  1.00  0.00    -0.278 OA
BRANCH  14  15
HETATM   15  C11 UNK     1      17.089   0.778  36.310  1.00  0.00     0.260 C 
HETATM   16  O4  UNK     1      16.015   0.508  35.789  1.00  0.00    -0.265 OA
HETATM   17  C12 UNK     1      17.257   1.149  37.754  1.00  0.00     0.126 C 
ENDBRANCH  14  15
ENDBRANCH   9  14
TORSDOF 2
ENDMDL
MODEL 6
REMARK VINA RESULT:      -6.4     24.067     26.229
REMARK  2 active torsions:
REMARK  status: ('A' for Active; 'I' for Inactive)
REMARK    1  A    between atoms: C11_16  and  O2_3 
REMARK    2  A    between atoms: C6_11  and  O2_3 
ROOT
HETATM    1  I1  UNK     1      12.687   9.541  11.412  1.00  0.00    -0.039 I 
HETATM    2  O1  UNK     1      10.196   8.394   9.835  1.00  0.00    -0.273 OA
HETATM    3  O3  UNK     1       7.917   8.391  10.020  1.00  0.00    -0.260 OA
HETATM    4  C1  UNK     1      11.244   7.236   7.957  1.00  0.00     0.005 A 
HETATM    5  C2  UNK     1      11.346   7.995   9.124  1.00  0.00     0.109 A 
HETATM    6  C3  UNK     1       9.909   6.856   7.478  1.00  0.00    -0.043 A 
HETATM    7  C4  UNK     1      12.435   6.880   7.307  1.00  0.00     0.017 A 
HETATM    8  C5  UNK     1      12.576   8.398   9.646  1.00  0.00     0.075 A 
HETATM    9  C6  UNK     1      13.745   8.036   8.987  1.00  0.00     0.098 A 
HETATM   10  C7  UNK     1      13.675   7.277   7.820  1.00  0.00     0.040 A 
HETATM   11  C8  UNK     1       8.833   7.249   8.175  1.00  0.00     0.090 A 
HETATM   12  C9  UNK     1       9.766   6.040   6.226  1.00  0.00     0.049 C 
HETATM   13  C10 UNK     1       8.923   8.050   9.408  1.00  0.00     0.288 A 
ENDROOT
BRANCH   9  14
HETATM   14  O2  UNK     1      14.979   8.395   9.443  1.00  0.00    -0.278 OA
BRANCH  14  15
HETATM   15  C11 UNK     1      15.626   7.397  10.189  1.00  0.00     0.260 C 
HETATM   16  O4  UNK     1      15.075   6.524  10.846  1.00  0.00    -0.265 OA
HETATM   17  C12 UNK     1      17.113   7.554  10.072  1.00  0.00     0.126 C 
ENDBRANCH  14  15
ENDBRANCH   9  14
TORSDOF 2
ENDMDL
MODEL 7
REMARK VINA RESULT:      -6.3      7.864     10.623
REMARK  2 active torsions:
REMARK  status: ('A' for Active; 'I' for Inactive)
REMARK    1  A    between atoms: C11_16  and  O2_3 
REMARK    2  A    between atoms: C6_11  and  O2_3 
ROOT
HETATM    1  I1  UNK     1      21.717  -6.207  38.150  1.00  0.00    -0.039 I 
HETATM    2  O1  UNK     1      24.051  -8.260  37.562  1.00  0.00    -0.273 OA
HETATM    3  O3  UNK     1      26.300  -8.433  37.931  1.00  0.00    -0.260 OA
HETATM    4  C1  UNK     1      22.891 -10.059  36.385  1.00  0.00     0.005 A 
HETATM    5  C2  UNK     1      22.873  -8.821  37.027  1.00  0.00     0.109 A 
HETATM    6  C3  UNK     1      24.168 -10.775  36.273  1.00  0.00    -0.043 A 
HETATM    7  C4  UNK     1      21.677 -10.548  35.881  1.00  0.00     0.017 A 
HETATM    8  C5  UNK     1      21.702  -8.075  37.177  1.00  0.00     0.075 A 
HETATM    9  C6  UNK     1      20.508  -8.577  36.671  1.00  0.00     0.098 A 
HETATM   10  C7  UNK     1      20.496  -9.811  36.024  1.00  0.00     0.040 A 
HETATM   11  C8  UNK     1      25.273 -10.218  36.790  1.00  0.00     0.090 A 
HETATM   12  C9  UNK     1      24.220 -12.110  35.588  1.00  0.00     0.049 C 
HETATM   13  C10 UNK     1      25.270  -8.912  37.471  1.00  0.00     0.288 A 
ENDROOT
BRANCH   9  14
HETATM   14  O2  UNK     1      19.330  -7.901  36.781  1.00  0.00    -0.278 OA
BRANCH  14  15
HETATM   15  C11 UNK     1      18.889  -7.319  35.582  1.00  0.00     0.260 C 
HETATM   16  O4  UNK     1      19.581  -6.681  34.800  1.00  0.00    -0.265 OA
HETATM   17  C12 UNK     1      17.426  -7.589  35.389  1.00  0.00     0.126 C 
ENDBRANCH  14  15
ENDBRANCH   9  14
TORSDOF 2
ENDMDL
MODEL 8
REMARK VINA RESULT:      -6.3     24.257     26.031
REMARK  2 active torsions:
REMARK  status: ('A' for Active; 'I' for Inactive)
REMARK    1  A    between atoms: C11_16  and  O2_3 
REMARK    2  A    between atoms: C6_11  and  O2_3 
ROOT
HETATM    1  I1  UNK     1      10.630   8.495   9.242  1.00  0.00    -0.039 I 
HETATM    2  O1  UNK     1      13.530   9.114  10.344  1.00  0.00    -0.273 OA
HETATM    3  O3  UNK     1      14.582  10.747  11.549  1.00  0.00    -0.260 OA
HETATM    4  C1  UNK     1      14.816   7.187   9.566  1.00  0.00     0.005 A 
HETATM    5  C2  UNK     1      13.610   7.885   9.658  1.00  0.00     0.109 A 
HETATM    6  C3  UNK     1      16.010   7.760  10.200  1.00  0.00    -0.043 A 
HETATM    7  C4  UNK     1      14.811   5.971   8.868  1.00  0.00     0.017 A 
HETATM    8  C5  UNK     1      12.429   7.411   9.085  1.00  0.00     0.075 A 
HETATM    9  C6  UNK     1      12.445   6.203   8.397  1.00  0.00     0.098 A 
HETATM   10  C7  UNK     1      13.634   5.484   8.288  1.00  0.00     0.040 A 
HETATM   11  C8  UNK     1      15.905   8.931  10.845  1.00  0.00     0.090 A 
HETATM   12  C9  UNK     1      17.321   7.034  10.120  1.00  0.00     0.049 C 
HETATM   13  C10 UNK     1      14.641   9.679  10.951  1.00  0.00     0.288 A 
ENDROOT
BRANCH   9  14
HETATM   14  O2  UNK     1      11.329   5.683   7.812  1.00  0.00    -0.278 OA
BRANCH  14  15
HETATM   15  C11 UNK     1      11.150   6.070   6.475  1.00  0.00     0.260 C 
HETATM   16  O4  UNK     1      12.041   6.367   5.690  1.00  0.00    -0.265 OA
HETATM   17  C12 UNK     1       9.689   6.075   6.135  1.00  0.00     0.126 C 
ENDBRANCH  14  15
ENDBRANCH   9  14
TORSDOF 2
ENDMDL
MODEL 9
REMARK VINA RESULT:      -6.3      7.595      9.625
REMARK  2 active torsions:
REMARK  status: ('A' for Active; 'I' for Inactive)
REMARK    1  A    between atoms: C11_16  and  O2_3 
REMARK    2  A    between atoms: C6_11  and  O2_3 
ROOT
HETATM    1  I1  UNK     1      19.994  -4.077  36.365  1.00  0.00    -0.039 I 
HETATM    2  O1  UNK     1      22.157  -5.522  38.167  1.00  0.00    -0.273 OA
HETATM    3  O3  UNK     1      24.327  -5.201  38.811  1.00  0.00    -0.260 OA
HETATM    4  C1  UNK     1      20.949  -7.486  38.974  1.00  0.00     0.005 A 
HETATM    5  C2  UNK     1      20.990  -6.311  38.222  1.00  0.00     0.109 A 
HETATM    6  C3  UNK     1      22.152  -7.891  39.712  1.00  0.00    -0.043 A 
HETATM    7  C4  UNK     1      19.751  -8.214  38.977  1.00  0.00     0.017 A 
HETATM    8  C5  UNK     1      19.892  -5.855  37.491  1.00  0.00     0.075 A 
HETATM    9  C6  UNK     1      18.712  -6.591  37.507  1.00  0.00     0.098 A 
HETATM   10  C7  UNK     1      18.642  -7.769  38.249  1.00  0.00     0.040 A 
HETATM   11  C8  UNK     1      23.248  -7.122  39.642  1.00  0.00     0.090 A 
HETATM   12  C9  UNK     1      22.140  -9.150  40.530  1.00  0.00     0.049 C 
HETATM   13  C10 UNK     1      23.307  -5.879  38.853  1.00  0.00     0.288 A 
ENDROOT
BRANCH   9  14
HETATM   14  O2  UNK     1      17.603  -6.204  36.816  1.00  0.00    -0.278 OA
BRANCH  14  15
HETATM   15  C11 UNK     1      17.408  -6.898  35.612  1.00  0.00     0.260 C 
HETATM   16  O4  UNK     1      18.291  -7.351  34.896  1.00  0.00    -0.265 OA
HETATM   17  C12 UNK     1      15.942  -7.005  35.314  1.00  0.00     0.126 C 
ENDBRANCH  14  15
ENDBRANCH   9  14
TORSDOF 2
ENDMDL
MODEL 10
REMARK VINA RESULT:      -6.2     14.477     17.530
REMARK  2 active torsions:
REMARK  status: ('A' for Active; 'I' for Inactive)
REMARK    1  A    between atoms: C11_16  and  O2_3 
REMARK    2  A    between atoms: C6_11  and  O2_3 
ROOT
HETATM    1  I1  UNK     1      12.646  12.677  20.631  1.00  0.00    -0.039 I 
HETATM    2  O1  UNK     1      12.626  10.549  22.972  1.00  0.00    -0.273 OA
HETATM    3  O3  UNK     1      12.439  10.524  25.250  1.00  0.00    -0.260 OA
HETATM    4  C1  UNK     1      12.905   8.439  21.773  1.00  0.00     0.005 A 
HETATM    5  C2  UNK     1      12.788   9.829  21.770  1.00  0.00     0.109 A 
HETATM    6  C3  UNK     1      12.857   7.731  23.058  1.00  0.00    -0.043 A 
HETATM    7  C4  UNK     1      13.062   7.798  20.535  1.00  0.00     0.017 A 
HETATM    8  C5  UNK     1      12.823  10.579  20.593  1.00  0.00     0.075 A 
HETATM    9  C6  UNK     1      12.979   9.925  19.376  1.00  0.00     0.098 A 
HETATM   10  C7  UNK     1      13.099   8.536  19.347  1.00  0.00     0.040 A 
HETATM   11  C8  UNK     1      12.703   8.440  24.186  1.00  0.00     0.090 A 
HETATM   12  C9  UNK     1      12.979   6.235  23.094  1.00  0.00     0.049 C 
HETATM   13  C10 UNK     1      12.578   9.908  24.200  1.00  0.00     0.288 A 
ENDROOT
BRANCH   9  14
HETATM   14  O2  UNK     1      13.022  10.594  18.190  1.00  0.00    -0.278 OA
BRANCH  14  15
HETATM   15  C11 UNK     1      14.215  10.412  17.473  1.00  0.00     0.260 C 
HETATM   16  O4  UNK     1      14.427   9.536  16.645  1.00  0.00    -0.265 OA
HETATM   17  C12 UNK     1      15.216  11.456  17.872  1.00  0.00     0.126 C 
ENDBRANCH  14  15
ENDBRANCH   9  14
TORSDOF 2
ENDMDL
