MODEL 1
REMARK VINA RESULT:      -9.2      0.000      0.000
REMARK  6 active torsions:
REMARK  status: ('A' for Active; 'I' for Inactive)
REMARK       I    between atoms: C14_21  and  N1_6 
REMARK    1  A    between atoms: C2_9  and  N1_6 
REMARK    2  A    between atoms: C13_20  and  N2_7 
REMARK    3  A    between atoms: C1_8  and  C8_15 
REMARK    4  A    between atoms: C7_14  and  C9_16 
REMARK    5  A    between atoms: C10_17  and  C8_15 
REMARK    6  A    between atoms: C14_21  and  C15_22 
ROOT
HETATM    1  C1  UNK     1      18.514   3.410  30.011  1.00  0.00     0.014 A 
HETATM    2  C2  UNK     1      18.851   5.734  31.520  1.00  0.00     0.035 A 
HETATM    3  C3  UNK     1      18.994   4.572  29.406  1.00  0.00     0.018 A 
HETATM    4  C4  UNK     1      18.202   3.411  31.371  1.00  0.00     0.018 A 
HETATM    5  C5  UNK     1      19.163   5.734  30.160  1.00  0.00     0.030 A 
HETATM    6  C6  UNK     1      18.371   4.572  32.125  1.00  0.00     0.030 A 
ENDROOT
BRANCH   1   7
HETATM    7  C8  UNK     1      18.339   2.199  29.226  1.00  0.00     0.182 C 
HETATM    8  O2  UNK     1      17.952   2.254  28.050  1.00  0.00    -0.288 OA
BRANCH   7   9
HETATM    9  C10 UNK     1      18.609   0.873  29.879  1.00  0.00     0.056 C 
HETATM   10  C9  UNK     1      19.864   0.416  30.004  1.00  0.00     0.015 C 
BRANCH  10  11
HETATM   11  C7  UNK     1      20.225  -0.876  30.614  1.00  0.00    -0.034 A 
HETATM   12  C11 UNK     1      20.088  -1.043  31.982  1.00  0.00     0.047 A 
HETATM   13  C13 UNK     1      20.429  -2.266  32.559  1.00  0.00     0.103 A 
HETATM   14  C17 UNK     1      20.902  -3.307  31.760  1.00  0.00     0.036 A 
HETATM   15  C16 UNK     1      21.035  -3.124  30.383  1.00  0.00     0.003 A 
HETATM   16  C12 UNK     1      20.694  -1.900  29.806  1.00  0.00     0.011 A 
BRANCH  13  17
HETATM   17  N2  UNK     1      20.294  -2.453  33.961  1.00  0.00    -0.116 N 
HETATM   18  O4  UNK     1      20.451  -3.603  34.439  1.00  0.00    -0.532 OA
HETATM   19  O5  UNK     1      20.023  -1.464  34.682  1.00  0.00    -0.532 OA
ENDBRANCH  13  17
ENDBRANCH  10  11
ENDBRANCH   7   9
ENDBRANCH   1   7
BRANCH   2  20
HETATM   20  N1  UNK     1      19.020   6.895  32.275  1.00  0.00    -0.321 N 
HETATM   21  C14 UNK     1      18.032   7.779  32.754  1.00  0.00     0.279 C 
HETATM   22  O3  UNK     1      16.827   7.634  32.556  1.00  0.00    -0.265 OA
HETATM   23  H5  UNK     1      19.984   7.129  32.500  1.00  0.00     0.169 HD
BRANCH  21  24
HETATM   24  C15 UNK     1      18.544   8.947  33.492  1.00  0.00     0.142 A 
HETATM   25  C18 UNK     1      19.648   9.074  34.247  1.00  0.00     0.045 A 
HETATM   26  C19 UNK     1      19.618  10.416  34.696  1.00  0.00     0.027 A 
HETATM   27  C20 UNK     1      18.481  10.974  34.158  1.00  0.00     0.143 A 
HETATM   28  O1  UNK     1      17.810  10.061  33.407  1.00  0.00    -0.317 OA
ENDBRANCH  21  24
ENDBRANCH   2  20
TORSDOF 6
ENDMDL
MODEL 2
REMARK VINA RESULT:      -9.1      5.119      8.851
REMARK  6 active torsions:
REMARK  status: ('A' for Active; 'I' for Inactive)
REMARK       I    between atoms: C14_21  and  N1_6 
REMARK    1  A    between atoms: C2_9  and  N1_6 
REMARK    2  A    between atoms: C13_20  and  N2_7 
REMARK    3  A    between atoms: C1_8  and  C8_15 
REMARK    4  A    between atoms: C7_14  and  C9_16 
REMARK    5  A    between atoms: C10_17  and  C8_15 
REMARK    6  A    between atoms: C14_21  and  C15_22 
ROOT
HETATM    1  C1  UNK     1      19.880  -2.815  35.563  1.00  0.00     0.014 A 
HETATM    2  C2  UNK     1      19.180  -1.164  33.426  1.00  0.00     0.035 A 
HETATM    3  C3  UNK     1      18.988  -1.761  35.759  1.00  0.00     0.018 A 
HETATM    4  C4  UNK     1      20.423  -3.043  34.298  1.00  0.00     0.018 A 
HETATM    5  C5  UNK     1      18.637  -0.936  34.690  1.00  0.00     0.030 A 
HETATM    6  C6  UNK     1      20.073  -2.218  33.230  1.00  0.00     0.030 A 
ENDROOT
BRANCH   1   7
HETATM    7  C8  UNK     1      20.245  -3.677  36.676  1.00  0.00     0.182 C 
HETATM    8  O2  UNK     1      20.523  -3.199  37.786  1.00  0.00    -0.288 OA
BRANCH   7   9
HETATM    9  C10 UNK     1      20.307  -5.161  36.448  1.00  0.00     0.056 C 
HETATM   10  C9  UNK     1      19.931  -6.017  37.410  1.00  0.00     0.015 C 
BRANCH  10  11
HETATM   11  C7  UNK     1      19.971  -7.484  37.284  1.00  0.00    -0.034 A 
HETATM   12  C11 UNK     1      20.912  -8.070  36.452  1.00  0.00     0.047 A 
HETATM   13  C13 UNK     1      20.950  -9.458  36.335  1.00  0.00     0.103 A 
HETATM   14  C17 UNK     1      20.048 -10.245  37.051  1.00  0.00     0.036 A 
HETATM   15  C16 UNK     1      19.106  -9.641  37.884  1.00  0.00     0.003 A 
HETATM   16  C12 UNK     1      19.067  -8.251  38.002  1.00  0.00     0.011 A 
BRANCH  13  17
HETATM   17  N2  UNK     1      21.908 -10.074  35.485  1.00  0.00    -0.116 N 
HETATM   18  O4  UNK     1      21.691 -10.110  34.250  1.00  0.00    -0.532 OA
HETATM   19  O5  UNK     1      22.945 -10.564  35.993  1.00  0.00    -0.532 OA
ENDBRANCH  13  17
ENDBRANCH  10  11
ENDBRANCH   7   9
ENDBRANCH   1   7
BRANCH   2  20
HETATM   20  N1  UNK     1      18.830  -0.339  32.356  1.00  0.00    -0.321 N 
HETATM   21  C14 UNK     1      19.655   0.157  31.327  1.00  0.00     0.279 C 
HETATM   22  O3  UNK     1      20.857  -0.086  31.233  1.00  0.00    -0.265 OA
HETATM   23  H5  UNK     1      17.852  -0.060  32.326  1.00  0.00     0.169 HD
BRANCH  21  24
HETATM   24  C15 UNK     1      18.984   1.046  30.362  1.00  0.00     0.142 A 
HETATM   25  C18 UNK     1      18.878   0.947  29.027  1.00  0.00     0.045 A 
HETATM   26  C19 UNK     1      18.126   2.084  28.645  1.00  0.00     0.027 A 
HETATM   27  C20 UNK     1      17.849   2.766  29.807  1.00  0.00     0.143 A 
HETATM   28  O1  UNK     1      18.382   2.122  30.878  1.00  0.00    -0.317 OA
ENDBRANCH  21  24
ENDBRANCH   2  20
TORSDOF 6
ENDMDL
MODEL 3
REMARK VINA RESULT:      -9.1      4.400     10.608
REMARK  6 active torsions:
REMARK  status: ('A' for Active; 'I' for Inactive)
REMARK       I    between atoms: C14_21  and  N1_6 
REMARK    1  A    between atoms: C2_9  and  N1_6 
REMARK    2  A    between atoms: C13_20  and  N2_7 
REMARK    3  A    between atoms: C1_8  and  C8_15 
REMARK    4  A    between atoms: C7_14  and  C9_16 
REMARK    5  A    between atoms: C10_17  and  C8_15 
REMARK    6  A    between atoms: C14_21  and  C15_22 
ROOT
HETATM    1  C1  UNK     1      18.209   0.054  36.217  1.00  0.00     0.014 A 
HETATM    2  C2  UNK     1      19.282  -2.353  37.132  1.00  0.00     0.035 A 
HETATM    3  C3  UNK     1      17.777  -0.487  37.428  1.00  0.00     0.018 A 
HETATM    4  C4  UNK     1      19.178  -0.609  35.463  1.00  0.00     0.018 A 
HETATM    5  C5  UNK     1      18.313  -1.690  37.886  1.00  0.00     0.030 A 
HETATM    6  C6  UNK     1      19.715  -1.812  35.921  1.00  0.00     0.030 A 
ENDROOT
BRANCH   1   7
HETATM    7  C8  UNK     1      17.651   1.310  35.740  1.00  0.00     0.182 C 
HETATM    8  O2  UNK     1      16.968   2.027  36.485  1.00  0.00    -0.288 OA
BRANCH   7   9
HETATM    9  C10 UNK     1      17.894   1.708  34.311  1.00  0.00     0.056 C 
HETATM   10  C9  UNK     1      18.134   2.989  33.991  1.00  0.00     0.015 C 
BRANCH  10  11
HETATM   11  C7  UNK     1      18.368   3.477  32.620  1.00  0.00    -0.034 A 
HETATM   12  C11 UNK     1      18.391   2.572  31.571  1.00  0.00     0.047 A 
HETATM   13  C13 UNK     1      18.611   3.034  30.275  1.00  0.00     0.103 A 
HETATM   14  C17 UNK     1      18.805   4.396  30.043  1.00  0.00     0.036 A 
HETATM   15  C16 UNK     1      18.781   5.295  31.109  1.00  0.00     0.003 A 
HETATM   16  C12 UNK     1      18.560   4.833  32.407  1.00  0.00     0.011 A 
BRANCH  13  17
HETATM   17  N2  UNK     1      18.637   2.119  29.188  1.00  0.00    -0.116 N 
HETATM   18  O4  UNK     1      19.387   1.115  29.257  1.00  0.00    -0.532 OA
HETATM   19  O5  UNK     1      17.910   2.339  28.190  1.00  0.00    -0.532 OA
ENDBRANCH  13  17
ENDBRANCH  10  11
ENDBRANCH   7   9
ENDBRANCH   1   7
BRANCH   2  20
HETATM   20  N1  UNK     1      19.819  -3.557  37.589  1.00  0.00    -0.321 N 
HETATM   21  C14 UNK     1      20.243  -4.670  36.835  1.00  0.00     0.279 C 
HETATM   22  O3  UNK     1      20.191  -4.726  35.608  1.00  0.00    -0.265 OA
HETATM   23  H5  UNK     1      19.908  -3.636  38.600  1.00  0.00     0.169 HD
BRANCH  21  24
HETATM   24  C15 UNK     1      20.728  -5.814  37.626  1.00  0.00     0.142 A 
HETATM   25  C18 UNK     1      20.306  -6.283  38.811  1.00  0.00     0.045 A 
HETATM   26  C19 UNK     1      21.144  -7.394  39.072  1.00  0.00     0.027 A 
HETATM   27  C20 UNK     1      22.002  -7.484  38.000  1.00  0.00     0.143 A 
HETATM   28  O1  UNK     1      21.745  -6.501  37.098  1.00  0.00    -0.317 OA
ENDBRANCH  21  24
ENDBRANCH   2  20
TORSDOF 6
ENDMDL
MODEL 4
REMARK VINA RESULT:      -9.1      2.541      9.936
REMARK  6 active torsions:
REMARK  status: ('A' for Active; 'I' for Inactive)
REMARK       I    between atoms: C14_21  and  N1_6 
REMARK    1  A    between atoms: C2_9  and  N1_6 
REMARK    2  A    between atoms: C13_20  and  N2_7 
REMARK    3  A    between atoms: C1_8  and  C8_15 
REMARK    4  A    between atoms: C7_14  and  C9_16 
REMARK    5  A    between atoms: C10_17  and  C8_15 
REMARK    6  A    between atoms: C14_21  and  C15_22 
ROOT
HETATM    1  C1  UNK     1      18.806   0.955  31.786  1.00  0.00     0.014 A 
HETATM    2  C2  UNK     1      19.143  -1.181  33.550  1.00  0.00     0.035 A 
HETATM    3  C3  UNK     1      19.389  -0.233  31.342  1.00  0.00     0.018 A 
HETATM    4  C4  UNK     1      18.392   1.074  33.113  1.00  0.00     0.018 A 
HETATM    5  C5  UNK     1      19.557  -1.301  32.224  1.00  0.00     0.030 A 
HETATM    6  C6  UNK     1      18.560   0.006  33.995  1.00  0.00     0.030 A 
ENDROOT
BRANCH   1   7
HETATM    7  C8  UNK     1      18.630   2.067  30.867  1.00  0.00     0.182 C 
HETATM    8  O2  UNK     1      18.814   1.922  29.649  1.00  0.00    -0.288 OA
BRANCH   7   9
HETATM    9  C10 UNK     1      18.248   3.409  31.426  1.00  0.00     0.056 C 
HETATM   10  C9  UNK     1      19.185   4.336  31.679  1.00  0.00     0.015 C 
BRANCH  10  11
HETATM   11  C7  UNK     1      18.909   5.670  32.240  1.00  0.00    -0.034 A 
HETATM   12  C11 UNK     1      17.755   6.339  31.865  1.00  0.00     0.047 A 
HETATM   13  C13 UNK     1      17.494   7.601  32.397  1.00  0.00     0.103 A 
HETATM   14  C17 UNK     1      18.389   8.178  33.298  1.00  0.00     0.036 A 
HETATM   15  C16 UNK     1      19.547   7.492  33.665  1.00  0.00     0.003 A 
HETATM   16  C12 UNK     1      19.809   6.229  33.133  1.00  0.00     0.011 A 
BRANCH  13  17
HETATM   17  N2  UNK     1      16.315   8.301  32.023  1.00  0.00    -0.116 N 
HETATM   18  O4  UNK     1      15.565   8.753  32.921  1.00  0.00    -0.532 OA
HETATM   19  O5  UNK     1      16.058   8.447  30.804  1.00  0.00    -0.532 OA
ENDBRANCH  13  17
ENDBRANCH  10  11
ENDBRANCH   7   9
ENDBRANCH   1   7
BRANCH   2  20
HETATM   20  N1  UNK     1      19.310  -2.248  34.433  1.00  0.00    -0.321 N 
HETATM   21  C14 UNK     1      20.407  -2.526  35.273  1.00  0.00     0.279 C 
HETATM   22  O3  UNK     1      21.415  -1.825  35.340  1.00  0.00    -0.265 OA
HETATM   23  H5  UNK     1      18.537  -2.910  34.464  1.00  0.00     0.169 HD
BRANCH  21  24
HETATM   24  C15 UNK     1      20.292  -3.766  36.061  1.00  0.00     0.142 A 
HETATM   25  C18 UNK     1      20.336  -3.950  37.391  1.00  0.00     0.045 A 
HETATM   26  C19 UNK     1      20.171  -5.346  37.561  1.00  0.00     0.027 A 
HETATM   27  C20 UNK     1      20.041  -5.872  36.297  1.00  0.00     0.143 A 
HETATM   28  O1  UNK     1      20.116  -4.890  35.360  1.00  0.00    -0.317 OA
ENDBRANCH  21  24
ENDBRANCH   2  20
TORSDOF 6
ENDMDL
MODEL 5
REMARK VINA RESULT:      -8.7      4.380     10.893
REMARK  6 active torsions:
REMARK  status: ('A' for Active; 'I' for Inactive)
REMARK       I    between atoms: C14_21  and  N1_6 
REMARK    1  A    between atoms: C2_9  and  N1_6 
REMARK    2  A    between atoms: C13_20  and  N2_7 
REMARK    3  A    between atoms: C1_8  and  C8_15 
REMARK    4  A    between atoms: C7_14  and  C9_16 
REMARK    5  A    between atoms: C10_17  and  C8_15 
REMARK    6  A    between atoms: C14_21  and  C15_22 
ROOT
HETATM    1  C1  UNK     1      18.111  -0.422  35.404  1.00  0.00     0.014 A 
HETATM    2  C2  UNK     1      19.530  -2.446  36.699  1.00  0.00     0.035 A 
HETATM    3  C3  UNK     1      17.820  -0.739  36.731  1.00  0.00     0.018 A 
HETATM    4  C4  UNK     1      19.112  -1.116  34.724  1.00  0.00     0.018 A 
HETATM    5  C5  UNK     1      18.529  -1.751  37.378  1.00  0.00     0.030 A 
HETATM    6  C6  UNK     1      19.822  -2.128  35.372  1.00  0.00     0.030 A 
ENDROOT
BRANCH   1   7
HETATM    7  C8  UNK     1      17.373   0.633  34.729  1.00  0.00     0.182 C 
HETATM    8  O2  UNK     1      16.225   0.436  34.305  1.00  0.00    -0.288 OA
BRANCH   7   9
HETATM    9  C10 UNK     1      18.041   1.964  34.528  1.00  0.00     0.056 C 
HETATM   10  C9  UNK     1      17.825   2.675  33.411  1.00  0.00     0.015 C 
BRANCH  10  11
HETATM   11  C7  UNK     1      18.446   3.979  33.118  1.00  0.00    -0.034 A 
HETATM   12  C11 UNK     1      18.527   4.414  31.805  1.00  0.00     0.047 A 
HETATM   13  C13 UNK     1      19.113   5.649  31.529  1.00  0.00     0.103 A 
HETATM   14  C17 UNK     1      19.611   6.433  32.569  1.00  0.00     0.036 A 
HETATM   15  C16 UNK     1      19.523   5.982  33.886  1.00  0.00     0.003 A 
HETATM   16  C12 UNK     1      18.936   4.746  34.163  1.00  0.00     0.011 A 
BRANCH  13  17
HETATM   17  N2  UNK     1      19.204   6.109  30.188  1.00  0.00    -0.116 N 
HETATM   18  O4  UNK     1      20.330   6.155  29.636  1.00  0.00    -0.532 OA
HETATM   19  O5  UNK     1      18.156   6.455  29.592  1.00  0.00    -0.532 OA
ENDBRANCH  13  17
ENDBRANCH  10  11
ENDBRANCH   7   9
ENDBRANCH   1   7
BRANCH   2  20
HETATM   20  N1  UNK     1      20.241  -3.457  37.345  1.00  0.00    -0.321 N 
HETATM   21  C14 UNK     1      20.055  -4.852  37.258  1.00  0.00     0.279 C 
HETATM   22  O3  UNK     1      19.194  -5.386  36.561  1.00  0.00    -0.265 OA
HETATM   23  H5  UNK     1      20.984  -3.138  37.963  1.00  0.00     0.169 HD
BRANCH  21  24
HETATM   24  C15 UNK     1      20.951  -5.656  38.107  1.00  0.00     0.142 A 
HETATM   25  C18 UNK     1      20.664  -6.644  38.971  1.00  0.00     0.045 A 
HETATM   26  C19 UNK     1      21.921  -7.037  39.490  1.00  0.00     0.027 A 
HETATM   27  C20 UNK     1      22.855  -6.235  38.877  1.00  0.00     0.143 A 
HETATM   28  O1  UNK     1      22.253  -5.374  38.015  1.00  0.00    -0.317 OA
ENDBRANCH  21  24
ENDBRANCH   2  20
TORSDOF 6
ENDMDL
MODEL 6
REMARK VINA RESULT:      -8.5      7.404     11.762
REMARK  6 active torsions:
REMARK  status: ('A' for Active; 'I' for Inactive)
REMARK       I    between atoms: C14_21  and  N1_6 
REMARK    1  A    between atoms: C2_9  and  N1_6 
REMARK    2  A    between atoms: C13_20  and  N2_7 
REMARK    3  A    between atoms: C1_8  and  C8_15 
REMARK    4  A    between atoms: C7_14  and  C9_16 
REMARK    5  A    between atoms: C10_17  and  C8_15 
REMARK    6  A    between atoms: C14_21  and  C15_22 
ROOT
HETATM    1  C1  UNK     1      21.358  -7.036  37.336  1.00  0.00     0.014 A 
HETATM    2  C2  UNK     1      20.054  -4.711  36.510  1.00  0.00     0.035 A 
HETATM    3  C3  UNK     1      21.474  -5.866  38.088  1.00  0.00     0.018 A 
HETATM    4  C4  UNK     1      20.591  -7.043  36.172  1.00  0.00     0.018 A 
HETATM    5  C5  UNK     1      20.822  -4.704  37.675  1.00  0.00     0.030 A 
HETATM    6  C6  UNK     1      19.938  -5.881  35.759  1.00  0.00     0.030 A 
ENDROOT
BRANCH   1   7
HETATM    7  C8  UNK     1      22.036  -8.247  37.767  1.00  0.00     0.182 C 
HETATM    8  O2  UNK     1      21.393  -9.236  38.149  1.00  0.00    -0.288 OA
BRANCH   7   9
HETATM    9  C10 UNK     1      23.539  -8.269  37.769  1.00  0.00     0.056 C 
HETATM   10  C9  UNK     1      24.227  -7.815  38.828  1.00  0.00     0.015 C 
BRANCH  10  11
HETATM   11  C7  UNK     1      25.698  -7.782  38.916  1.00  0.00    -0.034 A 
HETATM   12  C11 UNK     1      26.368  -6.598  38.652  1.00  0.00     0.047 A 
HETATM   13  C13 UNK     1      27.759  -6.567  38.737  1.00  0.00     0.103 A 
HETATM   14  C17 UNK     1      28.463  -7.720  39.084  1.00  0.00     0.036 A 
HETATM   15  C16 UNK     1      27.775  -8.904  39.346  1.00  0.00     0.003 A 
HETATM   16  C12 UNK     1      26.383  -8.936  39.262  1.00  0.00     0.011 A 
BRANCH  13  17
HETATM   17  N2  UNK     1      28.461  -5.361  38.469  1.00  0.00    -0.116 N 
HETATM   18  O4  UNK     1      29.458  -5.394  37.708  1.00  0.00    -0.532 OA
HETATM   19  O5  UNK     1      28.064  -4.296  39.000  1.00  0.00    -0.532 OA
ENDBRANCH  13  17
ENDBRANCH  10  11
ENDBRANCH   7   9
ENDBRANCH   1   7
BRANCH   2  20
HETATM   20  N1  UNK     1      19.402  -3.550  36.096  1.00  0.00    -0.321 N 
HETATM   21  C14 UNK     1      19.964  -2.366  35.579  1.00  0.00     0.279 C 
HETATM   22  O3  UNK     1      21.171  -2.194  35.416  1.00  0.00    -0.265 OA
HETATM   23  H5  UNK     1      18.388  -3.566  36.189  1.00  0.00     0.169 HD
BRANCH  21  24
HETATM   24  C15 UNK     1      18.998  -1.296  35.273  1.00  0.00     0.142 A 
HETATM   25  C18 UNK     1      17.939  -0.864  35.976  1.00  0.00     0.045 A 
HETATM   26  C19 UNK     1      17.393   0.179  35.190  1.00  0.00     0.027 A 
HETATM   27  C20 UNK     1      18.190   0.273  34.073  1.00  0.00     0.143 A 
HETATM   28  O1  UNK     1      19.191  -0.645  34.122  1.00  0.00    -0.317 OA
ENDBRANCH  21  24
ENDBRANCH   2  20
TORSDOF 6
ENDMDL
MODEL 7
REMARK VINA RESULT:      -8.5      3.281      4.205
REMARK  6 active torsions:
REMARK  status: ('A' for Active; 'I' for Inactive)
REMARK       I    between atoms: C14_21  and  N1_6 
REMARK    1  A    between atoms: C2_9  and  N1_6 
REMARK    2  A    between atoms: C13_20  and  N2_7 
REMARK    3  A    between atoms: C1_8  and  C8_15 
REMARK    4  A    between atoms: C7_14  and  C9_16 
REMARK    5  A    between atoms: C10_17  and  C8_15 
REMARK    6  A    between atoms: C14_21  and  C15_22 
ROOT
HETATM    1  C1  UNK     1      18.107   5.009  33.033  1.00  0.00     0.014 A 
HETATM    2  C2  UNK     1      18.081   7.783  33.333  1.00  0.00     0.035 A 
HETATM    3  C3  UNK     1      19.069   5.635  33.827  1.00  0.00     0.018 A 
HETATM    4  C4  UNK     1      17.133   5.771  32.388  1.00  0.00     0.018 A 
HETATM    5  C5  UNK     1      19.055   7.022  33.977  1.00  0.00     0.030 A 
HETATM    6  C6  UNK     1      17.119   7.158  32.538  1.00  0.00     0.030 A 
ENDROOT
BRANCH   1   7
HETATM    7  C8  UNK     1      18.121   3.564  32.877  1.00  0.00     0.182 C 
HETATM    8  O2  UNK     1      17.974   3.042  31.762  1.00  0.00    -0.288 OA
BRANCH   7   9
HETATM    9  C10 UNK     1      18.286   2.709  34.103  1.00  0.00     0.056 C 
HETATM   10  C9  UNK     1      17.881   1.430  34.104  1.00  0.00     0.015 C 
BRANCH  10  11
HETATM   11  C7  UNK     1      17.988   0.522  35.259  1.00  0.00    -0.034 A 
HETATM   12  C11 UNK     1      18.815  -0.587  35.178  1.00  0.00     0.047 A 
HETATM   13  C13 UNK     1      18.916  -1.445  36.272  1.00  0.00     0.103 A 
HETATM   14  C17 UNK     1      18.190  -1.184  37.434  1.00  0.00     0.036 A 
HETATM   15  C16 UNK     1      17.361  -0.064  37.501  1.00  0.00     0.003 A 
HETATM   16  C12 UNK     1      17.259   0.796  36.406  1.00  0.00     0.011 A 
BRANCH  13  17
HETATM   17  N2  UNK     1      19.759  -2.587  36.204  1.00  0.00    -0.116 N 
HETATM   18  O4  UNK     1      20.925  -2.456  35.760  1.00  0.00    -0.532 OA
HETATM   19  O5  UNK     1      19.313  -3.694  36.590  1.00  0.00    -0.532 OA
ENDBRANCH  13  17
ENDBRANCH  10  11
ENDBRANCH   7   9
ENDBRANCH   1   7
BRANCH   2  20
HETATM   20  N1  UNK     1      18.066   9.170  33.482  1.00  0.00    -0.321 N 
HETATM   21  C14 UNK     1      17.198   9.958  34.264  1.00  0.00     0.279 C 
HETATM   22  O3  UNK     1      16.291   9.499  34.955  1.00  0.00    -0.265 OA
HETATM   23  H5  UNK     1      18.773   9.671  32.948  1.00  0.00     0.169 HD
BRANCH  21  24
HETATM   24  C15 UNK     1      17.419  11.412  34.172  1.00  0.00     0.142 A 
HETATM   25  C18 UNK     1      16.736  12.425  34.728  1.00  0.00     0.045 A 
HETATM   26  C19 UNK     1      17.408  13.591  34.288  1.00  0.00     0.027 A 
HETATM   27  C20 UNK     1      18.447  13.157  33.498  1.00  0.00     0.143 A 
HETATM   28  O1  UNK     1      18.456  11.800  33.424  1.00  0.00    -0.317 OA
ENDBRANCH  21  24
ENDBRANCH   2  20
TORSDOF 6
ENDMDL
MODEL 8
REMARK VINA RESULT:      -8.4      3.707      5.459
REMARK  6 active torsions:
REMARK  status: ('A' for Active; 'I' for Inactive)
REMARK       I    between atoms: C14_21  and  N1_6 
REMARK    1  A    between atoms: C2_9  and  N1_6 
REMARK    2  A    between atoms: C13_20  and  N2_7 
REMARK    3  A    between atoms: C1_8  and  C8_15 
REMARK    4  A    between atoms: C7_14  and  C9_16 
REMARK    5  A    between atoms: C10_17  and  C8_15 
REMARK    6  A    between atoms: C14_21  and  C15_22 
ROOT
HETATM    1  C1  UNK     1      17.080   6.715  33.019  1.00  0.00     0.014 A 
HETATM    2  C2  UNK     1      15.261   8.824  32.851  1.00  0.00     0.035 A 
HETATM    3  C3  UNK     1      16.344   7.092  34.142  1.00  0.00     0.018 A 
HETATM    4  C4  UNK     1      16.907   7.392  31.812  1.00  0.00     0.018 A 
HETATM    5  C5  UNK     1      15.434   8.146  34.058  1.00  0.00     0.030 A 
HETATM    6  C6  UNK     1      15.997   8.446  31.728  1.00  0.00     0.030 A 
ENDROOT
BRANCH   1   7
HETATM    7  C8  UNK     1      18.028   5.615  33.105  1.00  0.00     0.182 C 
HETATM    8  O2  UNK     1      18.664   5.404  34.148  1.00  0.00    -0.288 OA
BRANCH   7   9
HETATM    9  C10 UNK     1      18.244   4.754  31.892  1.00  0.00     0.056 C 
HETATM   10  C9  UNK     1      18.262   3.417  31.998  1.00  0.00     0.015 C 
BRANCH  10  11
HETATM   11  C7  UNK     1      18.481   2.493  30.872  1.00  0.00    -0.034 A 
HETATM   12  C11 UNK     1      19.312   1.398  31.043  1.00  0.00     0.047 A 
HETATM   13  C13 UNK     1      19.518   0.523  29.977  1.00  0.00     0.103 A 
HETATM   14  C17 UNK     1      18.891   0.755  28.753  1.00  0.00     0.036 A 
HETATM   15  C16 UNK     1      18.058   1.862  28.595  1.00  0.00     0.003 A 
HETATM   16  C12 UNK     1      17.851   2.738  29.662  1.00  0.00     0.011 A 
BRANCH  13  17
HETATM   17  N2  UNK     1      20.368  -0.604  30.136  1.00  0.00    -0.116 N 
HETATM   18  O4  UNK     1      21.168  -0.631  31.103  1.00  0.00    -0.532 OA
HETATM   19  O5  UNK     1      20.295  -1.542  29.307  1.00  0.00    -0.532 OA
ENDBRANCH  13  17
ENDBRANCH  10  11
ENDBRANCH   7   9
ENDBRANCH   1   7
BRANCH   2  20
HETATM   20  N1  UNK     1      14.351   9.878  32.766  1.00  0.00    -0.321 N 
HETATM   21  C14 UNK     1      14.483  11.191  33.262  1.00  0.00     0.279 C 
HETATM   22  O3  UNK     1      15.471  11.599  33.868  1.00  0.00    -0.265 OA
HETATM   23  H5  UNK     1      13.480   9.661  32.286  1.00  0.00     0.169 HD
BRANCH  21  24
HETATM   24  C15 UNK     1      13.314  12.062  33.043  1.00  0.00     0.142 A 
HETATM   25  C18 UNK     1      13.228  13.246  32.416  1.00  0.00     0.045 A 
HETATM   26  C19 UNK     1      11.861  13.603  32.520  1.00  0.00     0.027 A 
HETATM   27  C20 UNK     1      11.251  12.581  33.210  1.00  0.00     0.143 A 
HETATM   28  O1  UNK     1      12.154  11.619  33.537  1.00  0.00    -0.317 OA
ENDBRANCH  21  24
ENDBRANCH   2  20
TORSDOF 6
ENDMDL
MODEL 9
REMARK VINA RESULT:      -8.4     22.831     24.787
REMARK  6 active torsions:
REMARK  status: ('A' for Active; 'I' for Inactive)
REMARK       I    between atoms: C14_21  and  N1_6 
REMARK    1  A    between atoms: C2_9  and  N1_6 
REMARK    2  A    between atoms: C13_20  and  N2_7 
REMARK    3  A    between atoms: C1_8  and  C8_15 
REMARK    4  A    between atoms: C7_14  and  C9_16 
REMARK    5  A    between atoms: C10_17  and  C8_15 
REMARK    6  A    between atoms: C14_21  and  C15_22 
ROOT
HETATM    1  C1  UNK     1      15.237   6.856  10.040  1.00  0.00     0.014 A 
HETATM    2  C2  UNK     1      17.041   8.983   9.970  1.00  0.00     0.035 A 
HETATM    3  C3  UNK     1      14.776   8.166  10.167  1.00  0.00     0.018 A 
HETATM    4  C4  UNK     1      16.600   6.608   9.879  1.00  0.00     0.018 A 
HETATM    5  C5  UNK     1      15.678   9.230  10.132  1.00  0.00     0.030 A 
HETATM    6  C6  UNK     1      17.502   7.672   9.843  1.00  0.00     0.030 A 
ENDROOT
BRANCH   1   7
HETATM    7  C8  UNK     1      14.296   5.747  10.076  1.00  0.00     0.182 C 
HETATM    8  O2  UNK     1      14.617   4.656  10.568  1.00  0.00    -0.288 OA
BRANCH   7   9
HETATM    9  C10 UNK     1      12.932   5.941   9.475  1.00  0.00     0.056 C 
HETATM   10  C9  UNK     1      12.752   5.855   8.149  1.00  0.00     0.015 C 
BRANCH  10  11
HETATM   11  C7  UNK     1      11.458   6.044   7.468  1.00  0.00    -0.034 A 
HETATM   12  C11 UNK     1      10.284   5.807   8.163  1.00  0.00     0.047 A 
HETATM   13  C13 UNK     1       9.060   5.987   7.519  1.00  0.00     0.103 A 
HETATM   14  C17 UNK     1       9.027   6.404   6.189  1.00  0.00     0.036 A 
HETATM   15  C16 UNK     1      10.218   6.639   5.502  1.00  0.00     0.003 A 
HETATM   16  C12 UNK     1      11.442   6.458   6.146  1.00  0.00     0.011 A 
BRANCH  13  17
HETATM   17  N2  UNK     1       7.847   5.747   8.218  1.00  0.00    -0.116 N 
HETATM   18  O4  UNK     1       7.410   4.573   8.292  1.00  0.00    -0.532 OA
HETATM   19  O5  UNK     1       7.245   6.715   8.742  1.00  0.00    -0.532 OA
ENDBRANCH  13  17
ENDBRANCH  10  11
ENDBRANCH   7   9
ENDBRANCH   1   7
BRANCH   2  20
HETATM   20  N1  UNK     1      17.945  10.045   9.934  1.00  0.00    -0.321 N 
HETATM   21  C14 UNK     1      18.020  11.100   9.003  1.00  0.00     0.279 C 
HETATM   22  O3  UNK     1      17.256  11.228   8.048  1.00  0.00    -0.265 OA
HETATM   23  H5  UNK     1      18.640  10.047  10.678  1.00  0.00     0.169 HD
BRANCH  21  24
HETATM   24  C15 UNK     1      19.126  12.049   9.221  1.00  0.00     0.142 A 
HETATM   25  C18 UNK     1      19.096  13.374   9.438  1.00  0.00     0.045 A 
HETATM   26  C19 UNK     1      20.456  13.742   9.576  1.00  0.00     0.027 A 
HETATM   27  C20 UNK     1      21.182  12.583   9.426  1.00  0.00     0.143 A 
HETATM   28  O1  UNK     1      20.356  11.527   9.205  1.00  0.00    -0.317 OA
ENDBRANCH  21  24
ENDBRANCH   2  20
TORSDOF 6
ENDMDL
MODEL 10
REMARK VINA RESULT:      -8.3      3.978     11.007
REMARK  6 active torsions:
REMARK  status: ('A' for Active; 'I' for Inactive)
REMARK       I    between atoms: C14_21  and  N1_6 
REMARK    1  A    between atoms: C2_9  and  N1_6 
REMARK    2  A    between atoms: C13_20  and  N2_7 
REMARK    3  A    between atoms: C1_8  and  C8_15 
REMARK    4  A    between atoms: C7_14  and  C9_16 
REMARK    5  A    between atoms: C10_17  and  C8_15 
REMARK    6  A    between atoms: C14_21  and  C15_22 
ROOT
HETATM    1  C1  UNK     1      18.567  -0.211  36.324  1.00  0.00     0.014 A 
HETATM    2  C2  UNK     1      19.094  -2.948  36.203  1.00  0.00     0.035 A 
HETATM    3  C3  UNK     1      17.872  -1.093  37.152  1.00  0.00     0.018 A 
HETATM    4  C4  UNK     1      19.526  -0.698  35.435  1.00  0.00     0.018 A 
HETATM    5  C5  UNK     1      18.136  -2.461  37.092  1.00  0.00     0.030 A 
HETATM    6  C6  UNK     1      19.790  -2.067  35.375  1.00  0.00     0.030 A 
ENDROOT
BRANCH   1   7
HETATM    7  C8  UNK     1      18.293   1.216  36.387  1.00  0.00     0.182 C 
HETATM    8  O2  UNK     1      17.747   1.716  37.381  1.00  0.00    -0.288 OA
BRANCH   7   9
HETATM    9  C10 UNK     1      18.659   2.072  35.207  1.00  0.00     0.056 C 
HETATM   10  C9  UNK     1      17.910   2.058  34.094  1.00  0.00     0.015 C 
BRANCH  10  11
HETATM   11  C7  UNK     1      18.197   2.849  32.885  1.00  0.00    -0.034 A 
HETATM   12  C11 UNK     1      18.205   4.232  32.963  1.00  0.00     0.047 A 
HETATM   13  C13 UNK     1      18.479   4.980  31.819  1.00  0.00     0.103 A 
HETATM   14  C17 UNK     1      18.741   4.335  30.609  1.00  0.00     0.036 A 
HETATM   15  C16 UNK     1      18.728   2.942  30.546  1.00  0.00     0.003 A 
HETATM   16  C12 UNK     1      18.455   2.193  31.691  1.00  0.00     0.011 A 
BRANCH  13  17
HETATM   17  N2  UNK     1      18.490   6.399  31.882  1.00  0.00    -0.116 N 
HETATM   18  O4  UNK     1      19.379   6.971  32.559  1.00  0.00    -0.532 OA
HETATM   19  O5  UNK     1      17.612   7.042  31.260  1.00  0.00    -0.532 OA
ENDBRANCH  13  17
ENDBRANCH  10  11
ENDBRANCH   7   9
ENDBRANCH   1   7
BRANCH   2  20
HETATM   20  N1  UNK     1      19.359  -4.317  36.143  1.00  0.00    -0.321 N 
HETATM   21  C14 UNK     1      20.421  -5.031  36.733  1.00  0.00     0.279 C 
HETATM   22  O3  UNK     1      21.301  -4.510  37.417  1.00  0.00    -0.265 OA
HETATM   23  H5  UNK     1      18.698  -4.862  35.593  1.00  0.00     0.169 HD
BRANCH  21  24
HETATM   24  C15 UNK     1      20.442  -6.475  36.441  1.00  0.00     0.142 A 
HETATM   25  C18 UNK     1      20.065  -7.514  37.204  1.00  0.00     0.045 A 
HETATM   26  C19 UNK     1      20.312  -8.652  36.400  1.00  0.00     0.027 A 
HETATM   27  C20 UNK     1      20.823  -8.178  35.213  1.00  0.00     0.143 A 
HETATM   28  O1  UNK     1      20.904  -6.822  35.237  1.00  0.00    -0.317 OA
ENDBRANCH  21  24
ENDBRANCH   2  20
TORSDOF 6
ENDMDL
