MODEL 1
REMARK VINA RESULT:      -9.3      0.000      0.000
REMARK  4 active torsions:
REMARK  status: ('A' for Active; 'I' for Inactive)
REMARK    1  A    between atoms: C5_9  and  N1_3 
REMARK    2  A    between atoms: C6_10  and  N2_4 
REMARK    3  A    between atoms: C5_9  and  C7_11 
REMARK    4  A    between atoms: C18_22  and  C23_27 
ROOT
HETATM    1  N1  UNK     1      20.135  -4.164  36.575  1.00  0.00     0.095 N 
HETATM    2  N2  UNK     1      20.007  -6.960  37.148  1.00  0.00    -0.377 N 
HETATM    3  C1  UNK     1      18.860  -4.885  36.477  1.00  0.00     0.292 C 
HETATM    4  C2  UNK     1      20.954  -4.740  37.649  1.00  0.00     0.292 C 
HETATM    5  C3  UNK     1      19.088  -6.368  36.170  1.00  0.00     0.153 C 
HETATM    6  C4  UNK     1      21.252  -6.217  37.381  1.00  0.00     0.153 C 
ENDROOT
BRANCH   1   7
HETATM    7  C5  UNK     1      19.902  -2.741  36.814  1.00  0.00     0.312 C 
BRANCH   7   8
HETATM    8  C7  UNK     1      19.752  -2.118  35.457  1.00  0.00    -0.011 A 
HETATM    9  C12 UNK     1      20.339  -2.656  34.379  1.00  0.00     0.092 A 
HETATM   10  C19 UNK     1      20.219  -2.082  33.028  1.00  0.00     0.288 A 
HETATM   11  O1  UNK     1      19.456  -0.931  32.906  1.00  0.00    -0.275 OA
HETATM   12  O2  UNK     1      20.772  -2.602  32.066  1.00  0.00    -0.260 OA
HETATM   13  C13 UNK     1      18.826  -0.342  34.021  1.00  0.00     0.090 A 
HETATM   14  C9  UNK     1      18.949  -0.898  35.295  1.00  0.00     0.007 A 
HETATM   15  C20 UNK     1      18.083   0.815  33.780  1.00  0.00     0.039 A 
HETATM   16  C15 UNK     1      18.292  -0.252  36.352  1.00  0.00     0.022 A 
HETATM   17  C18 UNK     1      17.543   0.909  36.126  1.00  0.00    -0.058 A 
HETATM   18  C22 UNK     1      17.439   1.441  34.842  1.00  0.00     0.010 A 
BRANCH  17  19
HETATM   19  C23 UNK     1      16.854   1.580  37.266  1.00  0.00     0.034 C 
HETATM   20  C24 UNK     1      17.575   1.359  38.591  1.00  0.00     0.010 C 
ENDBRANCH  17  19
ENDBRANCH   7   8
ENDBRANCH   1   7
BRANCH   2  21
HETATM   21  C6  UNK     1      20.025  -8.347  37.332  1.00  0.00     0.036 A 
HETATM   22  C10 UNK     1      19.343  -8.896  38.419  1.00  0.00     0.030 A 
HETATM   23  C16 UNK     1      19.349 -10.276  38.621  1.00  0.00     0.003 A 
HETATM   24  C17 UNK     1      20.037 -11.107  37.737  1.00  0.00     0.007 A 
HETATM   25  C11 UNK     1      20.719 -10.558  36.651  1.00  0.00    -0.054 A 
HETATM   26  C8  UNK     1      20.712  -9.178  36.449  1.00  0.00    -0.029 A 
HETATM   27  C21 UNK     1      21.447 -11.470  35.719  1.00  0.00     0.049 C 
HETATM   28  C14 UNK     1      21.444  -8.592  35.282  1.00  0.00     0.051 C 
ENDBRANCH   2  21
TORSDOF 4
ENDMDL
MODEL 2
REMARK VINA RESULT:      -9.3      1.614      3.517
REMARK  4 active torsions:
REMARK  status: ('A' for Active; 'I' for Inactive)
REMARK    1  A    between atoms: C5_9  and  N1_3 
REMARK    2  A    between atoms: C6_10  and  N2_4 
REMARK    3  A    between atoms: C5_9  and  C7_11 
REMARK    4  A    between atoms: C18_22  and  C23_27 
ROOT
HETATM    1  N1  UNK     1      20.289  -4.031  37.087  1.00  0.00     0.095 N 
HETATM    2  N2  UNK     1      20.236  -6.881  37.269  1.00  0.00    -0.377 N 
HETATM    3  C1  UNK     1      21.301  -4.744  37.876  1.00  0.00     0.292 C 
HETATM    4  C2  UNK     1      19.898  -4.842  35.927  1.00  0.00     0.292 C 
HETATM    5  C3  UNK     1      20.759  -6.083  38.383  1.00  0.00     0.153 C 
HETATM    6  C4  UNK     1      19.309  -6.184  36.369  1.00  0.00     0.153 C 
ENDROOT
BRANCH   1   7
HETATM    7  C5  UNK     1      20.799  -2.730  36.655  1.00  0.00     0.312 C 
BRANCH   7   8
HETATM    8  C7  UNK     1      19.598  -1.946  36.216  1.00  0.00    -0.011 A 
HETATM    9  C12 UNK     1      18.728  -1.454  37.109  1.00  0.00     0.092 A 
HETATM   10  C19 UNK     1      17.535  -0.679  36.727  1.00  0.00     0.288 A 
HETATM   11  O1  UNK     1      17.338  -0.469  35.370  1.00  0.00    -0.275 OA
HETATM   12  O2  UNK     1      16.761  -0.245  37.572  1.00  0.00    -0.260 OA
HETATM   13  C13 UNK     1      18.235  -0.973  34.408  1.00  0.00     0.090 A 
HETATM   14  C9  UNK     1      19.360  -1.707  34.786  1.00  0.00     0.007 A 
HETATM   15  C20 UNK     1      17.935  -0.701  33.071  1.00  0.00     0.039 A 
HETATM   16  C15 UNK     1      20.203  -2.174  33.768  1.00  0.00     0.022 A 
HETATM   17  C18 UNK     1      19.917  -1.910  32.424  1.00  0.00    -0.058 A 
HETATM   18  C22 UNK     1      18.784  -1.174  32.077  1.00  0.00     0.010 A 
BRANCH  17  19
HETATM   19  C23 UNK     1      20.827  -2.418  31.357  1.00  0.00     0.034 C 
HETATM   20  C24 UNK     1      20.385  -1.986  29.962  1.00  0.00     0.010 C 
ENDBRANCH  17  19
ENDBRANCH   7   8
ENDBRANCH   1   7
BRANCH   2  21
HETATM   21  C6  UNK     1      20.096  -8.266  37.413  1.00  0.00     0.036 A 
HETATM   22  C10 UNK     1      19.303  -8.765  38.447  1.00  0.00     0.030 A 
HETATM   23  C16 UNK     1      19.151 -10.142  38.607  1.00  0.00     0.003 A 
HETATM   24  C17 UNK     1      19.792 -11.020  37.734  1.00  0.00     0.007 A 
HETATM   25  C11 UNK     1      20.586 -10.522  36.700  1.00  0.00    -0.054 A 
HETATM   26  C8  UNK     1      20.737  -9.144  36.540  1.00  0.00    -0.029 A 
HETATM   27  C21 UNK     1      21.260 -11.484  35.780  1.00  0.00     0.049 C 
HETATM   28  C14 UNK     1      21.589  -8.612  35.430  1.00  0.00     0.051 C 
ENDBRANCH   2  21
TORSDOF 4
ENDMDL
MODEL 3
REMARK VINA RESULT:      -8.8      7.176     10.722
REMARK  4 active torsions:
REMARK  status: ('A' for Active; 'I' for Inactive)
REMARK    1  A    between atoms: C5_9  and  N1_3 
REMARK    2  A    between atoms: C6_10  and  N2_4 
REMARK    3  A    between atoms: C5_9  and  C7_11 
REMARK    4  A    between atoms: C18_22  and  C23_27 
ROOT
HETATM    1  N1  UNK     1      26.484  -7.567  38.536  1.00  0.00     0.095 N 
HETATM    2  N2  UNK     1      29.130  -6.658  37.958  1.00  0.00    -0.377 N 
HETATM    3  C1  UNK     1      27.197  -8.060  37.352  1.00  0.00     0.292 C 
HETATM    4  C2  UNK     1      27.437  -7.316  39.625  1.00  0.00     0.292 C 
HETATM    5  C3  UNK     1      28.229  -7.039  36.866  1.00  0.00     0.153 C 
HETATM    6  C4  UNK     1      28.476  -6.270  39.214  1.00  0.00     0.153 C 
ENDROOT
BRANCH   1   7
HETATM    7  C5  UNK     1      25.464  -8.526  38.959  1.00  0.00     0.312 C 
BRANCH   7   8
HETATM    8  C7  UNK     1      24.175  -8.037  38.369  1.00  0.00    -0.011 A 
HETATM    9  C12 UNK     1      23.635  -6.871  38.753  1.00  0.00     0.092 A 
HETATM   10  C19 UNK     1      22.372  -6.350  38.202  1.00  0.00     0.288 A 
HETATM   11  O1  UNK     1      21.742  -7.129  37.244  1.00  0.00    -0.275 OA
HETATM   12  O2  UNK     1      21.908  -5.280  38.579  1.00  0.00    -0.260 OA
HETATM   13  C13 UNK     1      22.285  -8.358  36.819  1.00  0.00     0.090 A 
HETATM   14  C9  UNK     1      23.483  -8.839  37.351  1.00  0.00     0.007 A 
HETATM   15  C20 UNK     1      21.564  -9.058  35.850  1.00  0.00     0.039 A 
HETATM   16  C15 UNK     1      23.955 -10.071  36.876  1.00  0.00     0.022 A 
HETATM   17  C18 UNK     1      23.245 -10.784  35.904  1.00  0.00    -0.058 A 
HETATM   18  C22 UNK     1      22.051 -10.278  35.392  1.00  0.00     0.010 A 
BRANCH  17  19
HETATM   19  C23 UNK     1      23.767 -12.093  35.414  1.00  0.00     0.034 C 
HETATM   20  C24 UNK     1      24.931 -12.604  36.256  1.00  0.00     0.010 C 
ENDBRANCH  17  19
ENDBRANCH   7   8
ENDBRANCH   1   7
BRANCH   2  21
HETATM   21  C6  UNK     1      30.377  -6.097  37.665  1.00  0.00     0.036 A 
HETATM   22  C10 UNK     1      30.444  -4.762  37.265  1.00  0.00     0.030 A 
HETATM   23  C16 UNK     1      31.679  -4.184  36.968  1.00  0.00     0.003 A 
HETATM   24  C17 UNK     1      32.845  -4.940  37.071  1.00  0.00     0.007 A 
HETATM   25  C11 UNK     1      32.779  -6.275  37.470  1.00  0.00    -0.054 A 
HETATM   26  C8  UNK     1      31.544  -6.853  37.767  1.00  0.00    -0.029 A 
HETATM   27  C21 UNK     1      34.044  -7.062  37.572  1.00  0.00     0.049 C 
HETATM   28  C14 UNK     1      31.476  -8.285  38.196  1.00  0.00     0.051 C 
ENDBRANCH   2  21
TORSDOF 4
ENDMDL
MODEL 4
REMARK VINA RESULT:      -8.7     11.384     14.533
REMARK  4 active torsions:
REMARK  status: ('A' for Active; 'I' for Inactive)
REMARK    1  A    between atoms: C5_9  and  N1_3 
REMARK    2  A    between atoms: C6_10  and  N2_4 
REMARK    3  A    between atoms: C5_9  and  C7_11 
REMARK    4  A    between atoms: C18_22  and  C23_27 
ROOT
HETATM    1  N1  UNK     1      32.858  -7.900  33.735  1.00  0.00     0.095 N 
HETATM    2  N2  UNK     1      31.344  -6.759  35.871  1.00  0.00    -0.377 N 
HETATM    3  C1  UNK     1      33.242  -8.143  35.130  1.00  0.00     0.292 C 
HETATM    4  C2  UNK     1      31.398  -7.785  33.631  1.00  0.00     0.292 C 
HETATM    5  C3  UNK     1      32.782  -6.998  36.035  1.00  0.00     0.153 C 
HETATM    6  C4  UNK     1      30.876  -6.627  34.486  1.00  0.00     0.153 C 
ENDROOT
BRANCH   1   7
HETATM    7  C5  UNK     1      33.351  -8.973  32.872  1.00  0.00     0.312 C 
BRANCH   7   8
HETATM    8  C7  UNK     1      33.611  -8.338  31.538  1.00  0.00    -0.011 A 
HETATM    9  C12 UNK     1      34.634  -7.489  31.362  1.00  0.00     0.092 A 
HETATM   10  C19 UNK     1      34.928  -6.842  30.072  1.00  0.00     0.288 A 
HETATM   11  O1  UNK     1      34.086  -7.150  29.014  1.00  0.00    -0.275 OA
HETATM   12  O2  UNK     1      35.872  -6.070  29.949  1.00  0.00    -0.260 OA
HETATM   13  C13 UNK     1      33.003  -8.038  29.169  1.00  0.00     0.090 A 
HETATM   14  C9  UNK     1      32.736  -8.643  30.398  1.00  0.00     0.007 A 
HETATM   15  C20 UNK     1      32.222  -8.274  28.035  1.00  0.00     0.039 A 
HETATM   16  C15 UNK     1      31.640  -9.514  30.468  1.00  0.00     0.022 A 
HETATM   17  C18 UNK     1      30.848  -9.761  29.341  1.00  0.00    -0.058 A 
HETATM   18  C22 UNK     1      31.139  -9.141  28.127  1.00  0.00     0.010 A 
BRANCH  17  19
HETATM   19  C23 UNK     1      29.685 -10.691  29.440  1.00  0.00     0.034 C 
HETATM   20  C24 UNK     1      28.605 -10.380  28.409  1.00  0.00     0.010 C 
ENDBRANCH  17  19
ENDBRANCH   7   8
ENDBRANCH   1   7
BRANCH   2  21
HETATM   21  C6  UNK     1      30.634  -6.086  36.871  1.00  0.00     0.036 A 
HETATM   22  C10 UNK     1      30.828  -4.715  37.037  1.00  0.00     0.030 A 
HETATM   23  C16 UNK     1      30.130  -4.026  38.030  1.00  0.00     0.003 A 
HETATM   24  C17 UNK     1      29.237  -4.709  38.854  1.00  0.00     0.007 A 
HETATM   25  C11 UNK     1      29.042  -6.080  38.689  1.00  0.00    -0.054 A 
HETATM   26  C8  UNK     1      29.741  -6.768  37.697  1.00  0.00    -0.029 A 
HETATM   27  C21 UNK     1      28.079  -6.786  39.586  1.00  0.00     0.049 C 
HETATM   28  C14 UNK     1      29.529  -8.240  37.521  1.00  0.00     0.051 C 
ENDBRANCH   2  21
TORSDOF 4
ENDMDL
MODEL 5
REMARK VINA RESULT:      -8.7     10.618     12.369
REMARK  4 active torsions:
REMARK  status: ('A' for Active; 'I' for Inactive)
REMARK    1  A    between atoms: C5_9  and  N1_3 
REMARK    2  A    between atoms: C6_10  and  N2_4 
REMARK    3  A    between atoms: C5_9  and  C7_11 
REMARK    4  A    between atoms: C18_22  and  C23_27 
ROOT
HETATM    1  N1  UNK     1      29.969  -8.646  35.400  1.00  0.00     0.095 N 
HETATM    2  N2  UNK     1      29.502  -9.064  32.613  1.00  0.00    -0.377 N 
HETATM    3  C1  UNK     1      29.800 -10.004  34.870  1.00  0.00     0.292 C 
HETATM    4  C2  UNK     1      30.633  -7.799  34.401  1.00  0.00     0.292 C 
HETATM    5  C3  UNK     1      28.948  -9.997  33.599  1.00  0.00     0.153 C 
HETATM    6  C4  UNK     1      29.808  -7.718  33.114  1.00  0.00     0.153 C 
ENDROOT
BRANCH   1   7
HETATM    7  C5  UNK     1      30.738  -8.672  36.644  1.00  0.00     0.312 C 
BRANCH   7   8
HETATM    8  C7  UNK     1      29.863  -8.028  37.678  1.00  0.00    -0.011 A 
HETATM    9  C12 UNK     1      28.988  -8.750  38.393  1.00  0.00     0.092 A 
HETATM   10  C19 UNK     1      28.110  -8.162  39.419  1.00  0.00     0.288 A 
HETATM   11  O1  UNK     1      28.222  -6.796  39.626  1.00  0.00    -0.275 OA
HETATM   12  O2  UNK     1      27.321  -8.854  40.052  1.00  0.00    -0.260 OA
HETATM   13  C13 UNK     1      29.132  -6.011  38.890  1.00  0.00     0.090 A 
HETATM   14  C9  UNK     1      29.957  -6.582  37.921  1.00  0.00     0.007 A 
HETATM   15  C20 UNK     1      29.158  -4.645  39.183  1.00  0.00     0.039 A 
HETATM   16  C15 UNK     1      30.835  -5.732  37.232  1.00  0.00     0.022 A 
HETATM   17  C18 UNK     1      30.873  -4.362  37.514  1.00  0.00    -0.058 A 
HETATM   18  C22 UNK     1      30.035  -3.820  38.488  1.00  0.00     0.010 A 
BRANCH  17  19
HETATM   19  C23 UNK     1      31.814  -3.477  36.768  1.00  0.00     0.034 C 
HETATM   20  C24 UNK     1      32.663  -4.250  35.764  1.00  0.00     0.010 C 
ENDBRANCH  17  19
ENDBRANCH   7   8
ENDBRANCH   1   7
BRANCH   2  21
HETATM   21  C6  UNK     1      29.168  -9.201  31.262  1.00  0.00     0.036 A 
HETATM   22  C10 UNK     1      27.892  -8.830  30.837  1.00  0.00     0.030 A 
HETATM   23  C16 UNK     1      27.538  -8.960  29.493  1.00  0.00     0.003 A 
HETATM   24  C17 UNK     1      28.461  -9.460  28.576  1.00  0.00     0.007 A 
HETATM   25  C11 UNK     1      29.736  -9.832  29.000  1.00  0.00    -0.054 A 
HETATM   26  C8  UNK     1      30.089  -9.702  30.343  1.00  0.00    -0.029 A 
HETATM   27  C21 UNK     1      30.704 -10.365  27.996  1.00  0.00     0.049 C 
HETATM   28  C14 UNK     1      31.459 -10.101  30.795  1.00  0.00     0.051 C 
ENDBRANCH   2  21
TORSDOF 4
ENDMDL
MODEL 6
REMARK VINA RESULT:      -8.7      6.897     10.489
REMARK  4 active torsions:
REMARK  status: ('A' for Active; 'I' for Inactive)
REMARK    1  A    between atoms: C5_9  and  N1_3 
REMARK    2  A    between atoms: C6_10  and  N2_4 
REMARK    3  A    between atoms: C5_9  and  C7_11 
REMARK    4  A    between atoms: C18_22  and  C23_27 
ROOT
HETATM    1  N1  UNK     1      17.839   5.069  31.936  1.00  0.00     0.095 N 
HETATM    2  N2  UNK     1      18.547   2.327  32.308  1.00  0.00    -0.377 N 
HETATM    3  C1  UNK     1      18.438   4.621  33.199  1.00  0.00     0.292 C 
HETATM    4  C2  UNK     1      18.381   4.285  30.820  1.00  0.00     0.292 C 
HETATM    5  C3  UNK     1      18.138   3.142  33.456  1.00  0.00     0.153 C 
HETATM    6  C4  UNK     1      18.079   2.795  30.997  1.00  0.00     0.153 C 
ENDROOT
BRANCH   1   7
HETATM    7  C5  UNK     1      18.086   6.496  31.729  1.00  0.00     0.312 C 
BRANCH   7   8
HETATM    8  C7  UNK     1      16.839   7.196  32.181  1.00  0.00    -0.011 A 
HETATM    9  C12 UNK     1      15.625   6.706  31.891  1.00  0.00     0.092 A 
HETATM   10  C19 UNK     1      14.374   7.357  32.313  1.00  0.00     0.288 A 
HETATM   11  O1  UNK     1      14.497   8.529  33.043  1.00  0.00    -0.275 OA
HETATM   12  O2  UNK     1      13.281   6.880  32.027  1.00  0.00    -0.260 OA
HETATM   13  C13 UNK     1      15.759   9.068  33.364  1.00  0.00     0.090 A 
HETATM   14  C9  UNK     1      16.936   8.440  32.956  1.00  0.00     0.007 A 
HETATM   15  C20 UNK     1      15.762  10.253  34.103  1.00  0.00     0.039 A 
HETATM   16  C15 UNK     1      18.151   9.041  33.316  1.00  0.00     0.022 A 
HETATM   17  C18 UNK     1      18.171  10.228  34.056  1.00  0.00    -0.058 A 
HETATM   18  C22 UNK     1      16.978  10.832  34.449  1.00  0.00     0.010 A 
BRANCH  17  19
HETATM   19  C23 UNK     1      19.476  10.849  34.427  1.00  0.00     0.034 C 
HETATM   20  C24 UNK     1      20.599   9.822  34.529  1.00  0.00     0.010 C 
ENDBRANCH  17  19
ENDBRANCH   7   8
ENDBRANCH   1   7
BRANCH   2  21
HETATM   21  C6  UNK     1      18.772   0.956  32.475  1.00  0.00     0.036 A 
HETATM   22  C10 UNK     1      18.390   0.346  33.670  1.00  0.00     0.030 A 
HETATM   23  C16 UNK     1      18.605  -1.020  33.856  1.00  0.00     0.003 A 
HETATM   24  C17 UNK     1      19.203  -1.775  32.847  1.00  0.00     0.007 A 
HETATM   25  C11 UNK     1      19.585  -1.165  31.652  1.00  0.00    -0.054 A 
HETATM   26  C8  UNK     1      19.369   0.201  31.466  1.00  0.00    -0.029 A 
HETATM   27  C21 UNK     1      20.222  -1.997  30.588  1.00  0.00     0.049 C 
HETATM   28  C14 UNK     1      19.780   0.852  30.183  1.00  0.00     0.051 C 
ENDBRANCH   2  21
TORSDOF 4
ENDMDL
MODEL 7
REMARK VINA RESULT:      -8.5     11.027     13.727
REMARK  4 active torsions:
REMARK  status: ('A' for Active; 'I' for Inactive)
REMARK    1  A    between atoms: C5_9  and  N1_3 
REMARK    2  A    between atoms: C6_10  and  N2_4 
REMARK    3  A    between atoms: C5_9  and  C7_11 
REMARK    4  A    between atoms: C18_22  and  C23_27 
ROOT
HETATM    1  N1  UNK     1      31.032  -6.249  35.565  1.00  0.00     0.095 N 
HETATM    2  N2  UNK     1      33.555  -7.127  34.553  1.00  0.00    -0.377 N 
HETATM    3  C1  UNK     1      31.574  -5.680  34.325  1.00  0.00     0.292 C 
HETATM    4  C2  UNK     1      31.430  -7.657  35.685  1.00  0.00     0.292 C 
HETATM    5  C3  UNK     1      33.103  -5.753  34.309  1.00  0.00     0.153 C 
HETATM    6  C4  UNK     1      32.954  -7.796  35.714  1.00  0.00     0.153 C 
ENDROOT
BRANCH   1   7
HETATM    7  C5  UNK     1      29.575  -6.124  35.593  1.00  0.00     0.312 C 
BRANCH   7   8
HETATM    8  C7  UNK     1      29.202  -6.021  37.042  1.00  0.00    -0.011 A 
HETATM    9  C12 UNK     1      29.569  -4.963  37.779  1.00  0.00     0.092 A 
HETATM   10  C19 UNK     1      29.226  -4.818  39.203  1.00  0.00     0.288 A 
HETATM   11  O1  UNK     1      28.488  -5.843  39.774  1.00  0.00    -0.275 OA
HETATM   12  O2  UNK     1      29.580  -3.836  39.846  1.00  0.00    -0.260 OA
HETATM   13  C13 UNK     1      28.088  -6.968  39.026  1.00  0.00     0.090 A 
HETATM   14  C9  UNK     1      28.421  -7.092  37.676  1.00  0.00     0.007 A 
HETATM   15  C20 UNK     1      27.348  -7.939  39.704  1.00  0.00     0.039 A 
HETATM   16  C15 UNK     1      27.985  -8.241  37.002  1.00  0.00     0.022 A 
HETATM   17  C18 UNK     1      27.243  -9.224  37.668  1.00  0.00    -0.058 A 
HETATM   18  C22 UNK     1      26.926  -9.072  39.017  1.00  0.00     0.010 A 
BRANCH  17  19
HETATM   19  C23 UNK     1      26.790 -10.439  36.931  1.00  0.00     0.034 C 
HETATM   20  C24 UNK     1      25.317 -10.366  36.542  1.00  0.00     0.010 C 
ENDBRANCH  17  19
ENDBRANCH   7   8
ENDBRANCH   1   7
BRANCH   2  21
HETATM   21  C6  UNK     1      34.842  -7.513  34.165  1.00  0.00     0.036 A 
HETATM   22  C10 UNK     1      35.936  -7.084  34.918  1.00  0.00     0.030 A 
HETATM   23  C16 UNK     1      37.228  -7.459  34.547  1.00  0.00     0.003 A 
HETATM   24  C17 UNK     1      37.425  -8.262  33.424  1.00  0.00     0.007 A 
HETATM   25  C11 UNK     1      36.332  -8.691  32.672  1.00  0.00    -0.054 A 
HETATM   26  C8  UNK     1      35.041  -8.316  33.043  1.00  0.00    -0.029 A 
HETATM   27  C21 UNK     1      36.573  -9.550  31.475  1.00  0.00     0.049 C 
HETATM   28  C14 UNK     1      33.869  -8.779  32.233  1.00  0.00     0.051 C 
ENDBRANCH   2  21
TORSDOF 4
ENDMDL
MODEL 8
REMARK VINA RESULT:      -8.5     10.505     12.386
REMARK  4 active torsions:
REMARK  status: ('A' for Active; 'I' for Inactive)
REMARK    1  A    between atoms: C5_9  and  N1_3 
REMARK    2  A    between atoms: C6_10  and  N2_4 
REMARK    3  A    between atoms: C5_9  and  C7_11 
REMARK    4  A    between atoms: C18_22  and  C23_27 
ROOT
HETATM    1  N1  UNK     1      30.918  -7.153  34.656  1.00  0.00     0.095 N 
HETATM    2  N2  UNK     1      29.922  -8.202  32.193  1.00  0.00    -0.377 N 
HETATM    3  C1  UNK     1      30.752  -8.600  34.478  1.00  0.00     0.292 C 
HETATM    4  C2  UNK     1      31.293  -6.532  33.379  1.00  0.00     0.292 C 
HETATM    5  C3  UNK     1      29.658  -8.906  33.452  1.00  0.00     0.153 C 
HETATM    6  C4  UNK     1      30.216  -6.769  32.317  1.00  0.00     0.153 C 
ENDROOT
BRANCH   1   7
HETATM    7  C5  UNK     1      31.927  -6.874  35.677  1.00  0.00     0.312 C 
BRANCH   7   8
HETATM    8  C7  UNK     1      31.460  -5.636  36.385  1.00  0.00    -0.011 A 
HETATM    9  C12 UNK     1      31.995  -4.438  36.111  1.00  0.00     0.092 A 
HETATM   10  C19 UNK     1      31.569  -3.196  36.779  1.00  0.00     0.288 A 
HETATM   11  O1  UNK     1      30.565  -3.313  37.728  1.00  0.00    -0.275 OA
HETATM   12  O2  UNK     1      32.082  -2.118  36.503  1.00  0.00    -0.260 OA
HETATM   13  C13 UNK     1      29.983  -4.558  38.037  1.00  0.00     0.090 A 
HETATM   14  C9  UNK     1      30.398  -5.727  37.396  1.00  0.00     0.007 A 
HETATM   15  C20 UNK     1      28.982  -4.556  39.010  1.00  0.00     0.039 A 
HETATM   16  C15 UNK     1      29.770  -6.926  37.761  1.00  0.00     0.022 A 
HETATM   17  C18 UNK     1      28.764  -6.940  38.734  1.00  0.00    -0.058 A 
HETATM   18  C22 UNK     1      28.371  -5.756  39.357  1.00  0.00     0.010 A 
BRANCH  17  19
HETATM   19  C23 UNK     1      28.110  -8.227  39.106  1.00  0.00     0.034 C 
HETATM   20  C24 UNK     1      28.859  -9.438  38.558  1.00  0.00     0.010 C 
ENDBRANCH  17  19
ENDBRANCH   7   8
ENDBRANCH   1   7
BRANCH   2  21
HETATM   21  C6  UNK     1      29.327  -8.651  31.009  1.00  0.00     0.036 A 
HETATM   22  C10 UNK     1      27.940  -8.579  30.876  1.00  0.00     0.030 A 
HETATM   23  C16 UNK     1      27.328  -9.022  29.703  1.00  0.00     0.003 A 
HETATM   24  C17 UNK     1      28.103  -9.535  28.664  1.00  0.00     0.007 A 
HETATM   25  C11 UNK     1      29.489  -9.607  28.796  1.00  0.00    -0.054 A 
HETATM   26  C8  UNK     1      30.101  -9.164  29.969  1.00  0.00    -0.029 A 
HETATM   27  C21 UNK     1      30.295 -10.161  27.668  1.00  0.00     0.049 C 
HETATM   28  C14 UNK     1      31.590  -9.241  30.108  1.00  0.00     0.051 C 
ENDBRANCH   2  21
TORSDOF 4
ENDMDL
MODEL 9
REMARK VINA RESULT:      -8.5     10.464     13.116
REMARK  4 active torsions:
REMARK  status: ('A' for Active; 'I' for Inactive)
REMARK    1  A    between atoms: C5_9  and  N1_3 
REMARK    2  A    between atoms: C6_10  and  N2_4 
REMARK    3  A    between atoms: C5_9  and  C7_11 
REMARK    4  A    between atoms: C18_22  and  C23_27 
ROOT
HETATM    1  N1  UNK     1      31.117  -7.415  32.867  1.00  0.00     0.095 N 
HETATM    2  N2  UNK     1      30.118  -6.804  35.472  1.00  0.00    -0.377 N 
HETATM    3  C1  UNK     1      30.322  -6.202  33.092  1.00  0.00     0.292 C 
HETATM    4  C2  UNK     1      31.921  -7.715  34.059  1.00  0.00     0.292 C 
HETATM    5  C3  UNK     1      29.375  -6.378  34.282  1.00  0.00     0.153 C 
HETATM    6  C4  UNK     1      31.027  -7.941  35.281  1.00  0.00     0.153 C 
ENDROOT
BRANCH   1   7
HETATM    7  C5  UNK     1      31.978  -7.255  31.695  1.00  0.00     0.312 C 
BRANCH   7   8
HETATM    8  C7  UNK     1      31.800  -8.504  30.884  1.00  0.00    -0.011 A 
HETATM    9  C12 UNK     1      32.816  -9.357  30.693  1.00  0.00     0.092 A 
HETATM   10  C19 UNK     1      32.690 -10.595  29.906  1.00  0.00     0.288 A 
HETATM   11  O1  UNK     1      31.445 -10.856  29.353  1.00  0.00    -0.275 OA
HETATM   12  O2  UNK     1      33.643 -11.350  29.751  1.00  0.00    -0.260 OA
HETATM   13  C13 UNK     1      30.358  -9.979  29.537  1.00  0.00     0.090 A 
HETATM   14  C9  UNK     1      30.494  -8.809  30.285  1.00  0.00     0.007 A 
HETATM   15  C20 UNK     1      29.152 -10.344  28.933  1.00  0.00     0.039 A 
HETATM   16  C15 UNK     1      29.364  -7.990  30.420  1.00  0.00     0.022 A 
HETATM   17  C18 UNK     1      28.149  -8.342  29.822  1.00  0.00    -0.058 A 
HETATM   18  C22 UNK     1      28.044  -9.517  29.080  1.00  0.00     0.010 A 
BRANCH  17  19
HETATM   19  C23 UNK     1      26.960  -7.454  29.979  1.00  0.00     0.034 C 
HETATM   20  C24 UNK     1      27.023  -6.621  31.255  1.00  0.00     0.010 C 
ENDBRANCH  17  19
ENDBRANCH   7   8
ENDBRANCH   1   7
BRANCH   2  21
HETATM   21  C6  UNK     1      29.563  -6.612  36.742  1.00  0.00     0.036 A 
HETATM   22  C10 UNK     1      28.732  -7.598  37.276  1.00  0.00     0.030 A 
HETATM   23  C16 UNK     1      28.169  -7.426  38.540  1.00  0.00     0.003 A 
HETATM   24  C17 UNK     1      28.437  -6.269  39.271  1.00  0.00     0.007 A 
HETATM   25  C11 UNK     1      29.267  -5.283  38.738  1.00  0.00    -0.054 A 
HETATM   26  C8  UNK     1      29.831  -5.456  37.473  1.00  0.00    -0.029 A 
HETATM   27  C21 UNK     1      29.537  -4.055  39.542  1.00  0.00     0.049 C 
HETATM   28  C14 UNK     1      30.722  -4.396  36.904  1.00  0.00     0.051 C 
ENDBRANCH   2  21
TORSDOF 4
ENDMDL
MODEL 10
REMARK VINA RESULT:      -8.5     10.706     13.073
REMARK  4 active torsions:
REMARK  status: ('A' for Active; 'I' for Inactive)
REMARK    1  A    between atoms: C5_9  and  N1_3 
REMARK    2  A    between atoms: C6_10  and  N2_4 
REMARK    3  A    between atoms: C5_9  and  C7_11 
REMARK    4  A    between atoms: C18_22  and  C23_27 
ROOT
HETATM    1  N1  UNK     1      32.004  -8.677  35.658  1.00  0.00     0.095 N 
HETATM    2  N2  UNK     1      31.390 -10.703  33.741  1.00  0.00    -0.377 N 
HETATM    3  C1  UNK     1      30.956  -9.666  35.933  1.00  0.00     0.292 C 
HETATM    4  C2  UNK     1      33.072  -9.289  34.858  1.00  0.00     0.292 C 
HETATM    5  C3  UNK     1      30.344 -10.195  34.634  1.00  0.00     0.153 C 
HETATM    6  C4  UNK     1      32.530  -9.804  33.522  1.00  0.00     0.153 C 
ENDROOT
BRANCH   1   7
HETATM    7  C5  UNK     1      32.543  -8.140  36.908  1.00  0.00     0.312 C 
BRANCH   7   8
HETATM    8  C7  UNK     1      32.374  -6.652  36.818  1.00  0.00    -0.011 A 
HETATM    9  C12 UNK     1      33.261  -5.892  36.160  1.00  0.00     0.092 A 
HETATM   10  C19 UNK     1      33.137  -4.429  36.045  1.00  0.00     0.288 A 
HETATM   11  O1  UNK     1      32.039  -3.847  36.659  1.00  0.00    -0.275 OA
HETATM   12  O2  UNK     1      33.969  -3.767  35.435  1.00  0.00    -0.260 OA
HETATM   13  C13 UNK     1      31.090  -4.619  37.358  1.00  0.00     0.090 A 
HETATM   14  C9  UNK     1      31.221  -6.005  37.459  1.00  0.00     0.007 A 
HETATM   15  C20 UNK     1      30.025  -3.926  37.937  1.00  0.00     0.039 A 
HETATM   16  C15 UNK     1      30.234  -6.700  38.172  1.00  0.00     0.022 A 
HETATM   17  C18 UNK     1      29.161  -6.020  38.757  1.00  0.00    -0.058 A 
HETATM   18  C22 UNK     1      29.057  -4.635  38.640  1.00  0.00     0.010 A 
BRANCH  17  19
HETATM   19  C23 UNK     1      28.123  -6.781  39.512  1.00  0.00     0.034 C 
HETATM   20  C24 UNK     1      28.114  -8.263  39.151  1.00  0.00     0.010 C 
ENDBRANCH  17  19
ENDBRANCH   7   8
ENDBRANCH   1   7
BRANCH   2  21
HETATM   21  C6  UNK     1      31.058 -11.603  32.723  1.00  0.00     0.036 A 
HETATM   22  C10 UNK     1      30.519 -11.112  31.533  1.00  0.00     0.030 A 
HETATM   23  C16 UNK     1      30.180 -11.993  30.505  1.00  0.00     0.003 A 
HETATM   24  C17 UNK     1      30.381 -13.363  30.667  1.00  0.00     0.007 A 
HETATM   25  C11 UNK     1      30.920 -13.854  31.856  1.00  0.00    -0.054 A 
HETATM   26  C8  UNK     1      31.258 -12.973  32.884  1.00  0.00    -0.029 A 
HETATM   27  C21 UNK     1      31.124 -15.326  32.003  1.00  0.00     0.049 C 
HETATM   28  C14 UNK     1      31.837 -13.503  34.159  1.00  0.00     0.051 C 
ENDBRANCH   2  21
TORSDOF 4
ENDMDL
