MODEL 1
REMARK VINA RESULT:     -10.2      0.000      0.000
REMARK  2 active torsions:
REMARK  status: ('A' for Active; 'I' for Inactive)
REMARK    1  A    between atoms: N1_6  and  N3_8 
REMARK       I    between atoms: C12_20  and  N3_8 
REMARK    2  A    between atoms: C12_20  and  C13_21 
ROOT
HETATM    1  S1  UNK     1      18.193   9.881  34.339  1.00  0.00    -0.073 SA
HETATM    2  O1  UNK     1      16.543   6.316  31.364  1.00  0.00    -0.265 OA
HETATM    3  N1  UNK     1      18.779   6.242  32.040  1.00  0.00    -0.203 N 
HETATM    4  N2  UNK     1      19.743   7.880  33.470  1.00  0.00    -0.226 NA
HETATM    5  C1  UNK     1      16.241   8.836  33.023  1.00  0.00    -0.026 A 
HETATM    6  C2  UNK     1      14.860   8.670  32.460  1.00  0.00     0.041 C 
HETATM    7  C3  UNK     1      13.831   9.554  33.179  1.00  0.00     0.005 C 
HETATM    8  C4  UNK     1      14.360  10.977  33.403  1.00  0.00     0.005 C 
HETATM    9  C5  UNK     1      15.622  10.977  34.278  1.00  0.00     0.047 C 
HETATM   10  C6  UNK     1      16.569   9.906  33.835  1.00  0.00    -0.008 A 
HETATM   11  C7  UNK     1      17.377   7.994  32.800  1.00  0.00     0.077 A 
HETATM   12  C8  UNK     1      18.506   8.447  33.466  1.00  0.00     0.116 A 
HETATM   13  C9  UNK     1      17.486   6.782  31.996  1.00  0.00     0.281 A 
HETATM   14  C10 UNK     1      19.841   6.795  32.758  1.00  0.00     0.126 A 
HETATM   15  C11 UNK     1      21.171   6.084  32.694  1.00  0.00     0.093 C 
ENDROOT
BRANCH   3  16
HETATM   16  N3  UNK     1      18.985   5.091  31.311  1.00  0.00    -0.255 N 
HETATM   17  C12 UNK     1      18.476   3.914  31.795  1.00  0.00     0.276 C 
HETATM   18  O3  UNK     1      17.838   3.750  32.829  1.00  0.00    -0.266 OA
HETATM   19  H9  UNK     1      19.488   5.197  30.436  1.00  0.00     0.191 HD
BRANCH  17  20
HETATM   20  C13 UNK     1      18.779   2.775  30.910  1.00  0.00     0.110 A 
HETATM   21  C14 UNK     1      19.190   1.652  31.509  1.00  0.00     0.037 A 
HETATM   22  C15 UNK     1      19.513   0.474  30.719  1.00  0.00    -0.001 A 
HETATM   23  C16 UNK     1      19.388   0.537  29.335  1.00  0.00     0.089 A 
HETATM   24  C18 UNK     1      19.946  -0.718  31.303  1.00  0.00     0.014 A 
HETATM   25  O2  UNK     1      18.953   1.722  28.710  1.00  0.00    -0.274 OA
HETATM   26  C19 UNK     1      19.682  -0.555  28.522  1.00  0.00     0.038 A 
HETATM   27  C17 UNK     1      18.636   2.865  29.439  1.00  0.00     0.304 A 
HETATM   28  O4  UNK     1      18.261   3.892  28.885  1.00  0.00    -0.259 OA
HETATM   29  C21 UNK     1      20.113  -1.741  29.112  1.00  0.00     0.003 A 
HETATM   30  C20 UNK     1      20.245  -1.823  30.500  1.00  0.00     0.001 A 
ENDBRANCH  17  20
ENDBRANCH   3  16
TORSDOF 2
ENDMDL
MODEL 2
REMARK VINA RESULT:     -10.0      7.593     12.388
REMARK  2 active torsions:
REMARK  status: ('A' for Active; 'I' for Inactive)
REMARK    1  A    between atoms: N1_6  and  N3_8 
REMARK       I    between atoms: C12_20  and  N3_8 
REMARK    2  A    between atoms: C12_20  and  C13_21 
ROOT
HETATM    1  S1  UNK     1      20.720  -6.957  39.035  1.00  0.00    -0.073 SA
HETATM    2  O1  UNK     1      20.264  -5.892  34.245  1.00  0.00    -0.265 OA
HETATM    3  N1  UNK     1      19.837  -4.198  35.799  1.00  0.00    -0.203 N 
HETATM    4  N2  UNK     1      20.006  -4.536  38.147  1.00  0.00    -0.226 NA
HETATM    5  C1  UNK     1      20.884  -7.723  36.581  1.00  0.00    -0.026 A 
HETATM    6  C2  UNK     1      21.101  -8.634  35.409  1.00  0.00     0.041 C 
HETATM    7  C3  UNK     1      21.848  -9.917  35.802  1.00  0.00     0.005 C 
HETATM    8  C4  UNK     1      21.296 -10.520  37.101  1.00  0.00     0.005 C 
HETATM    9  C5  UNK     1      21.447  -9.549  38.281  1.00  0.00     0.047 C 
HETATM   10  C6  UNK     1      21.030  -8.168  37.882  1.00  0.00    -0.008 A 
HETATM   11  C7  UNK     1      20.482  -6.350  36.552  1.00  0.00     0.077 A 
HETATM   12  C8  UNK     1      20.362  -5.809  37.823  1.00  0.00     0.116 A 
HETATM   13  C9  UNK     1      20.195  -5.495  35.405  1.00  0.00     0.281 A 
HETATM   14  C10 UNK     1      19.755  -3.769  37.125  1.00  0.00     0.126 A 
HETATM   15  C11 UNK     1      19.351  -2.336  37.372  1.00  0.00     0.093 C 
ENDROOT
BRANCH   3  16
HETATM   16  N3  UNK     1      19.547  -3.310  34.786  1.00  0.00    -0.255 N 
HETATM   17  C12 UNK     1      20.535  -2.459  34.362  1.00  0.00     0.276 C 
HETATM   18  O3  UNK     1      21.684  -2.386  34.785  1.00  0.00    -0.266 OA
HETATM   19  H9  UNK     1      18.612  -3.363  34.396  1.00  0.00     0.191 HD
BRANCH  17  20
HETATM   20  C13 UNK     1      20.075  -1.573  33.279  1.00  0.00     0.110 A 
HETATM   21  C14 UNK     1      20.473  -1.893  32.042  1.00  0.00     0.037 A 
HETATM   22  C15 UNK     1      20.070  -1.078  30.907  1.00  0.00    -0.001 A 
HETATM   23  C16 UNK     1      19.267   0.036  31.130  1.00  0.00     0.089 A 
HETATM   24  C18 UNK     1      20.463  -1.375  29.600  1.00  0.00     0.014 A 
HETATM   25  O2  UNK     1      18.849   0.367  32.433  1.00  0.00    -0.274 OA
HETATM   26  C19 UNK     1      18.847   0.857  30.086  1.00  0.00     0.038 A 
HETATM   27  C17 UNK     1      19.218  -0.394  33.539  1.00  0.00     0.304 A 
HETATM   28  O4  UNK     1      18.852  -0.096  34.670  1.00  0.00    -0.259 OA
HETATM   29  C21 UNK     1      19.243   0.555  28.786  1.00  0.00     0.003 A 
HETATM   30  C20 UNK     1      20.049  -0.560  28.542  1.00  0.00     0.001 A 
ENDBRANCH  17  20
ENDBRANCH   3  16
TORSDOF 2
ENDMDL
MODEL 3
REMARK VINA RESULT:      -9.7      6.888      9.274
REMARK  2 active torsions:
REMARK  status: ('A' for Active; 'I' for Inactive)
REMARK    1  A    between atoms: N1_6  and  N3_8 
REMARK       I    between atoms: C12_20  and  N3_8 
REMARK    2  A    between atoms: C12_20  and  C13_21 
ROOT
HETATM    1  S1  UNK     1      18.005   2.855  34.442  1.00  0.00    -0.073 SA
HETATM    2  O1  UNK     1      19.100  -1.768  33.130  1.00  0.00    -0.265 OA
HETATM    3  N1  UNK     1      18.634  -1.340  35.380  1.00  0.00    -0.203 N 
HETATM    4  N2  UNK     1      18.089   0.829  36.190  1.00  0.00    -0.226 NA
HETATM    5  C1  UNK     1      18.612   1.175  32.585  1.00  0.00    -0.026 A 
HETATM    6  C2  UNK     1      18.945   0.659  31.216  1.00  0.00     0.041 C 
HETATM    7  C3  UNK     1      18.576   1.662  30.113  1.00  0.00     0.005 C 
HETATM    8  C4  UNK     1      19.004   3.090  30.478  1.00  0.00     0.005 C 
HETATM    9  C5  UNK     1      18.309   3.576  31.759  1.00  0.00     0.047 C 
HETATM   10  C6  UNK     1      18.344   2.513  32.811  1.00  0.00    -0.008 A 
HETATM   11  C7  UNK     1      18.557   0.429  33.805  1.00  0.00     0.077 A 
HETATM   12  C8  UNK     1      18.230   1.223  34.894  1.00  0.00     0.116 A 
HETATM   13  C9  UNK     1      18.794  -0.993  34.031  1.00  0.00     0.281 A 
HETATM   14  C10 UNK     1      18.295  -0.440  36.392  1.00  0.00     0.126 A 
HETATM   15  C11 UNK     1      18.165  -0.984  37.794  1.00  0.00     0.093 C 
ENDROOT
BRANCH   3  16
HETATM   16  N3  UNK     1      18.835  -2.665  35.697  1.00  0.00    -0.255 N 
HETATM   17  C12 UNK     1      20.108  -3.078  35.999  1.00  0.00     0.276 C 
HETATM   18  O3  UNK     1      21.124  -2.392  36.023  1.00  0.00    -0.266 OA
HETATM   19  H9  UNK     1      18.009  -3.255  35.712  1.00  0.00     0.191 HD
BRANCH  17  20
HETATM   20  C13 UNK     1      20.163  -4.516  36.314  1.00  0.00     0.110 A 
HETATM   21  C14 UNK     1      20.089  -4.841  37.610  1.00  0.00     0.037 A 
HETATM   22  C15 UNK     1      20.135  -6.236  38.021  1.00  0.00    -0.001 A 
HETATM   23  C16 UNK     1      20.259  -7.220  37.046  1.00  0.00     0.089 A 
HETATM   24  C18 UNK     1      20.061  -6.620  39.361  1.00  0.00     0.014 A 
HETATM   25  O2  UNK     1      20.335  -6.872  35.684  1.00  0.00    -0.274 OA
HETATM   26  C19 UNK     1      20.310  -8.573  37.373  1.00  0.00     0.038 A 
HETATM   27  C17 UNK     1      20.293  -5.547  35.260  1.00  0.00     0.304 A 
HETATM   28  O4  UNK     1      20.362  -5.254  34.071  1.00  0.00    -0.259 OA
HETATM   29  C21 UNK     1      20.235  -8.949  38.712  1.00  0.00     0.003 A 
HETATM   30  C20 UNK     1      20.111  -7.974  39.705  1.00  0.00     0.001 A 
ENDBRANCH  17  20
ENDBRANCH   3  16
TORSDOF 2
ENDMDL
MODEL 4
REMARK VINA RESULT:      -9.6     16.353     21.060
REMARK  2 active torsions:
REMARK  status: ('A' for Active; 'I' for Inactive)
REMARK    1  A    between atoms: N1_6  and  N3_8 
REMARK       I    between atoms: C12_20  and  N3_8 
REMARK    2  A    between atoms: C12_20  and  C13_21 
ROOT
HETATM    1  S1  UNK     1      20.132  -7.617  11.626  1.00  0.00    -0.073 SA
HETATM    2  O1  UNK     1      18.716  -2.918  12.080  1.00  0.00    -0.265 OA
HETATM    3  N1  UNK     1      19.964  -3.868  13.814  1.00  0.00    -0.203 N 
HETATM    4  N2  UNK     1      20.728  -6.120  13.763  1.00  0.00    -0.226 NA
HETATM    5  C1  UNK     1      18.919  -5.574  10.630  1.00  0.00    -0.026 A 
HETATM    6  C2  UNK     1      18.119  -4.753   9.662  1.00  0.00     0.041 C 
HETATM    7  C3  UNK     1      18.042  -5.407   8.274  1.00  0.00     0.005 C 
HETATM    8  C4  UNK     1      17.751  -6.911   8.370  1.00  0.00     0.005 C 
HETATM    9  C5  UNK     1      18.856  -7.650   9.139  1.00  0.00     0.047 C 
HETATM   10  C6  UNK     1      19.227  -6.898  10.378  1.00  0.00    -0.008 A 
HETATM   11  C7  UNK     1      19.429  -5.162  11.903  1.00  0.00     0.077 A 
HETATM   12  C8  UNK     1      20.117  -6.179  12.548  1.00  0.00     0.116 A 
HETATM   13  C9  UNK     1      19.316  -3.870  12.571  1.00  0.00     0.281 A 
HETATM   14  C10 UNK     1      20.633  -4.966  14.358  1.00  0.00     0.126 A 
HETATM   15  C11 UNK     1      21.275  -4.790  15.712  1.00  0.00     0.093 C 
ENDROOT
BRANCH   3  16
HETATM   16  N3  UNK     1      19.916  -2.689  14.525  1.00  0.00    -0.255 N 
HETATM   17  C12 UNK     1      18.860  -2.482  15.375  1.00  0.00     0.276 C 
HETATM   18  O3  UNK     1      17.921  -3.241  15.589  1.00  0.00    -0.266 OA
HETATM   19  H9  UNK     1      20.693  -2.050  14.389  1.00  0.00     0.191 HD
BRANCH  17  20
HETATM   20  C13 UNK     1      18.948  -1.181  16.060  1.00  0.00     0.110 A 
HETATM   21  C14 UNK     1      18.727  -1.191  17.380  1.00  0.00     0.037 A 
HETATM   22  C15 UNK     1      18.792   0.045  18.144  1.00  0.00    -0.001 A 
HETATM   23  C16 UNK     1      19.084   1.232  17.480  1.00  0.00     0.089 A 
HETATM   24  C18 UNK     1      18.568   0.080  19.522  1.00  0.00     0.014 A 
HETATM   25  O2  UNK     1      19.316   1.236  16.092  1.00  0.00    -0.274 OA
HETATM   26  C19 UNK     1      19.160   2.449  18.154  1.00  0.00     0.038 A 
HETATM   27  C17 UNK     1      19.262   0.070  15.334  1.00  0.00     0.304 A 
HETATM   28  O4  UNK     1      19.464   0.084  14.124  1.00  0.00    -0.259 OA
HETATM   29  C21 UNK     1      18.936   2.476  19.529  1.00  0.00     0.003 A 
HETATM   30  C20 UNK     1      18.641   1.295  20.212  1.00  0.00     0.001 A 
ENDBRANCH  17  20
ENDBRANCH   3  16
TORSDOF 2
ENDMDL
MODEL 5
REMARK VINA RESULT:      -9.2     15.178     18.296
REMARK  2 active torsions:
REMARK  status: ('A' for Active; 'I' for Inactive)
REMARK    1  A    between atoms: N1_6  and  N3_8 
REMARK       I    between atoms: C12_20  and  N3_8 
REMARK    2  A    between atoms: C12_20  and  C13_21 
ROOT
HETATM    1  S1  UNK     1      32.034  -9.099  36.371  1.00  0.00    -0.073 SA
HETATM    2  O1  UNK     1      28.726  -5.939  38.204  1.00  0.00    -0.265 OA
HETATM    3  N1  UNK     1      27.944  -7.920  37.240  1.00  0.00    -0.203 N 
HETATM    4  N2  UNK     1      29.397  -9.555  36.306  1.00  0.00    -0.226 NA
HETATM    5  C1  UNK     1      31.540  -6.874  37.572  1.00  0.00    -0.026 A 
HETATM    6  C2  UNK     1      31.795  -5.551  38.232  1.00  0.00     0.041 C 
HETATM    7  C3  UNK     1      33.269  -5.376  38.629  1.00  0.00     0.005 C 
HETATM    8  C4  UNK     1      34.217  -5.827  37.510  1.00  0.00     0.005 C 
HETATM    9  C5  UNK     1      34.028  -7.314  37.178  1.00  0.00     0.047 C 
HETATM   10  C6  UNK     1      32.574  -7.652  37.083  1.00  0.00    -0.008 A 
HETATM   11  C7  UNK     1      30.273  -7.491  37.324  1.00  0.00     0.077 A 
HETATM   12  C8  UNK     1      30.399  -8.713  36.681  1.00  0.00     0.116 A 
HETATM   13  C9  UNK     1      28.933  -7.013  37.647  1.00  0.00     0.281 A 
HETATM   14  C10 UNK     1      28.201  -9.133  36.598  1.00  0.00     0.126 A 
HETATM   15  C11 UNK     1      27.016  -9.990  36.227  1.00  0.00     0.093 C 
ENDROOT
BRANCH   3  16
HETATM   16  N3  UNK     1      26.640  -7.560  37.502  1.00  0.00    -0.255 N 
HETATM   17  C12 UNK     1      26.068  -7.989  38.672  1.00  0.00     0.276 C 
HETATM   18  O3  UNK     1      26.587  -8.676  39.544  1.00  0.00    -0.266 OA
HETATM   19  H9  UNK     1      26.190  -6.969  36.811  1.00  0.00     0.191 HD
BRANCH  17  20
HETATM   20  C13 UNK     1      24.675  -7.527  38.808  1.00  0.00     0.110 A 
HETATM   21  C14 UNK     1      23.742  -8.480  38.908  1.00  0.00     0.037 A 
HETATM   22  C15 UNK     1      22.339  -8.123  39.047  1.00  0.00    -0.001 A 
HETATM   23  C16 UNK     1      21.987  -6.777  39.071  1.00  0.00     0.089 A 
HETATM   24  C18 UNK     1      21.332  -9.085  39.154  1.00  0.00     0.014 A 
HETATM   25  O2  UNK     1      22.974  -5.778  38.966  1.00  0.00    -0.274 OA
HETATM   26  C19 UNK     1      20.662  -6.368  39.200  1.00  0.00     0.038 A 
HETATM   27  C17 UNK     1      24.324  -6.089  38.833  1.00  0.00     0.304 A 
HETATM   28  O4  UNK     1      25.175  -5.212  38.740  1.00  0.00    -0.259 OA
HETATM   29  C21 UNK     1      19.663  -7.334  39.307  1.00  0.00     0.003 A 
HETATM   30  C20 UNK     1      19.997  -8.690  39.284  1.00  0.00     0.001 A 
ENDBRANCH  17  20
ENDBRANCH   3  16
TORSDOF 2
ENDMDL
MODEL 6
REMARK VINA RESULT:      -9.2      2.875      8.990
REMARK  2 active torsions:
REMARK  status: ('A' for Active; 'I' for Inactive)
REMARK    1  A    between atoms: N1_6  and  N3_8 
REMARK       I    between atoms: C12_20  and  N3_8 
REMARK    2  A    between atoms: C12_20  and  C13_21 
ROOT
HETATM    1  S1  UNK     1      19.287   1.137  30.289  1.00  0.00    -0.073 SA
HETATM    2  O1  UNK     1      17.813   3.853  34.128  1.00  0.00    -0.265 OA
HETATM    3  N1  UNK     1      18.265   4.945  32.111  1.00  0.00    -0.203 N 
HETATM    4  N2  UNK     1      18.988   3.793  30.160  1.00  0.00    -0.226 NA
HETATM    5  C1  UNK     1      18.524   1.249  32.747  1.00  0.00    -0.026 A 
HETATM    6  C2  UNK     1      18.179   0.780  34.130  1.00  0.00     0.041 C 
HETATM    7  C3  UNK     1      17.979  -0.741  34.194  1.00  0.00     0.005 C 
HETATM    8  C4  UNK     1      19.073  -1.491  33.422  1.00  0.00     0.005 C 
HETATM    9  C5  UNK     1      19.072  -1.113  31.934  1.00  0.00     0.047 C 
HETATM   10  C6  UNK     1      18.946   0.369  31.767  1.00  0.00    -0.008 A 
HETATM   11  C7  UNK     1      18.509   2.593  32.256  1.00  0.00     0.077 A 
HETATM   12  C8  UNK     1      18.898   2.672  30.927  1.00  0.00     0.116 A 
HETATM   13  C9  UNK     1      18.156   3.827  32.950  1.00  0.00     0.281 A 
HETATM   14  C10 UNK     1      18.668   4.895  30.775  1.00  0.00     0.126 A 
HETATM   15  C11 UNK     1      18.732   6.198  30.016  1.00  0.00     0.093 C 
ENDROOT
BRANCH   3  16
HETATM   16  N3  UNK     1      17.951   6.163  32.674  1.00  0.00    -0.255 N 
HETATM   17  C12 UNK     1      16.645   6.582  32.635  1.00  0.00     0.276 C 
HETATM   18  O3  UNK     1      15.690   5.988  32.147  1.00  0.00    -0.266 OA
HETATM   19  H9  UNK     1      18.716   6.667  33.110  1.00  0.00     0.191 HD
BRANCH  17  20
HETATM   20  C13 UNK     1      16.468   7.898  33.273  1.00  0.00     0.110 A 
HETATM   21  C14 UNK     1      17.524   8.719  33.241  1.00  0.00     0.037 A 
HETATM   22  C15 UNK     1      17.445  10.040  33.844  1.00  0.00    -0.001 A 
HETATM   23  C16 UNK     1      16.258  10.432  34.453  1.00  0.00     0.089 A 
HETATM   24  C18 UNK     1      18.523  10.928  33.834  1.00  0.00     0.014 A 
HETATM   25  O2  UNK     1      15.149   9.564  34.484  1.00  0.00    -0.274 OA
HETATM   26  C19 UNK     1      16.118  11.683  35.050  1.00  0.00     0.038 A 
HETATM   27  C17 UNK     1      15.193   8.294  33.914  1.00  0.00     0.304 A 
HETATM   28  O4  UNK     1      14.223   7.546  33.948  1.00  0.00    -0.259 OA
HETATM   29  C21 UNK     1      17.197  12.564  35.035  1.00  0.00     0.003 A 
HETATM   30  C20 UNK     1      18.398  12.188  34.428  1.00  0.00     0.001 A 
ENDBRANCH  17  20
ENDBRANCH   3  16
TORSDOF 2
ENDMDL
MODEL 7
REMARK VINA RESULT:      -9.0     15.977     17.857
REMARK  2 active torsions:
REMARK  status: ('A' for Active; 'I' for Inactive)
REMARK    1  A    between atoms: N1_6  and  N3_8 
REMARK       I    between atoms: C12_20  and  N3_8 
REMARK    2  A    between atoms: C12_20  and  C13_21 
ROOT
HETATM    1  S1  UNK     1      31.594  -8.524  38.188  1.00  0.00    -0.073 SA
HETATM    2  O1  UNK     1      27.352  -6.037  37.853  1.00  0.00    -0.265 OA
HETATM    3  N1  UNK     1      27.279  -8.247  38.611  1.00  0.00    -0.203 N 
HETATM    4  N2  UNK     1      29.227  -9.595  38.832  1.00  0.00    -0.226 NA
HETATM    5  C1  UNK     1      30.361  -6.334  37.622  1.00  0.00    -0.026 A 
HETATM    6  C2  UNK     1      30.154  -4.919  37.166  1.00  0.00     0.041 C 
HETATM    7  C3  UNK     1      31.469  -4.127  37.120  1.00  0.00     0.005 C 
HETATM    8  C4  UNK     1      32.602  -4.942  36.480  1.00  0.00     0.005 C 
HETATM    9  C5  UNK     1      32.892  -6.224  37.274  1.00  0.00     0.047 C 
HETATM   10  C6  UNK     1      31.617  -6.913  37.645  1.00  0.00    -0.008 A 
HETATM   11  C7  UNK     1      29.360  -7.266  38.044  1.00  0.00     0.077 A 
HETATM   12  C8  UNK     1      29.898  -8.497  38.387  1.00  0.00     0.116 A 
HETATM   13  C9  UNK     1      27.915  -7.087  38.147  1.00  0.00     0.281 A 
HETATM   14  C10 UNK     1      27.938  -9.436  38.931  1.00  0.00     0.126 A 
HETATM   15  C11 UNK     1      27.097 -10.591  39.415  1.00  0.00     0.093 C 
ENDROOT
BRANCH   3  16
HETATM   16  N3  UNK     1      25.910  -8.180  38.746  1.00  0.00    -0.255 N 
HETATM   17  C12 UNK     1      25.132  -8.478  37.656  1.00  0.00     0.276 C 
HETATM   18  O3  UNK     1      25.515  -8.808  36.539  1.00  0.00    -0.266 OA
HETATM   19  H9  UNK     1      25.560  -7.935  39.666  1.00  0.00     0.191 HD
BRANCH  17  20
HETATM   20  C13 UNK     1      23.694  -8.360  37.954  1.00  0.00     0.110 A 
HETATM   21  C14 UNK     1      22.913  -9.347  37.501  1.00  0.00     0.037 A 
HETATM   22  C15 UNK     1      21.479  -9.320  37.745  1.00  0.00    -0.001 A 
HETATM   23  C16 UNK     1      20.938  -8.253  38.455  1.00  0.00     0.089 A 
HETATM   24  C18 UNK     1      20.627 -10.329  37.290  1.00  0.00     0.014 A 
HETATM   25  O2  UNK     1      21.765  -7.218  38.931  1.00  0.00    -0.274 OA
HETATM   26  C19 UNK     1      19.573  -8.167  38.722  1.00  0.00     0.038 A 
HETATM   27  C17 UNK     1      23.140  -7.216  38.713  1.00  0.00     0.304 A 
HETATM   28  O4  UNK     1      23.851  -6.309  39.130  1.00  0.00    -0.259 OA
HETATM   29  C21 UNK     1      18.730  -9.177  38.265  1.00  0.00     0.003 A 
HETATM   30  C20 UNK     1      19.255 -10.256  37.551  1.00  0.00     0.001 A 
ENDBRANCH  17  20
ENDBRANCH   3  16
TORSDOF 2
ENDMDL
MODEL 8
REMARK VINA RESULT:      -8.9     23.113     24.745
REMARK  2 active torsions:
REMARK  status: ('A' for Active; 'I' for Inactive)
REMARK    1  A    between atoms: N1_6  and  N3_8 
REMARK       I    between atoms: C12_20  and  N3_8 
REMARK    2  A    between atoms: C12_20  and  C13_21 
ROOT
HETATM    1  S1  UNK     1      19.101  13.002  10.072  1.00  0.00    -0.073 SA
HETATM    2  O1  UNK     1      15.654  11.214   7.036  1.00  0.00    -0.265 OA
HETATM    3  N1  UNK     1      15.331  10.971   9.339  1.00  0.00    -0.203 N 
HETATM    4  N2  UNK     1      16.891  11.770  10.946  1.00  0.00    -0.226 NA
HETATM    5  C1  UNK     1      18.255  12.642   7.666  1.00  0.00    -0.026 A 
HETATM    6  C2  UNK     1      18.238  12.676   6.165  1.00  0.00     0.041 C 
HETATM    7  C3  UNK     1      19.270  13.662   5.597  1.00  0.00     0.005 C 
HETATM    8  C4  UNK     1      20.624  13.541   6.309  1.00  0.00     0.005 C 
HETATM    9  C5  UNK     1      20.502  13.854   7.808  1.00  0.00     0.047 C 
HETATM   10  C6  UNK     1      19.306  13.169   8.392  1.00  0.00    -0.008 A 
HETATM   11  C7  UNK     1      17.271  12.066   8.532  1.00  0.00     0.077 A 
HETATM   12  C8  UNK     1      17.607  12.200   9.871  1.00  0.00     0.116 A 
HETATM   13  C9  UNK     1      16.024  11.388   8.194  1.00  0.00     0.281 A 
HETATM   14  C10 UNK     1      15.776  11.170  10.647  1.00  0.00     0.126 A 
HETATM   15  C11 UNK     1      14.904  10.654  11.766  1.00  0.00     0.093 C 
ENDROOT
BRANCH   3  16
HETATM   16  N3  UNK     1      14.136  10.319   9.126  1.00  0.00    -0.255 N 
HETATM   17  C12 UNK     1      14.148   8.952   9.026  1.00  0.00     0.276 C 
HETATM   18  O3  UNK     1      15.121   8.210   9.106  1.00  0.00    -0.266 OA
HETATM   19  H9  UNK     1      13.308  10.903   9.080  1.00  0.00     0.191 HD
BRANCH  17  20
HETATM   20  C13 UNK     1      12.800   8.402   8.798  1.00  0.00     0.110 A 
HETATM   21  C14 UNK     1      12.594   7.813   7.614  1.00  0.00     0.037 A 
HETATM   22  C15 UNK     1      11.295   7.240   7.296  1.00  0.00    -0.001 A 
HETATM   23  C16 UNK     1      10.276   7.317   8.240  1.00  0.00     0.089 A 
HETATM   24  C18 UNK     1      11.036   6.617   6.073  1.00  0.00     0.014 A 
HETATM   25  O2  UNK     1      10.500   7.938   9.484  1.00  0.00    -0.274 OA
HETATM   26  C19 UNK     1       9.010   6.790   7.996  1.00  0.00     0.038 A 
HETATM   27  C17 UNK     1      11.731   8.494   9.818  1.00  0.00     0.304 A 
HETATM   28  O4  UNK     1      11.915   9.033  10.903  1.00  0.00    -0.259 OA
HETATM   29  C21 UNK     1       8.759   6.169   6.774  1.00  0.00     0.003 A 
HETATM   30  C20 UNK     1       9.770   6.083   5.814  1.00  0.00     0.001 A 
ENDBRANCH  17  20
ENDBRANCH   3  16
TORSDOF 2
ENDMDL
MODEL 9
REMARK VINA RESULT:      -8.8     17.145     19.404
REMARK  2 active torsions:
REMARK  status: ('A' for Active; 'I' for Inactive)
REMARK    1  A    between atoms: N1_6  and  N3_8 
REMARK       I    between atoms: C12_20  and  N3_8 
REMARK    2  A    between atoms: C12_20  and  C13_21 
ROOT
HETATM    1  S1  UNK     1      34.619  -5.960  36.987  1.00  0.00    -0.073 SA
HETATM    2  O1  UNK     1      30.949  -8.417  34.800  1.00  0.00    -0.265 OA
HETATM    3  N1  UNK     1      30.458  -7.178  36.720  1.00  0.00    -0.203 N 
HETATM    4  N2  UNK     1      32.105  -5.935  37.903  1.00  0.00    -0.226 NA
HETATM    5  C1  UNK     1      33.822  -7.484  35.069  1.00  0.00    -0.026 A 
HETATM    6  C2  UNK     1      33.889  -8.340  33.838  1.00  0.00     0.041 C 
HETATM    7  C3  UNK     1      35.192  -8.127  33.054  1.00  0.00     0.005 C 
HETATM    8  C4  UNK     1      36.414  -8.086  33.982  1.00  0.00     0.005 C 
HETATM    9  C5  UNK     1      36.318  -6.931  34.990  1.00  0.00     0.047 C 
HETATM   10  C6  UNK     1      34.946  -6.866  35.585  1.00  0.00    -0.008 A 
HETATM   11  C7  UNK     1      32.671  -7.212  35.876  1.00  0.00     0.077 A 
HETATM   12  C8  UNK     1      32.966  -6.388  36.951  1.00  0.00     0.116 A 
HETATM   13  C9  UNK     1      31.298  -7.676  35.714  1.00  0.00     0.281 A 
HETATM   14  C10 UNK     1      30.877  -6.343  37.758  1.00  0.00     0.126 A 
HETATM   15  C11 UNK     1      29.839  -5.900  38.759  1.00  0.00     0.093 C 
ENDROOT
BRANCH   3  16
HETATM   16  N3  UNK     1      29.135  -7.558  36.655  1.00  0.00    -0.255 N 
HETATM   17  C12 UNK     1      28.748  -8.688  37.330  1.00  0.00     0.276 C 
HETATM   18  O3  UNK     1      29.454  -9.426  38.008  1.00  0.00    -0.266 OA
HETATM   19  H9  UNK     1      28.519  -6.953  36.123  1.00  0.00     0.191 HD
BRANCH  17  20
HETATM   20  C13 UNK     1      27.311  -8.965  37.165  1.00  0.00     0.110 A 
HETATM   21  C14 UNK     1      26.994 -10.158  36.647  1.00  0.00     0.037 A 
HETATM   22  C15 UNK     1      25.600 -10.524  36.446  1.00  0.00    -0.001 A 
HETATM   23  C16 UNK     1      24.608  -9.614  36.798  1.00  0.00     0.089 A 
HETATM   24  C18 UNK     1      25.224 -11.757  35.909  1.00  0.00     0.014 A 
HETATM   25  O2  UNK     1      24.948  -8.361  37.343  1.00  0.00    -0.274 OA
HETATM   26  C19 UNK     1      23.256  -9.902  36.629  1.00  0.00     0.038 A 
HETATM   27  C17 UNK     1      26.272  -7.983  37.549  1.00  0.00     0.304 A 
HETATM   28  O4  UNK     1      26.557  -6.888  38.022  1.00  0.00    -0.259 OA
HETATM   29  C21 UNK     1      22.889 -11.135  36.093  1.00  0.00     0.003 A 
HETATM   30  C20 UNK     1      23.871 -12.061  35.734  1.00  0.00     0.001 A 
ENDBRANCH  17  20
ENDBRANCH   3  16
TORSDOF 2
ENDMDL
MODEL 10
REMARK VINA RESULT:      -8.7     15.522     18.022
REMARK  2 active torsions:
REMARK  status: ('A' for Active; 'I' for Inactive)
REMARK    1  A    between atoms: N1_6  and  N3_8 
REMARK       I    between atoms: C12_20  and  N3_8 
REMARK    2  A    between atoms: C12_20  and  C13_21 
ROOT
HETATM    1  S1  UNK     1      31.583  -8.805  37.946  1.00  0.00    -0.073 SA
HETATM    2  O1  UNK     1      27.384  -6.920  36.186  1.00  0.00    -0.265 OA
HETATM    3  N1  UNK     1      27.251  -8.484  37.918  1.00  0.00    -0.203 N 
HETATM    4  N2  UNK     1      29.174  -9.497  38.885  1.00  0.00    -0.226 NA
HETATM    5  C1  UNK     1      30.401  -7.204  36.311  1.00  0.00    -0.026 A 
HETATM    6  C2  UNK     1      30.231  -6.196  35.213  1.00  0.00     0.041 C 
HETATM    7  C3  UNK     1      31.549  -5.488  34.867  1.00  0.00     0.005 C 
HETATM    8  C4  UNK     1      32.718  -6.478  34.774  1.00  0.00     0.005 C 
HETATM    9  C5  UNK     1      32.950  -7.203  36.108  1.00  0.00     0.047 C 
HETATM   10  C6  UNK     1      31.649  -7.662  36.689  1.00  0.00    -0.008 A 
HETATM   11  C7  UNK     1      29.369  -7.842  37.072  1.00  0.00     0.077 A 
HETATM   12  C8  UNK     1      29.878  -8.734  38.003  1.00  0.00     0.116 A 
HETATM   13  C9  UNK     1      27.922  -7.678  36.987  1.00  0.00     0.281 A 
HETATM   14  C10 UNK     1      27.883  -9.348  38.815  1.00  0.00     0.126 A 
HETATM   15  C11 UNK     1      27.006 -10.146  39.749  1.00  0.00     0.093 C 
ENDROOT
BRANCH   3  16
HETATM   16  N3  UNK     1      25.876  -8.400  37.919  1.00  0.00    -0.255 N 
HETATM   17  C12 UNK     1      25.168  -9.280  37.141  1.00  0.00     0.276 C 
HETATM   18  O3  UNK     1      25.620 -10.163  36.420  1.00  0.00    -0.266 OA
HETATM   19  H9  UNK     1      25.470  -7.696  38.526  1.00  0.00     0.191 HD
BRANCH  17  20
HETATM   20  C13 UNK     1      23.715  -9.066  37.246  1.00  0.00     0.110 A 
HETATM   21  C14 UNK     1      23.314  -8.157  38.143  1.00  0.00     0.037 A 
HETATM   22  C15 UNK     1      21.898  -7.875  38.320  1.00  0.00    -0.001 A 
HETATM   23  C16 UNK     1      20.972  -8.566  37.544  1.00  0.00     0.089 A 
HETATM   24  C18 UNK     1      21.435  -6.936  39.244  1.00  0.00     0.014 A 
HETATM   25  O2  UNK     1      21.400  -9.520  36.601  1.00  0.00    -0.274 OA
HETATM   26  C19 UNK     1      19.602  -8.343  37.665  1.00  0.00     0.038 A 
HETATM   27  C17 UNK     1      22.748  -9.811  36.409  1.00  0.00     0.304 A 
HETATM   28  O4  UNK     1      23.110 -10.645  35.586  1.00  0.00    -0.259 OA
HETATM   29  C21 UNK     1      19.149  -7.405  38.589  1.00  0.00     0.003 A 
HETATM   30  C20 UNK     1      20.063  -6.702  39.378  1.00  0.00     0.001 A 
ENDBRANCH  17  20
ENDBRANCH   3  16
TORSDOF 2
ENDMDL
