MODEL 1
REMARK VINA RESULT:      -7.2      0.000      0.000
REMARK  8 active torsions:
REMARK  status: ('A' for Active; 'I' for Inactive)
REMARK    1  A    between atoms: C2_6  and  O1_1 
REMARK    2  A    between atoms: C5_9  and  O1_1 
REMARK    3  A    between atoms: C12_16  and  O2_2 
REMARK    4  A    between atoms: C8_12  and  O2_2 
REMARK    5  A    between atoms: C3_7  and  O3_3 
REMARK    6  A    between atoms: C1_5  and  C9_13 
REMARK    7  A    between atoms: C5_9  and  C8_12 
REMARK    8  A    between atoms: C10_14  and  C11_15 
ROOT
HETATM    1  N1  UNK     1      30.125  -2.991  30.034  1.00  0.00    -0.191 NA
HETATM    2  C9  UNK     1      30.502  -5.158  32.689  1.00  0.00     0.035 C 
HETATM    3  C10 UNK     1      29.881  -5.139  31.479  1.00  0.00     0.055 C 
HETATM    4  C24 UNK     1      30.022  -3.945  30.686  1.00  0.00     0.100 C 
ENDROOT
BRANCH   3   5
HETATM    5  C11 UNK     1      29.100  -6.246  30.950  1.00  0.00    -0.015 A 
HETATM    6  C14 UNK     1      27.735  -6.329  31.224  1.00  0.00     0.013 A 
HETATM    7  C16 UNK     1      26.985  -7.391  30.717  1.00  0.00     0.001 A 
HETATM    8  C19 UNK     1      27.601  -8.369  29.936  1.00  0.00     0.000 A 
HETATM    9  C15 UNK     1      28.966  -8.285  29.663  1.00  0.00     0.001 A 
HETATM   10  C13 UNK     1      29.716  -7.224  30.169  1.00  0.00     0.013 A 
ENDBRANCH   3   5
BRANCH   2  11
HETATM   11  C1  UNK     1      30.462  -6.268  33.653  1.00  0.00    -0.032 A 
HETATM   12  C4  UNK     1      31.445  -7.245  33.609  1.00  0.00     0.051 A 
HETATM   13  C3  UNK     1      31.407  -8.298  34.523  1.00  0.00     0.102 A 
HETATM   14  C2  UNK     1      30.386  -8.360  35.472  1.00  0.00     0.102 A 
HETATM   15  C7  UNK     1      29.403  -7.371  35.506  1.00  0.00     0.040 A 
HETATM   16  C6  UNK     1      29.442  -6.318  34.592  1.00  0.00     0.014 A 
BRANCH  13  17
HETATM   17  O3  UNK     1      32.372  -9.258  34.480  1.00  0.00    -0.353 OA
HETATM   18  C20 UNK     1      33.725  -8.815  34.395  1.00  0.00     0.210 C 
ENDBRANCH  13  17
BRANCH  14  19
HETATM   19  O1  UNK     1      30.338  -9.382  36.371  1.00  0.00    -0.346 OA
BRANCH  19  20
HETATM   20  C5  UNK     1      30.485  -9.042  37.749  1.00  0.00     0.202 C 
BRANCH  20  21
HETATM   21  C8  UNK     1      31.918  -8.618  38.004  1.00  0.00     0.202 C 
BRANCH  21  22
HETATM   22  O2  UNK     1      31.918  -7.377  38.700  1.00  0.00    -0.349 OA
BRANCH  22  23
HETATM   23  C12 UNK     1      31.931  -6.241  37.935  1.00  0.00     0.068 A 
HETATM   24  C17 UNK     1      32.913  -6.076  36.964  1.00  0.00     0.037 A 
HETATM   25  C21 UNK     1      32.927  -4.919  36.185  1.00  0.00     0.003 A 
HETATM   26  C23 UNK     1      31.959  -3.935  36.382  1.00  0.00     0.000 A 
HETATM   27  C22 UNK     1      30.977  -4.107  37.358  1.00  0.00     0.003 A 
HETATM   28  C18 UNK     1      30.963  -5.264  38.137  1.00  0.00     0.037 A 
ENDBRANCH  22  23
ENDBRANCH  21  22
ENDBRANCH  20  21
ENDBRANCH  19  20
ENDBRANCH  14  19
ENDBRANCH   2  11
TORSDOF 8
ENDMDL
MODEL 2
REMARK VINA RESULT:      -7.0      0.877      2.116
REMARK  8 active torsions:
REMARK  status: ('A' for Active; 'I' for Inactive)
REMARK    1  A    between atoms: C2_6  and  O1_1 
REMARK    2  A    between atoms: C5_9  and  O1_1 
REMARK    3  A    between atoms: C12_16  and  O2_2 
REMARK    4  A    between atoms: C8_12  and  O2_2 
REMARK    5  A    between atoms: C3_7  and  O3_3 
REMARK    6  A    between atoms: C1_5  and  C9_13 
REMARK    7  A    between atoms: C5_9  and  C8_12 
REMARK    8  A    between atoms: C10_14  and  C11_15 
ROOT
HETATM    1  N1  UNK     1      30.119  -3.018  29.951  1.00  0.00    -0.191 NA
HETATM    2  C9  UNK     1      30.508  -5.144  32.637  1.00  0.00     0.035 C 
HETATM    3  C10 UNK     1      29.885  -5.144  31.429  1.00  0.00     0.055 C 
HETATM    4  C24 UNK     1      30.020  -3.962  30.617  1.00  0.00     0.100 C 
ENDROOT
BRANCH   3   5
HETATM    5  C11 UNK     1      29.107  -6.262  30.918  1.00  0.00    -0.015 A 
HETATM    6  C14 UNK     1      27.736  -6.327  31.164  1.00  0.00     0.013 A 
HETATM    7  C16 UNK     1      26.989  -7.399  30.674  1.00  0.00     0.001 A 
HETATM    8  C19 UNK     1      27.614  -8.406  29.939  1.00  0.00     0.000 A 
HETATM    9  C15 UNK     1      28.985  -8.341  29.693  1.00  0.00     0.001 A 
HETATM   10  C13 UNK     1      29.732  -7.269  30.182  1.00  0.00     0.013 A 
ENDBRANCH   3   5
BRANCH   2  11
HETATM   11  C1  UNK     1      30.474  -6.239  33.618  1.00  0.00    -0.032 A 
HETATM   12  C4  UNK     1      29.429  -6.308  34.527  1.00  0.00     0.051 A 
HETATM   13  C3  UNK     1      29.398  -7.346  35.458  1.00  0.00     0.102 A 
HETATM   14  C2  UNK     1      30.412  -8.303  35.470  1.00  0.00     0.102 A 
HETATM   15  C7  UNK     1      31.458  -8.222  34.550  1.00  0.00     0.040 A 
HETATM   16  C6  UNK     1      31.489  -7.184  33.619  1.00  0.00     0.014 A 
BRANCH  13  17
HETATM   17  O3  UNK     1      28.371  -7.415  36.351  1.00  0.00    -0.353 OA
HETATM   18  C20 UNK     1      28.389  -6.485  37.433  1.00  0.00     0.210 C 
ENDBRANCH  13  17
BRANCH  14  19
HETATM   19  O1  UNK     1      30.392  -9.323  36.373  1.00  0.00    -0.346 OA
BRANCH  19  20
HETATM   20  C5  UNK     1      31.560  -9.505  37.171  1.00  0.00     0.202 C 
BRANCH  20  21
HETATM   21  C8  UNK     1      31.594  -8.441  38.250  1.00  0.00     0.202 C 
BRANCH  21  22
HETATM   22  O2  UNK     1      32.851  -7.775  38.207  1.00  0.00    -0.349 OA
BRANCH  22  23
HETATM   23  C12 UNK     1      32.926  -6.651  37.428  1.00  0.00     0.068 A 
HETATM   24  C17 UNK     1      31.946  -5.671  37.538  1.00  0.00     0.037 A 
HETATM   25  C21 UNK     1      32.022  -4.526  36.745  1.00  0.00     0.003 A 
HETATM   26  C23 UNK     1      33.078  -4.368  35.847  1.00  0.00     0.000 A 
HETATM   27  C22 UNK     1      34.058  -5.357  35.742  1.00  0.00     0.003 A 
HETATM   28  C18 UNK     1      33.981  -6.501  36.535  1.00  0.00     0.037 A 
ENDBRANCH  22  23
ENDBRANCH  21  22
ENDBRANCH  20  21
ENDBRANCH  19  20
ENDBRANCH  14  19
ENDBRANCH   2  11
TORSDOF 8
ENDMDL
MODEL 3
REMARK VINA RESULT:      -7.0     15.854     18.408
REMARK  8 active torsions:
REMARK  status: ('A' for Active; 'I' for Inactive)
REMARK    1  A    between atoms: C2_6  and  O1_1 
REMARK    2  A    between atoms: C5_9  and  O1_1 
REMARK    3  A    between atoms: C12_16  and  O2_2 
REMARK    4  A    between atoms: C8_12  and  O2_2 
REMARK    5  A    between atoms: C3_7  and  O3_3 
REMARK    6  A    between atoms: C1_5  and  C9_13 
REMARK    7  A    between atoms: C5_9  and  C8_12 
REMARK    8  A    between atoms: C10_14  and  C11_15 
ROOT
HETATM    1  N1  UNK     1      14.712  10.274  35.474  1.00  0.00    -0.191 NA
HETATM    2  C9  UNK     1      16.036   7.769  33.510  1.00  0.00     0.035 C 
HETATM    3  C10 UNK     1      16.479   8.851  34.204  1.00  0.00     0.055 C 
HETATM    4  C24 UNK     1      15.493   9.633  34.904  1.00  0.00     0.100 C 
ENDROOT
BRANCH   3   5
HETATM    5  C11 UNK     1      17.875   9.250  34.279  1.00  0.00    -0.015 A 
HETATM    6  C14 UNK     1      18.239  10.569  34.010  1.00  0.00     0.013 A 
HETATM    7  C16 UNK     1      19.579  10.952  34.082  1.00  0.00     0.001 A 
HETATM    8  C19 UNK     1      20.554  10.015  34.423  1.00  0.00     0.000 A 
HETATM    9  C15 UNK     1      20.190   8.696  34.693  1.00  0.00     0.001 A 
HETATM   10  C13 UNK     1      18.851   8.313  34.621  1.00  0.00     0.013 A 
ENDBRANCH   3   5
BRANCH   2  11
HETATM   11  C1  UNK     1      16.874   6.860  32.715  1.00  0.00    -0.032 A 
HETATM   12  C4  UNK     1      17.241   5.632  33.245  1.00  0.00     0.051 A 
HETATM   13  C3  UNK     1      18.038   4.770  32.491  1.00  0.00     0.102 A 
HETATM   14  C2  UNK     1      18.457   5.146  31.215  1.00  0.00     0.102 A 
HETATM   15  C7  UNK     1      18.081   6.384  30.693  1.00  0.00     0.040 A 
HETATM   16  C6  UNK     1      17.285   7.246  31.447  1.00  0.00     0.014 A 
BRANCH  13  17
HETATM   17  O3  UNK     1      18.399   3.564  33.011  1.00  0.00    -0.353 OA
HETATM   18  C20 UNK     1      18.282   3.406  34.424  1.00  0.00     0.210 C 
ENDBRANCH  13  17
BRANCH  14  19
HETATM   19  O1  UNK     1      19.234   4.313  30.468  1.00  0.00    -0.346 OA
BRANCH  19  20
HETATM   20  C5  UNK     1      18.664   3.800  29.265  1.00  0.00     0.202 C 
BRANCH  20  21
HETATM   21  C8  UNK     1      18.419   2.312  29.429  1.00  0.00     0.202 C 
BRANCH  21  22
HETATM   22  O2  UNK     1      19.184   1.834  30.530  1.00  0.00    -0.349 OA
BRANCH  22  23
HETATM   23  C12 UNK     1      19.578   0.524  30.483  1.00  0.00     0.068 A 
HETATM   24  C17 UNK     1      20.180   0.026  29.333  1.00  0.00     0.037 A 
HETATM   25  C21 UNK     1      20.581  -1.309  29.285  1.00  0.00     0.003 A 
HETATM   26  C23 UNK     1      20.378  -2.138  30.388  1.00  0.00     0.000 A 
HETATM   27  C22 UNK     1      19.773  -1.632  31.539  1.00  0.00     0.003 A 
HETATM   28  C18 UNK     1      19.372  -0.297  31.586  1.00  0.00     0.037 A 
ENDBRANCH  22  23
ENDBRANCH  21  22
ENDBRANCH  20  21
ENDBRANCH  19  20
ENDBRANCH  14  19
ENDBRANCH   2  11
TORSDOF 8
ENDMDL
MODEL 4
REMARK VINA RESULT:      -6.6      2.055      3.153
REMARK  8 active torsions:
REMARK  status: ('A' for Active; 'I' for Inactive)
REMARK    1  A    between atoms: C2_6  and  O1_1 
REMARK    2  A    between atoms: C5_9  and  O1_1 
REMARK    3  A    between atoms: C12_16  and  O2_2 
REMARK    4  A    between atoms: C8_12  and  O2_2 
REMARK    5  A    between atoms: C3_7  and  O3_3 
REMARK    6  A    between atoms: C1_5  and  C9_13 
REMARK    7  A    between atoms: C5_9  and  C8_12 
REMARK    8  A    between atoms: C10_14  and  C11_15 
ROOT
HETATM    1  N1  UNK     1      32.010  -8.831  27.870  1.00  0.00    -0.191 NA
HETATM    2  C9  UNK     1      31.829  -7.983  31.207  1.00  0.00     0.035 C 
HETATM    3  C10 UNK     1      30.991  -8.079  30.140  1.00  0.00     0.055 C 
HETATM    4  C24 UNK     1      31.564  -8.497  28.887  1.00  0.00     0.100 C 
ENDROOT
BRANCH   3   5
HETATM    5  C11 UNK     1      29.566  -7.792  30.201  1.00  0.00    -0.015 A 
HETATM    6  C14 UNK     1      29.114  -6.479  30.070  1.00  0.00     0.013 A 
HETATM    7  C16 UNK     1      27.747  -6.203  30.127  1.00  0.00     0.001 A 
HETATM    8  C19 UNK     1      26.834  -7.241  30.316  1.00  0.00     0.000 A 
HETATM    9  C15 UNK     1      27.287  -8.553  30.447  1.00  0.00     0.001 A 
HETATM   10  C13 UNK     1      28.652  -8.829  30.389  1.00  0.00     0.013 A 
ENDBRANCH   3   5
BRANCH   2  11
HETATM   11  C1  UNK     1      31.447  -7.555  32.561  1.00  0.00    -0.032 A 
HETATM   12  C4  UNK     1      31.148  -8.511  33.519  1.00  0.00     0.051 A 
HETATM   13  C3  UNK     1      30.784  -8.105  34.803  1.00  0.00     0.102 A 
HETATM   14  C2  UNK     1      30.724  -6.746  35.113  1.00  0.00     0.102 A 
HETATM   15  C7  UNK     1      31.027  -5.794  34.140  1.00  0.00     0.040 A 
HETATM   16  C6  UNK     1      31.391  -6.200  32.856  1.00  0.00     0.014 A 
BRANCH  13  17
HETATM   17  O3  UNK     1      30.491  -9.044  35.745  1.00  0.00    -0.353 OA
HETATM   18  C20 UNK     1      31.588  -9.757  36.315  1.00  0.00     0.210 C 
ENDBRANCH  13  17
BRANCH  14  19
HETATM   19  O1  UNK     1      30.372  -6.336  36.364  1.00  0.00    -0.346 OA
BRANCH  19  20
HETATM   20  C5  UNK     1      31.282  -5.475  37.045  1.00  0.00     0.202 C 
BRANCH  20  21
HETATM   21  C8  UNK     1      32.280  -6.318  37.815  1.00  0.00     0.202 C 
BRANCH  21  22
HETATM   22  O2  UNK     1      33.592  -5.827  37.566  1.00  0.00    -0.349 OA
BRANCH  22  23
HETATM   23  C12 UNK     1      34.064  -5.953  36.286  1.00  0.00     0.068 A 
HETATM   24  C17 UNK     1      34.301  -4.813  35.525  1.00  0.00     0.037 A 
HETATM   25  C21 UNK     1      34.780  -4.941  34.221  1.00  0.00     0.003 A 
HETATM   26  C23 UNK     1      35.020  -6.207  33.687  1.00  0.00     0.000 A 
HETATM   27  C22 UNK     1      34.778  -7.346  34.457  1.00  0.00     0.003 A 
HETATM   28  C18 UNK     1      34.299  -7.218  35.760  1.00  0.00     0.037 A 
ENDBRANCH  22  23
ENDBRANCH  21  22
ENDBRANCH  20  21
ENDBRANCH  19  20
ENDBRANCH  14  19
ENDBRANCH   2  11
TORSDOF 8
ENDMDL
MODEL 5
REMARK VINA RESULT:      -6.6      2.246      3.389
REMARK  8 active torsions:
REMARK  status: ('A' for Active; 'I' for Inactive)
REMARK    1  A    between atoms: C2_6  and  O1_1 
REMARK    2  A    between atoms: C5_9  and  O1_1 
REMARK    3  A    between atoms: C12_16  and  O2_2 
REMARK    4  A    between atoms: C8_12  and  O2_2 
REMARK    5  A    between atoms: C3_7  and  O3_3 
REMARK    6  A    between atoms: C1_5  and  C9_13 
REMARK    7  A    between atoms: C5_9  and  C8_12 
REMARK    8  A    between atoms: C10_14  and  C11_15 
ROOT
HETATM    1  N1  UNK     1      30.700 -10.025  27.366  1.00  0.00    -0.191 NA
HETATM    2  C9  UNK     1      30.623 -10.211  30.808  1.00  0.00     0.035 C 
HETATM    3  C10 UNK     1      30.060  -9.462  29.822  1.00  0.00     0.055 C 
HETATM    4  C24 UNK     1      30.420  -9.781  28.465  1.00  0.00     0.100 C 
ENDROOT
BRANCH   3   5
HETATM    5  C11 UNK     1      29.122  -8.377  30.064  1.00  0.00    -0.015 A 
HETATM    6  C14 UNK     1      27.759  -8.647  30.181  1.00  0.00     0.013 A 
HETATM    7  C16 UNK     1      26.858  -7.606  30.413  1.00  0.00     0.001 A 
HETATM    8  C19 UNK     1      27.323  -6.296  30.528  1.00  0.00     0.000 A 
HETATM    9  C15 UNK     1      28.686  -6.026  30.411  1.00  0.00     0.001 A 
HETATM   10  C13 UNK     1      29.586  -7.066  30.179  1.00  0.00     0.013 A 
ENDBRANCH   3   5
BRANCH   2  11
HETATM   11  C1  UNK     1      30.403 -10.031  32.250  1.00  0.00    -0.032 A 
HETATM   12  C4  UNK     1      31.428  -9.530  33.039  1.00  0.00     0.051 A 
HETATM   13  C3  UNK     1      31.220  -9.362  34.408  1.00  0.00     0.102 A 
HETATM   14  C2  UNK     1      29.989  -9.695  34.972  1.00  0.00     0.102 A 
HETATM   15  C7  UNK     1      28.966 -10.197  34.168  1.00  0.00     0.040 A 
HETATM   16  C6  UNK     1      29.174 -10.366  32.799  1.00  0.00     0.014 A 
BRANCH  13  17
HETATM   17  O3  UNK     1      32.227  -8.870  35.183  1.00  0.00    -0.353 OA
HETATM   18  C20 UNK     1      33.457  -8.560  34.530  1.00  0.00     0.210 C 
ENDBRANCH  13  17
BRANCH  14  19
HETATM   19  O1  UNK     1      29.772  -9.533  36.307  1.00  0.00    -0.346 OA
BRANCH  19  20
HETATM   20  C5  UNK     1      28.526  -8.960  36.698  1.00  0.00     0.202 C 
BRANCH  20  21
HETATM   21  C8  UNK     1      28.749  -7.514  37.097  1.00  0.00     0.202 C 
BRANCH  21  22
HETATM   22  O2  UNK     1      28.546  -6.682  35.961  1.00  0.00    -0.349 OA
BRANCH  22  23
HETATM   23  C12 UNK     1      29.669  -6.186  35.352  1.00  0.00     0.068 A 
HETATM   24  C17 UNK     1      29.733  -6.131  33.964  1.00  0.00     0.037 A 
HETATM   25  C21 UNK     1      30.876  -5.627  33.345  1.00  0.00     0.003 A 
HETATM   26  C23 UNK     1      31.949  -5.181  34.117  1.00  0.00     0.000 A 
HETATM   27  C22 UNK     1      31.877  -5.240  35.510  1.00  0.00     0.003 A 
HETATM   28  C18 UNK     1      30.734  -5.744  36.129  1.00  0.00     0.037 A 
ENDBRANCH  22  23
ENDBRANCH  21  22
ENDBRANCH  20  21
ENDBRANCH  19  20
ENDBRANCH  14  19
ENDBRANCH   2  11
TORSDOF 8
ENDMDL
MODEL 6
REMARK VINA RESULT:      -6.6     10.914     12.940
REMARK  8 active torsions:
REMARK  status: ('A' for Active; 'I' for Inactive)
REMARK    1  A    between atoms: C2_6  and  O1_1 
REMARK    2  A    between atoms: C5_9  and  O1_1 
REMARK    3  A    between atoms: C12_16  and  O2_2 
REMARK    4  A    between atoms: C8_12  and  O2_2 
REMARK    5  A    between atoms: C3_7  and  O3_3 
REMARK    6  A    between atoms: C1_5  and  C9_13 
REMARK    7  A    between atoms: C5_9  and  C8_12 
REMARK    8  A    between atoms: C10_14  and  C11_15 
ROOT
HETATM    1  N1  UNK     1      18.981 -12.038  39.428  1.00  0.00    -0.191 NA
HETATM    2  C9  UNK     1      19.332  -8.726  38.536  1.00  0.00     0.035 C 
HETATM    3  C10 UNK     1      19.979  -9.904  38.328  1.00  0.00     0.055 C 
HETATM    4  C24 UNK     1      19.419 -11.080  38.941  1.00  0.00     0.100 C 
ENDROOT
BRANCH   3   5
HETATM    5  C11 UNK     1      21.186 -10.036  37.527  1.00  0.00    -0.015 A 
HETATM    6  C14 UNK     1      22.269  -9.187  37.754  1.00  0.00     0.013 A 
HETATM    7  C16 UNK     1      23.428  -9.314  36.985  1.00  0.00     0.001 A 
HETATM    8  C19 UNK     1      23.501 -10.288  35.990  1.00  0.00     0.000 A 
HETATM    9  C15 UNK     1      22.417 -11.136  35.764  1.00  0.00     0.001 A 
HETATM   10  C13 UNK     1      21.259 -11.011  36.532  1.00  0.00     0.013 A 
ENDBRANCH   3   5
BRANCH   2  11
HETATM   11  C1  UNK     1      19.753  -7.415  38.018  1.00  0.00    -0.032 A 
HETATM   12  C4  UNK     1      19.758  -7.192  36.650  1.00  0.00     0.051 A 
HETATM   13  C3  UNK     1      20.158  -5.949  36.159  1.00  0.00     0.102 A 
HETATM   14  C2  UNK     1      20.548  -4.943  37.044  1.00  0.00     0.102 A 
HETATM   15  C7  UNK     1      20.538  -5.181  38.418  1.00  0.00     0.040 A 
HETATM   16  C6  UNK     1      20.138  -6.423  38.909  1.00  0.00     0.014 A 
BRANCH  13  17
HETATM   17  O3  UNK     1      20.163  -5.729  34.815  1.00  0.00    -0.353 OA
HETATM   18  C20 UNK     1      20.372  -6.861  33.973  1.00  0.00     0.210 C 
ENDBRANCH  13  17
BRANCH  14  19
HETATM   19  O1  UNK     1      20.939  -3.725  36.578  1.00  0.00    -0.346 OA
BRANCH  19  20
HETATM   20  C5  UNK     1      20.019  -2.646  36.729  1.00  0.00     0.202 C 
BRANCH  20  21
HETATM   21  C8  UNK     1      19.683  -2.085  35.361  1.00  0.00     0.202 C 
BRANCH  21  22
HETATM   22  O2  UNK     1      19.516  -0.676  35.466  1.00  0.00    -0.349 OA
BRANCH  22  23
HETATM   23  C12 UNK     1      18.254  -0.224  35.746  1.00  0.00     0.068 A 
HETATM   24  C17 UNK     1      17.982   0.334  36.990  1.00  0.00     0.037 A 
HETATM   25  C21 UNK     1      16.696   0.793  37.276  1.00  0.00     0.003 A 
HETATM   26  C23 UNK     1      15.690   0.691  36.315  1.00  0.00     0.000 A 
HETATM   27  C22 UNK     1      15.970   0.129  35.069  1.00  0.00     0.003 A 
HETATM   28  C18 UNK     1      17.256  -0.330  34.784  1.00  0.00     0.037 A 
ENDBRANCH  22  23
ENDBRANCH  21  22
ENDBRANCH  20  21
ENDBRANCH  19  20
ENDBRANCH  14  19
ENDBRANCH   2  11
TORSDOF 8
ENDMDL
MODEL 7
REMARK VINA RESULT:      -6.6     10.902     12.872
REMARK  8 active torsions:
REMARK  status: ('A' for Active; 'I' for Inactive)
REMARK    1  A    between atoms: C2_6  and  O1_1 
REMARK    2  A    between atoms: C5_9  and  O1_1 
REMARK    3  A    between atoms: C12_16  and  O2_2 
REMARK    4  A    between atoms: C8_12  and  O2_2 
REMARK    5  A    between atoms: C3_7  and  O3_3 
REMARK    6  A    between atoms: C1_5  and  C9_13 
REMARK    7  A    between atoms: C5_9  and  C8_12 
REMARK    8  A    between atoms: C10_14  and  C11_15 
ROOT
HETATM    1  N1  UNK     1      18.960 -12.126  39.713  1.00  0.00    -0.191 NA
HETATM    2  C9  UNK     1      19.302  -8.824  38.781  1.00  0.00     0.035 C 
HETATM    3  C10 UNK     1      19.828 -10.031  38.441  1.00  0.00     0.055 C 
HETATM    4  C24 UNK     1      19.341 -11.185  39.150  1.00  0.00     0.100 C 
ENDROOT
BRANCH   3   5
HETATM    5  C11 UNK     1      20.836 -10.213  37.409  1.00  0.00    -0.015 A 
HETATM    6  C14 UNK     1      20.544 -10.972  36.275  1.00  0.00     0.013 A 
HETATM    7  C16 UNK     1      21.511 -11.147  35.284  1.00  0.00     0.001 A 
HETATM    8  C19 UNK     1      22.770 -10.564  35.428  1.00  0.00     0.000 A 
HETATM    9  C15 UNK     1      23.061  -9.805  36.562  1.00  0.00     0.001 A 
HETATM   10  C13 UNK     1      22.095  -9.629  37.552  1.00  0.00     0.013 A 
ENDBRANCH   3   5
BRANCH   2  11
HETATM   11  C1  UNK     1      19.678  -7.529  38.195  1.00  0.00    -0.032 A 
HETATM   12  C4  UNK     1      20.883  -6.943  38.553  1.00  0.00     0.051 A 
HETATM   13  C3  UNK     1      21.240  -5.715  37.997  1.00  0.00     0.102 A 
HETATM   14  C2  UNK     1      20.388  -5.087  37.089  1.00  0.00     0.102 A 
HETATM   15  C7  UNK     1      19.179  -5.687  36.736  1.00  0.00     0.040 A 
HETATM   16  C6  UNK     1      18.822  -6.915  37.292  1.00  0.00     0.014 A 
BRANCH  13  17
HETATM   17  O3  UNK     1      22.423  -5.138  38.349  1.00  0.00    -0.353 OA
HETATM   18  C20 UNK     1      23.338  -5.938  39.096  1.00  0.00     0.210 C 
ENDBRANCH  13  17
BRANCH  14  19
HETATM   19  O1  UNK     1      20.725  -3.888  36.537  1.00  0.00    -0.346 OA
BRANCH  19  20
HETATM   20  C5  UNK     1      19.702  -2.897  36.463  1.00  0.00     0.202 C 
BRANCH  20  21
HETATM   21  C8  UNK     1      19.922  -2.049  35.225  1.00  0.00     0.202 C 
BRANCH  21  22
HETATM   22  O2  UNK     1      19.695  -0.683  35.552  1.00  0.00    -0.349 OA
BRANCH  22  23
HETATM   23  C12 UNK     1      18.394  -0.303  35.746  1.00  0.00     0.068 A 
HETATM   24  C17 UNK     1      17.430  -0.638  34.800  1.00  0.00     0.037 A 
HETATM   25  C21 UNK     1      16.105  -0.250  34.997  1.00  0.00     0.003 A 
HETATM   26  C23 UNK     1      15.751   0.469  36.139  1.00  0.00     0.000 A 
HETATM   27  C22 UNK     1      16.724   0.802  37.083  1.00  0.00     0.003 A 
HETATM   28  C18 UNK     1      18.048   0.414  36.886  1.00  0.00     0.037 A 
ENDBRANCH  22  23
ENDBRANCH  21  22
ENDBRANCH  20  21
ENDBRANCH  19  20
ENDBRANCH  14  19
ENDBRANCH   2  11
TORSDOF 8
ENDMDL
MODEL 8
REMARK VINA RESULT:      -6.5      2.782      6.836
REMARK  8 active torsions:
REMARK  status: ('A' for Active; 'I' for Inactive)
REMARK    1  A    between atoms: C2_6  and  O1_1 
REMARK    2  A    between atoms: C5_9  and  O1_1 
REMARK    3  A    between atoms: C12_16  and  O2_2 
REMARK    4  A    between atoms: C8_12  and  O2_2 
REMARK    5  A    between atoms: C3_7  and  O3_3 
REMARK    6  A    between atoms: C1_5  and  C9_13 
REMARK    7  A    between atoms: C5_9  and  C8_12 
REMARK    8  A    between atoms: C10_14  and  C11_15 
ROOT
HETATM    1  N1  UNK     1      29.544  -3.819  39.884  1.00  0.00    -0.191 NA
HETATM    2  C9  UNK     1      30.761  -4.670  36.773  1.00  0.00     0.035 C 
HETATM    3  C10 UNK     1      30.367  -5.300  37.912  1.00  0.00     0.055 C 
HETATM    4  C24 UNK     1      29.912  -4.471  38.999  1.00  0.00     0.100 C 
ENDROOT
BRANCH   3   5
HETATM    5  C11 UNK     1      30.374  -6.744  38.084  1.00  0.00    -0.015 A 
HETATM    6  C14 UNK     1      29.170  -7.447  38.120  1.00  0.00     0.013 A 
HETATM    7  C16 UNK     1      29.176  -8.833  38.285  1.00  0.00     0.001 A 
HETATM    8  C19 UNK     1      30.386  -9.514  38.414  1.00  0.00     0.000 A 
HETATM    9  C15 UNK     1      31.590  -8.811  38.377  1.00  0.00     0.001 A 
HETATM   10  C13 UNK     1      31.584  -7.426  38.212  1.00  0.00     0.013 A 
ENDBRANCH   3   5
BRANCH   2  11
HETATM   11  C1  UNK     1      31.276  -5.330  35.564  1.00  0.00    -0.032 A 
HETATM   12  C4  UNK     1      32.637  -5.305  35.301  1.00  0.00     0.051 A 
HETATM   13  C3  UNK     1      33.126  -5.931  34.154  1.00  0.00     0.102 A 
HETATM   14  C2  UNK     1      32.246  -6.575  33.283  1.00  0.00     0.102 A 
HETATM   15  C7  UNK     1      30.879  -6.593  33.559  1.00  0.00     0.040 A 
HETATM   16  C6  UNK     1      30.391  -5.968  34.707  1.00  0.00     0.014 A 
BRANCH  13  17
HETATM   17  O3  UNK     1      34.463  -5.906  33.895  1.00  0.00    -0.353 OA
HETATM   18  C20 UNK     1      35.319  -6.536  34.846  1.00  0.00     0.210 C 
ENDBRANCH  13  17
BRANCH  14  19
HETATM   19  O1  UNK     1      32.710  -7.191  32.161  1.00  0.00    -0.346 OA
BRANCH  19  20
HETATM   20  C5  UNK     1      32.287  -8.534  31.935  1.00  0.00     0.202 C 
BRANCH  20  21
HETATM   21  C8  UNK     1      31.754  -8.655  30.521  1.00  0.00     0.202 C 
BRANCH  21  22
HETATM   22  O2  UNK     1      31.092  -7.445  30.169  1.00  0.00    -0.349 OA
BRANCH  22  23
HETATM   23  C12 UNK     1      29.724  -7.452  30.230  1.00  0.00     0.068 A 
HETATM   24  C17 UNK     1      29.032  -6.248  30.307  1.00  0.00     0.037 A 
HETATM   25  C21 UNK     1      27.638  -6.254  30.370  1.00  0.00     0.003 A 
HETATM   26  C23 UNK     1      26.945  -7.465  30.355  1.00  0.00     0.000 A 
HETATM   27  C22 UNK     1      27.647  -8.669  30.278  1.00  0.00     0.003 A 
HETATM   28  C18 UNK     1      29.039  -8.662  30.215  1.00  0.00     0.037 A 
ENDBRANCH  22  23
ENDBRANCH  21  22
ENDBRANCH  20  21
ENDBRANCH  19  20
ENDBRANCH  14  19
ENDBRANCH   2  11
TORSDOF 8
ENDMDL
MODEL 9
REMARK VINA RESULT:      -6.5      2.816      6.986
REMARK  8 active torsions:
REMARK  status: ('A' for Active; 'I' for Inactive)
REMARK    1  A    between atoms: C2_6  and  O1_1 
REMARK    2  A    between atoms: C5_9  and  O1_1 
REMARK    3  A    between atoms: C12_16  and  O2_2 
REMARK    4  A    between atoms: C8_12  and  O2_2 
REMARK    5  A    between atoms: C3_7  and  O3_3 
REMARK    6  A    between atoms: C1_5  and  C9_13 
REMARK    7  A    between atoms: C5_9  and  C8_12 
REMARK    8  A    between atoms: C10_14  and  C11_15 
ROOT
HETATM    1  N1  UNK     1      26.744  -6.413  37.864  1.00  0.00    -0.191 NA
HETATM    2  C9  UNK     1      28.637  -7.029  35.049  1.00  0.00     0.035 C 
HETATM    3  C10 UNK     1      28.805  -7.018  36.398  1.00  0.00     0.055 C 
HETATM    4  C24 UNK     1      27.658  -6.682  37.202  1.00  0.00     0.100 C 
ENDROOT
BRANCH   3   5
HETATM    5  C11 UNK     1      30.061  -7.328  37.062  1.00  0.00    -0.015 A 
HETATM    6  C14 UNK     1      30.416  -8.657  37.297  1.00  0.00     0.013 A 
HETATM    7  C16 UNK     1      31.622  -8.955  37.933  1.00  0.00     0.001 A 
HETATM    8  C19 UNK     1      32.472  -7.925  38.334  1.00  0.00     0.000 A 
HETATM    9  C15 UNK     1      32.118  -6.597  38.097  1.00  0.00     0.001 A 
HETATM   10  C13 UNK     1      30.913  -6.298  37.462  1.00  0.00     0.013 A 
ENDBRANCH   3   5
BRANCH   2  11
HETATM   11  C1  UNK     1      29.683  -7.323  34.059  1.00  0.00    -0.032 A 
HETATM   12  C4  UNK     1      29.818  -8.615  33.572  1.00  0.00     0.051 A 
HETATM   13  C3  UNK     1      30.811  -8.894  32.633  1.00  0.00     0.102 A 
HETATM   14  C2  UNK     1      31.658  -7.877  32.192  1.00  0.00     0.102 A 
HETATM   15  C7  UNK     1      31.512  -6.582  32.689  1.00  0.00     0.040 A 
HETATM   16  C6  UNK     1      30.519  -6.303  33.628  1.00  0.00     0.014 A 
BRANCH  13  17
HETATM   17  O3  UNK     1      30.944 -10.162  32.155  1.00  0.00    -0.353 OA
HETATM   18  C20 UNK     1      29.913 -11.091  32.484  1.00  0.00     0.210 C 
ENDBRANCH  13  17
BRANCH  14  19
HETATM   19  O1  UNK     1      32.631  -8.136  31.274  1.00  0.00    -0.346 OA
BRANCH  19  20
HETATM   20  C5  UNK     1      32.667  -7.306  30.115  1.00  0.00     0.202 C 
BRANCH  20  21
HETATM   21  C8  UNK     1      31.761  -7.899  29.053  1.00  0.00     0.202 C 
BRANCH  21  22
HETATM   22  O2  UNK     1      30.678  -7.006  28.817  1.00  0.00    -0.349 OA
BRANCH  22  23
HETATM   23  C12 UNK     1      29.518  -7.250  29.503  1.00  0.00     0.068 A 
HETATM   24  C17 UNK     1      28.905  -6.219  30.207  1.00  0.00     0.037 A 
HETATM   25  C21 UNK     1      27.724  -6.468  30.907  1.00  0.00     0.003 A 
HETATM   26  C23 UNK     1      27.164  -7.745  30.898  1.00  0.00     0.000 A 
HETATM   27  C22 UNK     1      27.786  -8.775  30.190  1.00  0.00     0.003 A 
HETATM   28  C18 UNK     1      28.966  -8.526  29.491  1.00  0.00     0.037 A 
ENDBRANCH  22  23
ENDBRANCH  21  22
ENDBRANCH  20  21
ENDBRANCH  19  20
ENDBRANCH  14  19
ENDBRANCH   2  11
TORSDOF 8
ENDMDL
MODEL 10
REMARK VINA RESULT:      -6.4      3.251      7.053
REMARK  8 active torsions:
REMARK  status: ('A' for Active; 'I' for Inactive)
REMARK    1  A    between atoms: C2_6  and  O1_1 
REMARK    2  A    between atoms: C5_9  and  O1_1 
REMARK    3  A    between atoms: C12_16  and  O2_2 
REMARK    4  A    between atoms: C8_12  and  O2_2 
REMARK    5  A    between atoms: C3_7  and  O3_3 
REMARK    6  A    between atoms: C1_5  and  C9_13 
REMARK    7  A    between atoms: C5_9  and  C8_12 
REMARK    8  A    between atoms: C10_14  and  C11_15 
ROOT
HETATM    1  N1  UNK     1      28.774 -10.086  39.337  1.00  0.00    -0.191 NA
HETATM    2  C9  UNK     1      29.174  -8.562  36.271  1.00  0.00     0.035 C 
HETATM    3  C10 UNK     1      29.192  -8.211  37.585  1.00  0.00     0.055 C 
HETATM    4  C24 UNK     1      28.960  -9.256  38.548  1.00  0.00     0.100 C 
ENDROOT
BRANCH   3   5
HETATM    5  C11 UNK     1      29.436  -6.859  38.060  1.00  0.00    -0.015 A 
HETATM    6  C14 UNK     1      28.362  -6.012  38.334  1.00  0.00     0.013 A 
HETATM    7  C16 UNK     1      28.596  -4.713  38.790  1.00  0.00     0.001 A 
HETATM    8  C19 UNK     1      29.904  -4.264  38.972  1.00  0.00     0.000 A 
HETATM    9  C15 UNK     1      30.977  -5.111  38.698  1.00  0.00     0.001 A 
HETATM   10  C13 UNK     1      30.744  -6.409  38.242  1.00  0.00     0.013 A 
ENDBRANCH   3   5
BRANCH   2  11
HETATM   11  C1  UNK     1      29.365  -7.644  35.138  1.00  0.00    -0.032 A 
HETATM   12  C4  UNK     1      30.650  -7.358  34.702  1.00  0.00     0.051 A 
HETATM   13  C3  UNK     1      30.832  -6.487  33.628  1.00  0.00     0.102 A 
HETATM   14  C2  UNK     1      29.726  -5.913  33.001  1.00  0.00     0.102 A 
HETATM   15  C7  UNK     1      28.439  -6.209  33.449  1.00  0.00     0.040 A 
HETATM   16  C6  UNK     1      28.257  -7.080  34.523  1.00  0.00     0.014 A 
BRANCH  13  17
HETATM   17  O3  UNK     1      32.094  -6.205  33.200  1.00  0.00    -0.353 OA
HETATM   18  C20 UNK     1      33.167  -6.876  33.858  1.00  0.00     0.210 C 
ENDBRANCH  13  17
BRANCH  14  19
HETATM   19  O1  UNK     1      29.889  -5.062  31.950  1.00  0.00    -0.346 OA
BRANCH  19  20
HETATM   20  C5  UNK     1      29.307  -5.447  30.707  1.00  0.00     0.202 C 
BRANCH  20  21
HETATM   21  C8  UNK     1      30.267  -6.361  29.971  1.00  0.00     0.202 C 
BRANCH  21  22
HETATM   22  O2  UNK     1      29.657  -7.635  29.800  1.00  0.00    -0.349 OA
BRANCH  22  23
HETATM   23  C12 UNK     1      29.927  -8.580  30.755  1.00  0.00     0.068 A 
HETATM   24  C17 UNK     1      31.245  -8.936  31.018  1.00  0.00     0.037 A 
HETATM   25  C21 UNK     1      31.519  -9.899  31.990  1.00  0.00     0.003 A 
HETATM   26  C23 UNK     1      30.474 -10.499  32.691  1.00  0.00     0.000 A 
HETATM   27  C22 UNK     1      29.154 -10.137  32.421  1.00  0.00     0.003 A 
HETATM   28  C18 UNK     1      28.880  -9.174  31.450  1.00  0.00     0.037 A 
ENDBRANCH  22  23
ENDBRANCH  21  22
ENDBRANCH  20  21
ENDBRANCH  19  20
ENDBRANCH  14  19
ENDBRANCH   2  11
TORSDOF 8
ENDMDL
