MODEL 1
REMARK VINA RESULT:      -8.3      0.000      0.000
REMARK  6 active torsions:
REMARK  status: ('A' for Active; 'I' for Inactive)
REMARK    1  A    between atoms: C12_21  and  O3_3 
REMARK    2  A    between atoms: C20_29  and  O3_3 
REMARK    3  A    between atoms: C7_16  and  N1_8 
REMARK    4  A    between atoms: C14_23  and  N2_9 
REMARK    5  A    between atoms: C1_10  and  C4_13 
REMARK    6  A    between atoms: C12_21  and  C3_12 
ROOT
HETATM    1  O1  UNK     1      30.413  -5.468  34.445  1.00  0.00    -0.292 OA
HETATM    2  O2  UNK     1      28.352  -8.936  33.328  1.00  0.00    -0.274 OA
HETATM    3  O4  UNK     1      28.909  -9.911  35.312  1.00  0.00    -0.259 OA
HETATM    4  C1  UNK     1      30.277  -7.604  36.361  1.00  0.00     0.104 C 
HETATM    5  C2  UNK     1      29.646  -7.674  34.983  1.00  0.00     0.066 A 
HETATM    6  C3  UNK     1      31.176  -6.387  36.505  1.00  0.00     0.081 C 
HETATM    7  C5  UNK     1      29.735  -6.637  34.136  1.00  0.00     0.104 A 
HETATM    8  C6  UNK     1      29.105  -6.678  32.821  1.00  0.00     0.033 A 
HETATM    9  C7  UNK     1      31.208  -5.395  35.590  1.00  0.00     0.155 C 
HETATM   10  C8  UNK     1      28.954  -8.927  34.580  1.00  0.00     0.298 A 
HETATM   11  C9  UNK     1      28.422  -7.834  32.454  1.00  0.00     0.092 A 
HETATM   12  C13 UNK     1      29.146  -5.618  31.906  1.00  0.00     0.017 A 
HETATM   13  C16 UNK     1      27.785  -7.960  31.219  1.00  0.00     0.038 A 
HETATM   14  C18 UNK     1      28.512  -5.729  30.664  1.00  0.00     0.001 A 
HETATM   15  C19 UNK     1      27.833  -6.897  30.321  1.00  0.00     0.003 A 
ENDROOT
BRANCH   4  16
HETATM   16  C4  UNK     1      29.216  -7.595  37.422  1.00  0.00    -0.042 A 
HETATM   17  C10 UNK     1      28.395  -6.482  37.564  1.00  0.00     0.044 A 
HETATM   18  C14 UNK     1      27.410  -6.473  38.551  1.00  0.00     0.103 A 
HETATM   19  C17 UNK     1      27.254  -7.575  39.391  1.00  0.00     0.036 A 
HETATM   20  C15 UNK     1      28.083  -8.688  39.243  1.00  0.00     0.003 A 
HETATM   21  C11 UNK     1      29.067  -8.697  38.256  1.00  0.00     0.008 A 
BRANCH  18  22
HETATM   22  N2  UNK     1      26.565  -5.342  38.700  1.00  0.00    -0.116 N 
HETATM   23  O6  UNK     1      25.322  -5.508  38.663  1.00  0.00    -0.532 OA
HETATM   24  O7  UNK     1      27.089  -4.214  38.866  1.00  0.00    -0.532 OA
ENDBRANCH  18  22
ENDBRANCH   4  16
BRANCH   6  25
HETATM   25  C12 UNK     1      32.044  -6.353  37.696  1.00  0.00     0.294 C 
HETATM   26  O5  UNK     1      31.903  -5.554  38.602  1.00  0.00    -0.259 OA
BRANCH  25  27
HETATM   27  O3  UNK     1      32.971  -7.334  37.576  1.00  0.00    -0.318 OA
BRANCH  27  28
HETATM   28  C20 UNK     1      34.327  -6.880  37.519  1.00  0.00     0.174 C 
HETATM   29  C21 UNK     1      34.808  -6.943  36.085  1.00  0.00     0.034 C 
ENDBRANCH  27  28
ENDBRANCH  25  27
ENDBRANCH   6  25
BRANCH   9  30
HETATM   30  N1  UNK     1      31.969  -4.263  35.647  1.00  0.00    -0.379 N 
HETATM   31  H8  UNK     1      31.688  -3.514  36.266  1.00  0.00     0.158 HD
HETATM   32  H9  UNK     1      32.802  -4.171  35.079  1.00  0.00     0.158 HD
ENDBRANCH   9  30
TORSDOF 6
ENDMDL
MODEL 2
REMARK VINA RESULT:      -8.2      2.439      3.599
REMARK  6 active torsions:
REMARK  status: ('A' for Active; 'I' for Inactive)
REMARK    1  A    between atoms: C12_21  and  O3_3 
REMARK    2  A    between atoms: C20_29  and  O3_3 
REMARK    3  A    between atoms: C7_16  and  N1_8 
REMARK    4  A    between atoms: C14_23  and  N2_9 
REMARK    5  A    between atoms: C1_10  and  C4_13 
REMARK    6  A    between atoms: C12_21  and  C3_12 
ROOT
HETATM    1  O1  UNK     1      32.966  -7.706  33.453  1.00  0.00    -0.292 OA
HETATM    2  O2  UNK     1      29.192  -6.412  32.188  1.00  0.00    -0.274 OA
HETATM    3  O4  UNK     1      28.459  -6.426  34.347  1.00  0.00    -0.259 OA
HETATM    4  C1  UNK     1      30.994  -7.191  35.478  1.00  0.00     0.104 C 
HETATM    5  C2  UNK     1      30.734  -7.019  33.993  1.00  0.00     0.066 A 
HETATM    6  C3  UNK     1      32.320  -7.887  35.739  1.00  0.00     0.081 C 
HETATM    7  C5  UNK     1      31.702  -7.265  33.096  1.00  0.00     0.104 A 
HETATM    8  C6  UNK     1      31.475  -7.073  31.668  1.00  0.00     0.033 A 
HETATM    9  C7  UNK     1      33.230  -8.104  34.765  1.00  0.00     0.155 C 
HETATM   10  C8  UNK     1      29.377  -6.601  33.552  1.00  0.00     0.298 A 
HETATM   11  C9  UNK     1      30.218  -6.643  31.252  1.00  0.00     0.092 A 
HETATM   12  C13 UNK     1      32.454  -7.292  30.690  1.00  0.00     0.017 A 
HETATM   13  C16 UNK     1      29.915  -6.427  29.908  1.00  0.00     0.038 A 
HETATM   14  C18 UNK     1      32.165  -7.080  29.338  1.00  0.00     0.001 A 
HETATM   15  C19 UNK     1      30.898  -6.648  28.947  1.00  0.00     0.003 A 
ENDROOT
BRANCH   4  16
HETATM   16  C4  UNK     1      30.961  -5.861  36.173  1.00  0.00    -0.042 A 
HETATM   17  C10 UNK     1      30.070  -5.653  37.219  1.00  0.00     0.044 A 
HETATM   18  C14 UNK     1      30.038  -4.417  37.863  1.00  0.00     0.103 A 
HETATM   19  C17 UNK     1      30.897  -3.396  37.456  1.00  0.00     0.036 A 
HETATM   20  C15 UNK     1      31.788  -3.612  36.404  1.00  0.00     0.003 A 
HETATM   21  C11 UNK     1      31.820  -4.849  35.761  1.00  0.00     0.008 A 
BRANCH  18  22
HETATM   22  N2  UNK     1      29.133  -4.197  38.934  1.00  0.00    -0.116 N 
HETATM   23  O6  UNK     1      27.936  -4.548  38.793  1.00  0.00    -0.532 OA
HETATM   24  O7  UNK     1      29.559  -3.662  39.986  1.00  0.00    -0.532 OA
ENDBRANCH  18  22
ENDBRANCH   4  16
BRANCH   6  25
HETATM   25  C12 UNK     1      32.558  -8.345  37.120  1.00  0.00     0.294 C 
HETATM   26  O5  UNK     1      33.287  -7.761  37.900  1.00  0.00    -0.259 OA
BRANCH  25  27
HETATM   27  O3  UNK     1      31.842  -9.476  37.323  1.00  0.00    -0.318 OA
BRANCH  27  28
HETATM   28  C20 UNK     1      31.028  -9.473  38.500  1.00  0.00     0.174 C 
HETATM   29  C21 UNK     1      29.574  -9.359  38.094  1.00  0.00     0.034 C 
ENDBRANCH  27  28
ENDBRANCH  25  27
ENDBRANCH   6  25
BRANCH   9  30
HETATM   30  N1  UNK     1      34.448  -8.705  34.913  1.00  0.00    -0.379 N 
HETATM   31  H8  UNK     1      35.171  -8.225  35.433  1.00  0.00     0.158 HD
HETATM   32  H9  UNK     1      34.628  -9.614  34.507  1.00  0.00     0.158 HD
ENDBRANCH   9  30
TORSDOF 6
ENDMDL
MODEL 3
REMARK VINA RESULT:      -8.1      1.247      1.792
REMARK  6 active torsions:
REMARK  status: ('A' for Active; 'I' for Inactive)
REMARK    1  A    between atoms: C12_21  and  O3_3 
REMARK    2  A    between atoms: C20_29  and  O3_3 
REMARK    3  A    between atoms: C7_16  and  N1_8 
REMARK    4  A    between atoms: C14_23  and  N2_9 
REMARK    5  A    between atoms: C1_10  and  C4_13 
REMARK    6  A    between atoms: C12_21  and  C3_12 
ROOT
HETATM    1  O1  UNK     1      30.287  -5.793  33.664  1.00  0.00    -0.292 OA
HETATM    2  O2  UNK     1      28.703  -9.522  32.614  1.00  0.00    -0.274 OA
HETATM    3  O4  UNK     1      29.812 -10.488  34.356  1.00  0.00    -0.259 OA
HETATM    4  C1  UNK     1      30.924  -8.026  35.355  1.00  0.00     0.104 C 
HETATM    5  C2  UNK     1      30.053  -8.134  34.117  1.00  0.00     0.066 A 
HETATM    6  C3  UNK     1      31.599  -6.668  35.449  1.00  0.00     0.081 C 
HETATM    7  C5  UNK     1      29.783  -7.050  33.374  1.00  0.00     0.104 A 
HETATM    8  C6  UNK     1      28.921  -7.134  32.199  1.00  0.00     0.033 A 
HETATM    9  C7  UNK     1      31.268  -5.635  34.645  1.00  0.00     0.155 C 
HETATM   10  C8  UNK     1      29.532  -9.472  33.729  1.00  0.00     0.298 A 
HETATM   11  C9  UNK     1      28.398  -8.377  31.854  1.00  0.00     0.092 A 
HETATM   12  C13 UNK     1      28.587  -6.033  31.401  1.00  0.00     0.017 A 
HETATM   13  C16 UNK     1      27.561  -8.549  30.752  1.00  0.00     0.038 A 
HETATM   14  C18 UNK     1      27.749  -6.189  30.292  1.00  0.00     0.001 A 
HETATM   15  C19 UNK     1      27.237  -7.445  29.968  1.00  0.00     0.003 A 
ENDROOT
BRANCH   4  16
HETATM   16  C4  UNK     1      30.112  -8.289  36.590  1.00  0.00    -0.042 A 
HETATM   17  C10 UNK     1      29.021  -7.477  36.881  1.00  0.00     0.044 A 
HETATM   18  C14 UNK     1      28.268  -7.721  38.030  1.00  0.00     0.103 A 
HETATM   19  C17 UNK     1      28.611  -8.772  38.879  1.00  0.00     0.036 A 
HETATM   20  C15 UNK     1      29.707  -9.582  38.580  1.00  0.00     0.003 A 
HETATM   21  C11 UNK     1      30.460  -9.339  37.431  1.00  0.00     0.008 A 
BRANCH  18  22
HETATM   22  N2  UNK     1      27.152  -6.898  38.334  1.00  0.00    -0.116 N 
HETATM   23  O6  UNK     1      26.012  -7.268  37.963  1.00  0.00    -0.532 OA
HETATM   24  O7  UNK     1      27.341  -5.830  38.963  1.00  0.00    -0.532 OA
ENDBRANCH  18  22
ENDBRANCH   4  16
BRANCH   6  25
HETATM   25  C12 UNK     1      32.667  -6.537  36.457  1.00  0.00     0.294 C 
HETATM   26  O5  UNK     1      33.571  -7.341  36.579  1.00  0.00    -0.259 OA
BRANCH  25  27
HETATM   27  O3  UNK     1      32.444  -5.407  37.170  1.00  0.00    -0.318 OA
BRANCH  27  28
HETATM   28  C20 UNK     1      31.826  -5.610  38.445  1.00  0.00     0.174 C 
HETATM   29  C21 UNK     1      30.631  -4.688  38.566  1.00  0.00     0.034 C 
ENDBRANCH  27  28
ENDBRANCH  25  27
ENDBRANCH   6  25
BRANCH   9  30
HETATM   30  N1  UNK     1      31.810  -4.381  34.671  1.00  0.00    -0.379 N 
HETATM   31  H8  UNK     1      31.304  -3.620  34.236  1.00  0.00     0.158 HD
HETATM   32  H9  UNK     1      32.703  -4.213  35.115  1.00  0.00     0.158 HD
ENDBRANCH   9  30
TORSDOF 6
ENDMDL
MODEL 4
REMARK VINA RESULT:      -7.9      1.681      2.147
REMARK  6 active torsions:
REMARK  status: ('A' for Active; 'I' for Inactive)
REMARK    1  A    between atoms: C12_21  and  O3_3 
REMARK    2  A    between atoms: C20_29  and  O3_3 
REMARK    3  A    between atoms: C7_16  and  N1_8 
REMARK    4  A    between atoms: C14_23  and  N2_9 
REMARK    5  A    between atoms: C1_10  and  C4_13 
REMARK    6  A    between atoms: C12_21  and  C3_12 
ROOT
HETATM    1  O1  UNK     1      30.363  -5.563  34.196  1.00  0.00    -0.292 OA
HETATM    2  O2  UNK     1      28.440  -9.108  33.080  1.00  0.00    -0.274 OA
HETATM    3  O4  UNK     1      29.079 -10.077  35.042  1.00  0.00    -0.259 OA
HETATM    4  C1  UNK     1      30.362  -7.722  36.091  1.00  0.00     0.104 C 
HETATM    5  C2  UNK     1      29.707  -7.806  34.724  1.00  0.00     0.066 A 
HETATM    6  C3  UNK     1      31.207  -6.467  36.232  1.00  0.00     0.081 C 
HETATM    7  C5  UNK     1      29.733  -6.757  33.888  1.00  0.00     0.104 A 
HETATM    8  C6  UNK     1      29.081  -6.814  32.584  1.00  0.00     0.033 A 
HETATM    9  C7  UNK     1      31.176  -5.465  35.327  1.00  0.00     0.155 C 
HETATM   10  C8  UNK     1      29.066  -9.085  34.321  1.00  0.00     0.298 A 
HETATM   11  C9  UNK     1      28.443  -7.996  32.217  1.00  0.00     0.092 A 
HETATM   12  C13 UNK     1      29.056  -5.743  31.681  1.00  0.00     0.017 A 
HETATM   13  C16 UNK     1      27.789  -8.137  30.993  1.00  0.00     0.038 A 
HETATM   14  C18 UNK     1      28.404  -5.870  30.450  1.00  0.00     0.001 A 
HETATM   15  C19 UNK     1      27.772  -7.064  30.106  1.00  0.00     0.003 A 
ENDROOT
BRANCH   4  16
HETATM   16  C4  UNK     1      29.322  -7.771  37.172  1.00  0.00    -0.042 A 
HETATM   17  C10 UNK     1      29.211  -8.905  37.969  1.00  0.00     0.044 A 
HETATM   18  C14 UNK     1      28.243  -8.951  38.972  1.00  0.00     0.103 A 
HETATM   19  C17 UNK     1      27.393  -7.864  39.172  1.00  0.00     0.036 A 
HETATM   20  C15 UNK     1      27.510  -6.730  38.368  1.00  0.00     0.003 A 
HETATM   21  C11 UNK     1      28.478  -6.684  37.365  1.00  0.00     0.008 A 
BRANCH  18  22
HETATM   22  N2  UNK     1      28.125 -10.104  39.792  1.00  0.00    -0.116 N 
HETATM   23  O6  UNK     1      29.148 -10.795  40.011  1.00  0.00    -0.532 OA
HETATM   24  O7  UNK     1      27.002 -10.393  40.270  1.00  0.00    -0.532 OA
ENDBRANCH  18  22
ENDBRANCH   4  16
BRANCH   6  25
HETATM   25  C12 UNK     1      32.096  -6.406  37.406  1.00  0.00     0.294 C 
HETATM   26  O5  UNK     1      31.832  -5.772  38.410  1.00  0.00    -0.259 OA
BRANCH  25  27
HETATM   27  O3  UNK     1      33.194  -7.155  37.148  1.00  0.00    -0.318 OA
BRANCH  27  28
HETATM   28  C20 UNK     1      34.430  -6.592  37.603  1.00  0.00     0.174 C 
HETATM   29  C21 UNK     1      35.082  -5.847  36.458  1.00  0.00     0.034 C 
ENDBRANCH  27  28
ENDBRANCH  25  27
ENDBRANCH   6  25
BRANCH   9  30
HETATM   30  N1  UNK     1      31.887  -4.300  35.383  1.00  0.00    -0.379 N 
HETATM   31  H8  UNK     1      32.554  -4.098  34.650  1.00  0.00     0.158 HD
HETATM   32  H9  UNK     1      31.753  -3.649  36.146  1.00  0.00     0.158 HD
ENDBRANCH   9  30
TORSDOF 6
ENDMDL
MODEL 5
REMARK VINA RESULT:      -7.9      2.319      3.853
REMARK  6 active torsions:
REMARK  status: ('A' for Active; 'I' for Inactive)
REMARK    1  A    between atoms: C12_21  and  O3_3 
REMARK    2  A    between atoms: C20_29  and  O3_3 
REMARK    3  A    between atoms: C7_16  and  N1_8 
REMARK    4  A    between atoms: C14_23  and  N2_9 
REMARK    5  A    between atoms: C1_10  and  C4_13 
REMARK    6  A    between atoms: C12_21  and  C3_12 
ROOT
HETATM    1  O1  UNK     1      31.062  -9.413  33.920  1.00  0.00    -0.292 OA
HETATM    2  O2  UNK     1      28.318  -6.763  32.197  1.00  0.00    -0.274 OA
HETATM    3  O4  UNK     1      27.503  -6.256  34.265  1.00  0.00    -0.259 OA
HETATM    4  C1  UNK     1      29.371  -7.916  35.696  1.00  0.00     0.104 C 
HETATM    5  C2  UNK     1      29.316  -7.793  34.184  1.00  0.00     0.066 A 
HETATM    6  C3  UNK     1      30.244  -9.082  36.132  1.00  0.00     0.081 C 
HETATM    7  C5  UNK     1      30.142  -8.513  33.409  1.00  0.00     0.104 A 
HETATM    8  C6  UNK     1      30.121  -8.380  31.956  1.00  0.00     0.033 A 
HETATM    9  C7  UNK     1      31.035  -9.758  35.273  1.00  0.00     0.155 C 
HETATM   10  C8  UNK     1      28.308  -6.881  33.582  1.00  0.00     0.298 A 
HETATM   11  C9  UNK     1      29.206  -7.498  31.388  1.00  0.00     0.092 A 
HETATM   12  C13 UNK     1      30.974  -9.088  31.099  1.00  0.00     0.017 A 
HETATM   13  C16 UNK     1      29.120  -7.303  30.009  1.00  0.00     0.038 A 
HETATM   14  C18 UNK     1      30.900  -8.904  29.714  1.00  0.00     0.001 A 
HETATM   15  C19 UNK     1      29.975  -8.013  29.170  1.00  0.00     0.003 A 
ENDROOT
BRANCH   4  16
HETATM   16  C4  UNK     1      29.869  -6.639  36.307  1.00  0.00    -0.042 A 
HETATM   17  C10 UNK     1      29.158  -6.050  37.346  1.00  0.00     0.044 A 
HETATM   18  C14 UNK     1      29.620  -4.862  37.912  1.00  0.00     0.103 A 
HETATM   19  C17 UNK     1      30.789  -4.270  37.435  1.00  0.00     0.036 A 
HETATM   20  C15 UNK     1      31.497  -4.867  36.392  1.00  0.00     0.003 A 
HETATM   21  C11 UNK     1      31.036  -6.055  35.826  1.00  0.00     0.008 A 
BRANCH  18  22
HETATM   22  N2  UNK     1      28.900  -4.256  38.975  1.00  0.00    -0.116 N 
HETATM   23  O6  UNK     1      27.647  -4.255  38.931  1.00  0.00    -0.532 OA
HETATM   24  O7  UNK     1      29.541  -3.742  39.923  1.00  0.00    -0.532 OA
ENDBRANCH  18  22
ENDBRANCH   4  16
BRANCH   6  25
HETATM   25  C12 UNK     1      30.164  -9.462  37.554  1.00  0.00     0.294 C 
HETATM   26  O5  UNK     1      31.142  -9.615  38.260  1.00  0.00    -0.259 OA
BRANCH  25  27
HETATM   27  O3  UNK     1      28.857  -9.598  37.885  1.00  0.00    -0.318 OA
BRANCH  27  28
HETATM   28  C20 UNK     1      28.592  -9.638  39.292  1.00  0.00     0.174 C 
HETATM   29  C21 UNK     1      27.583  -8.562  39.633  1.00  0.00     0.034 C 
ENDBRANCH  27  28
ENDBRANCH  25  27
ENDBRANCH   6  25
BRANCH   9  30
HETATM   30  N1  UNK     1      31.860 -10.803  35.580  1.00  0.00    -0.379 N 
HETATM   31  H8  UNK     1      32.775 -10.847  35.151  1.00  0.00     0.158 HD
HETATM   32  H9  UNK     1      31.562 -11.524  36.224  1.00  0.00     0.158 HD
ENDBRANCH   9  30
TORSDOF 6
ENDMDL
MODEL 6
REMARK VINA RESULT:      -7.9      1.953      2.627
REMARK  6 active torsions:
REMARK  status: ('A' for Active; 'I' for Inactive)
REMARK    1  A    between atoms: C12_21  and  O3_3 
REMARK    2  A    between atoms: C20_29  and  O3_3 
REMARK    3  A    between atoms: C7_16  and  N1_8 
REMARK    4  A    between atoms: C14_23  and  N2_9 
REMARK    5  A    between atoms: C1_10  and  C4_13 
REMARK    6  A    between atoms: C12_21  and  C3_12 
ROOT
HETATM    1  O1  UNK     1      30.256  -5.731  33.741  1.00  0.00    -0.292 OA
HETATM    2  O2  UNK     1      28.361  -9.328  32.748  1.00  0.00    -0.274 OA
HETATM    3  O4  UNK     1      29.118 -10.266  34.683  1.00  0.00    -0.259 OA
HETATM    4  C1  UNK     1      30.397  -7.874  35.649  1.00  0.00     0.104 C 
HETATM    5  C2  UNK     1      29.678  -7.984  34.317  1.00  0.00     0.066 A 
HETATM    6  C3  UNK     1      31.219  -6.599  35.740  1.00  0.00     0.081 C 
HETATM    7  C5  UNK     1      29.639  -6.942  33.473  1.00  0.00     0.104 A 
HETATM    8  C6  UNK     1      28.924  -7.024  32.203  1.00  0.00     0.033 A 
HETATM    9  C7  UNK     1      31.121  -5.606  34.830  1.00  0.00     0.155 C 
HETATM   10  C8  UNK     1      29.046  -9.281  33.956  1.00  0.00     0.298 A 
HETATM   11  C9  UNK     1      28.297  -8.223  31.878  1.00  0.00     0.092 A 
HETATM   12  C13 UNK     1      28.831  -5.962  31.295  1.00  0.00     0.017 A 
HETATM   13  C16 UNK     1      27.586  -8.390  30.689  1.00  0.00     0.038 A 
HETATM   14  C18 UNK     1      28.122  -6.114  30.098  1.00  0.00     0.001 A 
HETATM   15  C19 UNK     1      27.501  -7.325  29.796  1.00  0.00     0.003 A 
ENDROOT
BRANCH   4  16
HETATM   16  C4  UNK     1      29.413  -7.937  36.781  1.00  0.00    -0.042 A 
HETATM   17  C10 UNK     1      29.493  -8.972  37.706  1.00  0.00     0.044 A 
HETATM   18  C14 UNK     1      28.578  -9.031  38.756  1.00  0.00     0.103 A 
HETATM   19  C17 UNK     1      27.587  -8.056  38.874  1.00  0.00     0.036 A 
HETATM   20  C15 UNK     1      27.513  -7.021  37.942  1.00  0.00     0.003 A 
HETATM   21  C11 UNK     1      28.429  -6.962  36.892  1.00  0.00     0.008 A 
BRANCH  18  22
HETATM   22  N2  UNK     1      28.655 -10.084  39.706  1.00  0.00    -0.116 N 
HETATM   23  O6  UNK     1      27.681 -10.277  40.473  1.00  0.00    -0.532 OA
HETATM   24  O7  UNK     1      29.693 -10.786  39.747  1.00  0.00    -0.532 OA
ENDBRANCH  18  22
ENDBRANCH   4  16
BRANCH   6  25
HETATM   25  C12 UNK     1      32.163  -6.508  36.868  1.00  0.00     0.294 C 
HETATM   26  O5  UNK     1      32.954  -7.388  37.149  1.00  0.00    -0.259 OA
BRANCH  25  27
HETATM   27  O3  UNK     1      31.977  -5.316  37.484  1.00  0.00    -0.318 OA
BRANCH  27  28
HETATM   28  C20 UNK     1      31.203  -5.372  38.687  1.00  0.00     0.174 C 
HETATM   29  C21 UNK     1      30.129  -4.307  38.632  1.00  0.00     0.034 C 
ENDBRANCH  27  28
ENDBRANCH  25  27
ENDBRANCH   6  25
BRANCH   9  30
HETATM   30  N1  UNK     1      31.807  -4.425  34.842  1.00  0.00    -0.379 N 
HETATM   31  H8  UNK     1      32.346  -4.179  35.662  1.00  0.00     0.158 HD
HETATM   32  H9  UNK     1      31.777  -3.802  34.045  1.00  0.00     0.158 HD
ENDBRANCH   9  30
TORSDOF 6
ENDMDL
MODEL 7
REMARK VINA RESULT:      -7.8      3.601      7.789
REMARK  6 active torsions:
REMARK  status: ('A' for Active; 'I' for Inactive)
REMARK    1  A    between atoms: C12_21  and  O3_3 
REMARK    2  A    between atoms: C20_29  and  O3_3 
REMARK    3  A    between atoms: C7_16  and  N1_8 
REMARK    4  A    between atoms: C14_23  and  N2_9 
REMARK    5  A    between atoms: C1_10  and  C4_13 
REMARK    6  A    between atoms: C12_21  and  C3_12 
ROOT
HETATM    1  O1  UNK     1      30.701  -5.470  33.758  1.00  0.00    -0.292 OA
HETATM    2  O2  UNK     1      32.496  -8.343  36.216  1.00  0.00    -0.274 OA
HETATM    3  O4  UNK     1      32.275  -9.900  34.565  1.00  0.00    -0.259 OA
HETATM    4  C1  UNK     1      31.135  -8.083  32.644  1.00  0.00     0.104 C 
HETATM    5  C2  UNK     1      31.521  -7.702  34.062  1.00  0.00     0.066 A 
HETATM    6  C3  UNK     1      30.290  -7.005  31.984  1.00  0.00     0.081 C 
HETATM    7  C5  UNK     1      31.301  -6.460  34.520  1.00  0.00     0.104 A 
HETATM    8  C6  UNK     1      31.696  -6.071  35.870  1.00  0.00     0.033 A 
HETATM    9  C7  UNK     1      30.114  -5.783  32.530  1.00  0.00     0.155 C 
HETATM   10  C8  UNK     1      32.117  -8.743  34.940  1.00  0.00     0.298 A 
HETATM   11  C9  UNK     1      32.292  -7.031  36.683  1.00  0.00     0.092 A 
HETATM   12  C13 UNK     1      31.513  -4.785  36.392  1.00  0.00     0.017 A 
HETATM   13  C16 UNK     1      32.707  -6.747  37.984  1.00  0.00     0.038 A 
HETATM   14  C18 UNK     1      31.923  -4.485  37.696  1.00  0.00     0.001 A 
HETATM   15  C19 UNK     1      32.519  -5.464  38.490  1.00  0.00     0.003 A 
ENDROOT
BRANCH   4  16
HETATM   16  C4  UNK     1      32.362  -8.354  31.824  1.00  0.00    -0.042 A 
HETATM   17  C10 UNK     1      33.321  -7.359  31.669  1.00  0.00     0.044 A 
HETATM   18  C14 UNK     1      34.460  -7.612  30.905  1.00  0.00     0.103 A 
HETATM   19  C17 UNK     1      34.633  -8.857  30.300  1.00  0.00     0.036 A 
HETATM   20  C15 UNK     1      33.666  -9.850  30.460  1.00  0.00     0.003 A 
HETATM   21  C11 UNK     1      32.527  -9.598  31.224  1.00  0.00     0.008 A 
BRANCH  18  22
HETATM   22  N2  UNK     1      35.445  -6.602  30.744  1.00  0.00    -0.116 N 
HETATM   23  O6  UNK     1      36.111  -6.244  31.745  1.00  0.00    -0.532 OA
HETATM   24  O7  UNK     1      35.616  -6.102  29.606  1.00  0.00    -0.532 OA
ENDBRANCH  18  22
ENDBRANCH   4  16
BRANCH   6  25
HETATM   25  C12 UNK     1      29.638  -7.372  30.713  1.00  0.00     0.294 C 
HETATM   26  O5  UNK     1      29.983  -6.930  29.634  1.00  0.00    -0.259 OA
BRANCH  25  27
HETATM   27  O3  UNK     1      28.642  -8.249  30.984  1.00  0.00    -0.318 OA
BRANCH  27  28
HETATM   28  C20 UNK     1      27.491  -8.134  30.140  1.00  0.00     0.174 C 
HETATM   29  C21 UNK     1      26.648  -6.969  30.612  1.00  0.00     0.034 C 
ENDBRANCH  27  28
ENDBRANCH  25  27
ENDBRANCH   6  25
BRANCH   9  30
HETATM   30  N1  UNK     1      29.388  -4.755  32.001  1.00  0.00    -0.379 N 
HETATM   31  H8  UNK     1      29.217  -4.738  31.004  1.00  0.00     0.158 HD
HETATM   32  H9  UNK     1      29.027  -4.019  32.593  1.00  0.00     0.158 HD
ENDBRANCH   9  30
TORSDOF 6
ENDMDL
MODEL 8
REMARK VINA RESULT:      -7.7      4.222      7.709
REMARK  6 active torsions:
REMARK  status: ('A' for Active; 'I' for Inactive)
REMARK    1  A    between atoms: C12_21  and  O3_3 
REMARK    2  A    between atoms: C20_29  and  O3_3 
REMARK    3  A    between atoms: C7_16  and  N1_8 
REMARK    4  A    between atoms: C14_23  and  N2_9 
REMARK    5  A    between atoms: C1_10  and  C4_13 
REMARK    6  A    between atoms: C12_21  and  C3_12 
ROOT
HETATM    1  O1  UNK     1      31.500  -8.867  35.788  1.00  0.00    -0.292 OA
HETATM    2  O2  UNK     1      32.559  -4.818  35.806  1.00  0.00    -0.274 OA
HETATM    3  O4  UNK     1      34.129  -5.217  34.202  1.00  0.00    -0.259 OA
HETATM    4  C1  UNK     1      33.500  -8.012  33.912  1.00  0.00     0.104 C 
HETATM    5  C2  UNK     1      32.820  -7.077  34.895  1.00  0.00     0.066 A 
HETATM    6  C3  UNK     1      33.173  -9.468  34.203  1.00  0.00     0.081 C 
HETATM    7  C5  UNK     1      31.884  -7.537  35.740  1.00  0.00     0.104 A 
HETATM    8  C6  UNK     1      31.200  -6.643  36.668  1.00  0.00     0.033 A 
HETATM    9  C7  UNK     1      32.220  -9.835  35.085  1.00  0.00     0.155 C 
HETATM   10  C8  UNK     1      33.236  -5.650  34.922  1.00  0.00     0.298 A 
HETATM   11  C9  UNK     1      31.556  -5.297  36.670  1.00  0.00     0.092 A 
HETATM   12  C13 UNK     1      30.200  -7.062  37.555  1.00  0.00     0.017 A 
HETATM   13  C16 UNK     1      30.951  -4.370  37.519  1.00  0.00     0.038 A 
HETATM   14  C18 UNK     1      29.584  -6.145  38.413  1.00  0.00     0.001 A 
HETATM   15  C19 UNK     1      29.958  -4.801  38.395  1.00  0.00     0.003 A 
ENDROOT
BRANCH   4  16
HETATM   16  C4  UNK     1      33.110  -7.665  32.504  1.00  0.00    -0.042 A 
HETATM   17  C10 UNK     1      34.093  -7.525  31.532  1.00  0.00     0.044 A 
HETATM   18  C14 UNK     1      33.729  -7.201  30.225  1.00  0.00     0.103 A 
HETATM   19  C17 UNK     1      32.386  -7.018  29.899  1.00  0.00     0.036 A 
HETATM   20  C15 UNK     1      31.405  -7.160  30.881  1.00  0.00     0.003 A 
HETATM   21  C11 UNK     1      31.768  -7.484  32.188  1.00  0.00     0.008 A 
BRANCH  18  22
HETATM   22  N2  UNK     1      34.728  -7.058  29.225  1.00  0.00    -0.116 N 
HETATM   23  O6  UNK     1      34.747  -7.872  28.272  1.00  0.00    -0.532 OA
HETATM   24  O7  UNK     1      35.557  -6.122  29.329  1.00  0.00    -0.532 OA
ENDBRANCH  18  22
ENDBRANCH   4  16
BRANCH   6  25
HETATM   25  C12 UNK     1      33.978 -10.474  33.488  1.00  0.00     0.294 C 
HETATM   26  O5  UNK     1      35.194 -10.464  33.468  1.00  0.00    -0.259 OA
BRANCH  25  27
HETATM   27  O3  UNK     1      33.134 -11.354  32.898  1.00  0.00    -0.318 OA
BRANCH  27  28
HETATM   28  C20 UNK     1      33.087 -11.282  31.469  1.00  0.00     0.174 C 
HETATM   29  C21 UNK     1      31.669 -10.972  31.038  1.00  0.00     0.034 C 
ENDBRANCH  27  28
ENDBRANCH  25  27
ENDBRANCH   6  25
BRANCH   9  30
HETATM   30  N1  UNK     1      31.851 -11.113  35.395  1.00  0.00    -0.379 N 
HETATM   31  H8  UNK     1      31.007 -11.493  34.986  1.00  0.00     0.158 HD
HETATM   32  H9  UNK     1      32.410 -11.673  36.026  1.00  0.00     0.158 HD
ENDBRANCH   9  30
TORSDOF 6
ENDMDL
MODEL 9
REMARK VINA RESULT:      -7.7      2.383      5.603
REMARK  6 active torsions:
REMARK  status: ('A' for Active; 'I' for Inactive)
REMARK    1  A    between atoms: C12_21  and  O3_3 
REMARK    2  A    between atoms: C20_29  and  O3_3 
REMARK    3  A    between atoms: C7_16  and  N1_8 
REMARK    4  A    between atoms: C14_23  and  N2_9 
REMARK    5  A    between atoms: C1_10  and  C4_13 
REMARK    6  A    between atoms: C12_21  and  C3_12 
ROOT
HETATM    1  O1  UNK     1      32.337  -8.234  33.360  1.00  0.00    -0.292 OA
HETATM    2  O2  UNK     1      34.876  -5.696  35.511  1.00  0.00    -0.274 OA
HETATM    3  O4  UNK     1      33.085  -4.434  36.144  1.00  0.00    -0.259 OA
HETATM    4  C1  UNK     1      31.124  -6.098  34.849  1.00  0.00     0.104 C 
HETATM    5  C2  UNK     1      32.621  -6.345  34.807  1.00  0.00     0.066 A 
HETATM    6  C3  UNK     1      30.385  -6.955  33.834  1.00  0.00     0.081 C 
HETATM    7  C5  UNK     1      33.125  -7.368  34.100  1.00  0.00     0.104 A 
HETATM    8  C6  UNK     1      34.560  -7.636  34.077  1.00  0.00     0.033 A 
HETATM    9  C7  UNK     1      30.983  -7.959  33.158  1.00  0.00     0.155 C 
HETATM   10  C8  UNK     1      33.516  -5.411  35.539  1.00  0.00     0.298 A 
HETATM   11  C9  UNK     1      35.399  -6.788  34.794  1.00  0.00     0.092 A 
HETATM   12  C13 UNK     1      35.139  -8.702  33.377  1.00  0.00     0.017 A 
HETATM   13  C16 UNK     1      36.781  -6.972  34.833  1.00  0.00     0.038 A 
HETATM   14  C18 UNK     1      36.524  -8.899  33.406  1.00  0.00     0.001 A 
HETATM   15  C19 UNK     1      37.344  -8.036  34.133  1.00  0.00     0.003 A 
ENDROOT
BRANCH   4  16
HETATM   16  C4  UNK     1      30.591  -6.353  36.229  1.00  0.00    -0.042 A 
HETATM   17  C10 UNK     1      30.003  -5.315  36.942  1.00  0.00     0.044 A 
HETATM   18  C14 UNK     1      29.509  -5.552  38.225  1.00  0.00     0.103 A 
HETATM   19  C17 UNK     1      29.607  -6.825  38.786  1.00  0.00     0.036 A 
HETATM   20  C15 UNK     1      30.199  -7.862  38.063  1.00  0.00     0.003 A 
HETATM   21  C11 UNK     1      30.692  -7.625  36.781  1.00  0.00     0.008 A 
BRANCH  18  22
HETATM   22  N2  UNK     1      28.905  -4.498  38.959  1.00  0.00    -0.116 N 
HETATM   23  O6  UNK     1      27.680  -4.280  38.805  1.00  0.00    -0.532 OA
HETATM   24  O7  UNK     1      29.617  -3.819  39.738  1.00  0.00    -0.532 OA
ENDBRANCH  18  22
ENDBRANCH   4  16
BRANCH   6  25
HETATM   25  C12 UNK     1      28.970  -6.616  33.598  1.00  0.00     0.294 C 
HETATM   26  O5  UNK     1      28.045  -7.295  34.001  1.00  0.00    -0.259 OA
BRANCH  25  27
HETATM   27  O3  UNK     1      28.921  -5.464  32.887  1.00  0.00    -0.318 OA
BRANCH  27  28
HETATM   28  C20 UNK     1      28.781  -5.634  31.472  1.00  0.00     0.174 C 
HETATM   29  C21 UNK     1      29.830  -4.797  30.770  1.00  0.00     0.034 C 
ENDBRANCH  27  28
ENDBRANCH  25  27
ENDBRANCH   6  25
BRANCH   9  30
HETATM   30  N1  UNK     1      30.394  -8.785  32.244  1.00  0.00    -0.379 N 
HETATM   31  H8  UNK     1      30.836  -8.913  31.343  1.00  0.00     0.158 HD
HETATM   32  H9  UNK     1      29.529  -9.262  32.461  1.00  0.00     0.158 HD
ENDBRANCH   9  30
TORSDOF 6
ENDMDL
MODEL 10
REMARK VINA RESULT:      -7.6      4.985      8.579
REMARK  6 active torsions:
REMARK  status: ('A' for Active; 'I' for Inactive)
REMARK    1  A    between atoms: C12_21  and  O3_3 
REMARK    2  A    between atoms: C20_29  and  O3_3 
REMARK    3  A    between atoms: C7_16  and  N1_8 
REMARK    4  A    between atoms: C14_23  and  N2_9 
REMARK    5  A    between atoms: C1_10  and  C4_13 
REMARK    6  A    between atoms: C12_21  and  C3_12 
ROOT
HETATM    1  O1  UNK     1      33.131 -11.271  30.929  1.00  0.00    -0.292 OA
HETATM    2  O2  UNK     1      35.955  -8.185  31.059  1.00  0.00    -0.274 OA
HETATM    3  O4  UNK     1      34.636  -6.916  29.701  1.00  0.00    -0.259 OA
HETATM    4  C1  UNK     1      32.490  -8.830  29.557  1.00  0.00     0.104 C 
HETATM    5  C2  UNK     1      33.786  -9.050  30.315  1.00  0.00     0.066 A 
HETATM    6  C3  UNK     1      31.698 -10.120  29.415  1.00  0.00     0.081 C 
HETATM    7  C5  UNK     1      34.022 -10.211  30.946  1.00  0.00     0.104 A 
HETATM    8  C6  UNK     1      35.250 -10.423  31.705  1.00  0.00     0.033 A 
HETATM    9  C7  UNK     1      32.021 -11.248  30.082  1.00  0.00     0.155 C 
HETATM   10  C8  UNK     1      34.801  -7.963  30.317  1.00  0.00     0.298 A 
HETATM   11  C9  UNK     1      36.186  -9.393  31.744  1.00  0.00     0.092 A 
HETATM   12  C13 UNK     1      35.538 -11.603  32.401  1.00  0.00     0.017 A 
HETATM   13  C16 UNK     1      37.384  -9.506  32.450  1.00  0.00     0.038 A 
HETATM   14  C18 UNK     1      36.735 -11.732  33.113  1.00  0.00     0.001 A 
HETATM   15  C19 UNK     1      37.657 -10.685  33.137  1.00  0.00     0.003 A 
ENDROOT
BRANCH   4  16
HETATM   16  C4  UNK     1      31.657  -7.783  30.237  1.00  0.00    -0.042 A 
HETATM   17  C10 UNK     1      31.361  -7.911  31.589  1.00  0.00     0.044 A 
HETATM   18  C14 UNK     1      30.585  -6.938  32.220  1.00  0.00     0.103 A 
HETATM   19  C17 UNK     1      30.111  -5.846  31.495  1.00  0.00     0.036 A 
HETATM   20  C15 UNK     1      30.412  -5.725  30.138  1.00  0.00     0.003 A 
HETATM   21  C11 UNK     1      31.188  -6.697  29.507  1.00  0.00     0.008 A 
BRANCH  18  22
HETATM   22  N2  UNK     1      30.280  -7.060  33.602  1.00  0.00    -0.116 N 
HETATM   23  O6  UNK     1      30.467  -6.071  34.350  1.00  0.00    -0.532 OA
HETATM   24  O7  UNK     1      29.833  -8.152  34.027  1.00  0.00    -0.532 OA
ENDBRANCH  18  22
ENDBRANCH   4  16
BRANCH   6  25
HETATM   25  C12 UNK     1      30.561 -10.089  28.477  1.00  0.00     0.294 C 
HETATM   26  O5  UNK     1      30.687  -9.917  27.280  1.00  0.00    -0.259 OA
BRANCH  25  27
HETATM   27  O3  UNK     1      29.421 -10.280  29.184  1.00  0.00    -0.318 OA
BRANCH  27  28
HETATM   28  C20 UNK     1      28.415  -9.281  28.990  1.00  0.00     0.174 C 
HETATM   29  C21 UNK     1      27.940  -8.792  30.342  1.00  0.00     0.034 C 
ENDBRANCH  27  28
ENDBRANCH  25  27
ENDBRANCH   6  25
BRANCH   9  30
HETATM   30  N1  UNK     1      31.359 -12.441  30.026  1.00  0.00    -0.379 N 
HETATM   31  H8  UNK     1      31.798 -13.264  30.419  1.00  0.00     0.158 HD
HETATM   32  H9  UNK     1      30.445 -12.505  29.598  1.00  0.00     0.158 HD
ENDBRANCH   9  30
TORSDOF 6
ENDMDL
