MODEL 1
REMARK VINA RESULT:      -8.1      0.000      0.000
REMARK  7 active torsions:
REMARK  status: ('A' for Active; 'I' for Inactive)
REMARK    1  A    between atoms: C11_16  and  O2_2 
REMARK    2  A    between atoms: C13_18  and  O2_2 
REMARK    3  A    between atoms: C19_24  and  O4_4 
REMARK    4  A    between atoms: C21_26  and  O4_4 
REMARK    5  A    between atoms: C2_7  and  C4_9 
REMARK    6  A    between atoms: C4_9  and  C8_13 
REMARK    7  A    between atoms: C13_18  and  C19_24 
ROOT
HETATM    1  O1  UNK     1      20.331  -5.434  34.294  1.00  0.00    -0.274 OA
HETATM    2  O3  UNK     1      20.498  -7.592  33.610  1.00  0.00    -0.259 OA
HETATM    3  C1  UNK     1      19.881  -6.365  36.930  1.00  0.00    -0.036 A 
HETATM    4  C2  UNK     1      20.051  -7.251  35.925  1.00  0.00     0.029 A 
HETATM    5  C3  UNK     1      19.894  -4.917  36.630  1.00  0.00     0.005 A 
HETATM    6  C5  UNK     1      20.121  -4.503  35.321  1.00  0.00     0.092 A 
HETATM    7  C6  UNK     1      19.680  -3.916  37.590  1.00  0.00     0.017 A 
HETATM    8  C7  UNK     1      20.307  -6.800  34.527  1.00  0.00     0.295 A 
HETATM    9  C9  UNK     1      20.150  -3.155  34.954  1.00  0.00     0.075 A 
HETATM   10  C10 UNK     1      19.688  -6.761  38.372  1.00  0.00     0.050 C 
HETATM   11  C11 UNK     1      19.941  -2.180  35.922  1.00  0.00     0.072 A 
HETATM   12  C12 UNK     1      19.704  -2.560  37.240  1.00  0.00     0.038 A 
ENDROOT
BRANCH  11  13
HETATM   13  O2  UNK     1      19.963  -0.863  35.585  1.00  0.00    -0.336 OA
BRANCH  13  14
HETATM   14  C13 UNK     1      18.716  -0.170  35.585  1.00  0.00     0.224 C 
HETATM   15  C16 UNK     1      18.988   1.289  35.908  1.00  0.00     0.051 C 
BRANCH  14  16
HETATM   16  C19 UNK     1      18.073  -0.324  34.222  1.00  0.00     0.288 C 
HETATM   17  O5  UNK     1      16.901  -0.625  34.037  1.00  0.00    -0.262 OA
BRANCH  16  18
HETATM   18  O4  UNK     1      18.991  -0.052  33.248  1.00  0.00    -0.320 OA
BRANCH  18  19
HETATM   19  C21 UNK     1      19.044  -0.991  32.170  1.00  0.00     0.174 C 
HETATM   20  C22 UNK     1      19.911  -0.426  31.065  1.00  0.00     0.034 C 
ENDBRANCH  18  19
ENDBRANCH  16  18
ENDBRANCH  14  16
ENDBRANCH  13  14
ENDBRANCH  11  13
BRANCH   4  21
HETATM   21  C4  UNK     1      19.997  -8.749  36.079  1.00  0.00     0.084 C 
BRANCH  21  22
HETATM   22  C8  UNK     1      21.365  -9.362  36.140  1.00  0.00    -0.054 A 
HETATM   23  C14 UNK     1      22.391  -8.693  36.798  1.00  0.00     0.007 A 
HETATM   24  C17 UNK     1      23.663  -9.262  36.854  1.00  0.00     0.001 A 
HETATM   25  C20 UNK     1      23.901 -10.497  36.252  1.00  0.00     0.000 A 
HETATM   26  C18 UNK     1      22.867 -11.163  35.593  1.00  0.00     0.001 A 
HETATM   27  C15 UNK     1      21.596 -10.593  35.537  1.00  0.00     0.007 A 
ENDBRANCH  21  22
ENDBRANCH   4  21
TORSDOF 7
ENDMDL
MODEL 2
REMARK VINA RESULT:      -7.9     28.547     30.518
REMARK  7 active torsions:
REMARK  status: ('A' for Active; 'I' for Inactive)
REMARK    1  A    between atoms: C11_16  and  O2_2 
REMARK    2  A    between atoms: C13_18  and  O2_2 
REMARK    3  A    between atoms: C19_24  and  O4_4 
REMARK    4  A    between atoms: C21_26  and  O4_4 
REMARK    5  A    between atoms: C2_7  and  C4_9 
REMARK    6  A    between atoms: C4_9  and  C8_13 
REMARK    7  A    between atoms: C13_18  and  C19_24 
ROOT
HETATM    1  O1  UNK     1      15.987   6.432   9.812  1.00  0.00    -0.274 OA
HETATM    2  O3  UNK     1      14.845   4.470   9.769  1.00  0.00    -0.259 OA
HETATM    3  C1  UNK     1      13.512   7.806   9.789  1.00  0.00    -0.036 A 
HETATM    4  C2  UNK     1      13.530   6.457   9.745  1.00  0.00     0.029 A 
HETATM    5  C3  UNK     1      14.790   8.549   9.808  1.00  0.00     0.005 A 
HETATM    6  C5  UNK     1      15.984   7.834   9.821  1.00  0.00     0.092 A 
HETATM    7  C6  UNK     1      14.882   9.950   9.805  1.00  0.00     0.017 A 
HETATM    8  C7  UNK     1      14.814   5.697   9.773  1.00  0.00     0.295 A 
HETATM    9  C9  UNK     1      17.233   8.459   9.840  1.00  0.00     0.075 A 
HETATM   10  C10 UNK     1      12.246   8.625   9.834  1.00  0.00     0.050 C 
HETATM   11  C11 UNK     1      17.302   9.847   9.843  1.00  0.00     0.072 A 
HETATM   12  C12 UNK     1      16.126  10.593   9.823  1.00  0.00     0.038 A 
ENDROOT
BRANCH  11  13
HETATM   13  O2  UNK     1      18.508  10.474   9.860  1.00  0.00    -0.336 OA
BRANCH  13  14
HETATM   14  C13 UNK     1      18.505  11.895   9.727  1.00  0.00     0.224 C 
HETATM   15  C16 UNK     1      18.936  12.494  11.055  1.00  0.00     0.051 C 
BRANCH  14  16
HETATM   16  C19 UNK     1      19.454  12.281   8.612  1.00  0.00     0.288 C 
HETATM   17  O5  UNK     1      19.324  13.269   7.900  1.00  0.00    -0.262 OA
BRANCH  16  18
HETATM   18  O4  UNK     1      20.477  11.379   8.547  1.00  0.00    -0.320 OA
BRANCH  18  19
HETATM   19  C21 UNK     1      21.768  11.930   8.268  1.00  0.00     0.174 C 
HETATM   20  C22 UNK     1      22.390  12.409   9.563  1.00  0.00     0.034 C 
ENDBRANCH  18  19
ENDBRANCH  16  18
ENDBRANCH  14  16
ENDBRANCH  13  14
ENDBRANCH  11  13
BRANCH   4  21
HETATM   21  C4  UNK     1      12.307   5.580   9.658  1.00  0.00     0.084 C 
BRANCH  21  22
HETATM   22  C8  UNK     1      11.529   5.818   8.399  1.00  0.00    -0.054 A 
HETATM   23  C14 UNK     1      12.196   5.896   7.181  1.00  0.00     0.007 A 
HETATM   24  C17 UNK     1      11.473   6.117   6.009  1.00  0.00     0.001 A 
HETATM   25  C20 UNK     1      10.087   6.258   6.062  1.00  0.00     0.000 A 
HETATM   26  C18 UNK     1       9.423   6.179   7.287  1.00  0.00     0.001 A 
HETATM   27  C15 UNK     1      10.147   5.958   8.458  1.00  0.00     0.007 A 
ENDBRANCH  21  22
ENDBRANCH   4  21
TORSDOF 7
ENDMDL
MODEL 3
REMARK VINA RESULT:      -7.9     28.524     30.712
REMARK  7 active torsions:
REMARK  status: ('A' for Active; 'I' for Inactive)
REMARK    1  A    between atoms: C11_16  and  O2_2 
REMARK    2  A    between atoms: C13_18  and  O2_2 
REMARK    3  A    between atoms: C19_24  and  O4_4 
REMARK    4  A    between atoms: C21_26  and  O4_4 
REMARK    5  A    between atoms: C2_7  and  C4_9 
REMARK    6  A    between atoms: C4_9  and  C8_13 
REMARK    7  A    between atoms: C13_18  and  C19_24 
ROOT
HETATM    1  O1  UNK     1      15.946   6.370   9.841  1.00  0.00    -0.274 OA
HETATM    2  O3  UNK     1      14.786   4.420   9.788  1.00  0.00    -0.259 OA
HETATM    3  C1  UNK     1      13.484   7.768   9.786  1.00  0.00    -0.036 A 
HETATM    4  C2  UNK     1      13.490   6.419   9.745  1.00  0.00     0.029 A 
HETATM    5  C3  UNK     1      14.769   8.499   9.820  1.00  0.00     0.005 A 
HETATM    6  C5  UNK     1      15.955   7.773   9.848  1.00  0.00     0.092 A 
HETATM    7  C6  UNK     1      14.874   9.899   9.816  1.00  0.00     0.017 A 
HETATM    8  C7  UNK     1      14.766   5.647   9.789  1.00  0.00     0.295 A 
HETATM    9  C9  UNK     1      17.211   8.386   9.882  1.00  0.00     0.075 A 
HETATM   10  C10 UNK     1      12.226   8.600   9.814  1.00  0.00     0.050 C 
HETATM   11  C11 UNK     1      17.292   9.773   9.883  1.00  0.00     0.072 A 
HETATM   12  C12 UNK     1      16.124  10.530   9.848  1.00  0.00     0.038 A 
ENDROOT
BRANCH  11  13
HETATM   13  O2  UNK     1      18.504  10.388   9.914  1.00  0.00    -0.336 OA
BRANCH  13  14
HETATM   14  C13 UNK     1      18.536  11.779   9.593  1.00  0.00     0.224 C 
HETATM   15  C16 UNK     1      18.913  12.545  10.850  1.00  0.00     0.051 C 
BRANCH  14  16
HETATM   16  C19 UNK     1      19.549  11.999   8.488  1.00  0.00     0.288 C 
HETATM   17  O5  UNK     1      20.604  11.387   8.382  1.00  0.00    -0.262 OA
BRANCH  16  18
HETATM   18  O4  UNK     1      19.090  12.954   7.627  1.00  0.00    -0.320 OA
BRANCH  18  19
HETATM   19  C21 UNK     1      18.351  12.467   6.503  1.00  0.00     0.174 C 
HETATM   20  C22 UNK     1      19.086  12.838   5.232  1.00  0.00     0.034 C 
ENDBRANCH  18  19
ENDBRANCH  16  18
ENDBRANCH  14  16
ENDBRANCH  13  14
ENDBRANCH  11  13
BRANCH   4  21
HETATM   21  C4  UNK     1      12.260   5.554   9.644  1.00  0.00     0.084 C 
BRANCH  21  22
HETATM   22  C8  UNK     1      11.494   5.804   8.379  1.00  0.00    -0.054 A 
HETATM   23  C14 UNK     1      10.113   5.960   8.429  1.00  0.00     0.007 A 
HETATM   24  C17 UNK     1       9.400   6.192   7.253  1.00  0.00     0.001 A 
HETATM   25  C20 UNK     1      10.074   6.269   6.034  1.00  0.00     0.000 A 
HETATM   26  C18 UNK     1      11.459   6.112   5.991  1.00  0.00     0.001 A 
HETATM   27  C15 UNK     1      12.171   5.879   7.167  1.00  0.00     0.007 A 
ENDBRANCH  21  22
ENDBRANCH   4  21
TORSDOF 7
ENDMDL
MODEL 4
REMARK VINA RESULT:      -7.8     29.047     31.127
REMARK  7 active torsions:
REMARK  status: ('A' for Active; 'I' for Inactive)
REMARK    1  A    between atoms: C11_16  and  O2_2 
REMARK    2  A    between atoms: C13_18  and  O2_2 
REMARK    3  A    between atoms: C19_24  and  O4_4 
REMARK    4  A    between atoms: C21_26  and  O4_4 
REMARK    5  A    between atoms: C2_7  and  C4_9 
REMARK    6  A    between atoms: C4_9  and  C8_13 
REMARK    7  A    between atoms: C13_18  and  C19_24 
ROOT
HETATM    1  O1  UNK     1      12.651   9.108   9.878  1.00  0.00    -0.274 OA
HETATM    2  O3  UNK     1      13.615  10.926  10.835  1.00  0.00    -0.259 OA
HETATM    3  C1  UNK     1      15.188   7.852   9.842  1.00  0.00    -0.036 A 
HETATM    4  C2  UNK     1      15.068   9.109  10.320  1.00  0.00     0.029 A 
HETATM    5  C3  UNK     1      13.995   7.163   9.306  1.00  0.00     0.005 A 
HETATM    6  C5  UNK     1      12.767   7.816   9.345  1.00  0.00     0.092 A 
HETATM    7  C6  UNK     1      14.020   5.878   8.743  1.00  0.00     0.017 A 
HETATM    8  C7  UNK     1      13.746   9.797  10.371  1.00  0.00     0.295 A 
HETATM    9  C9  UNK     1      11.592   7.235   8.861  1.00  0.00     0.075 A 
HETATM   10  C10 UNK     1      16.484   7.081   9.829  1.00  0.00     0.050 C 
HETATM   11  C11 UNK     1      11.637   5.959   8.312  1.00  0.00     0.072 A 
HETATM   12  C12 UNK     1      12.852   5.280   8.252  1.00  0.00     0.038 A 
ENDROOT
BRANCH  11  13
HETATM   13  O2  UNK     1      10.506   5.377   7.835  1.00  0.00    -0.336 OA
BRANCH  13  14
HETATM   14  C13 UNK     1       9.529   6.237   7.249  1.00  0.00     0.224 C 
HETATM   15  C16 UNK     1       9.638   6.115   5.739  1.00  0.00     0.051 C 
BRANCH  14  16
HETATM   16  C19 UNK     1       8.158   5.820   7.739  1.00  0.00     0.288 C 
HETATM   17  O5  UNK     1       7.788   4.660   7.863  1.00  0.00    -0.262 OA
BRANCH  16  18
HETATM   18  O4  UNK     1       7.422   6.929   8.043  1.00  0.00    -0.320 OA
BRANCH  18  19
HETATM   19  C21 UNK     1       7.847   7.654   9.201  1.00  0.00     0.174 C 
HETATM   20  C22 UNK     1       7.260   7.003  10.435  1.00  0.00     0.034 C 
ENDBRANCH  18  19
ENDBRANCH  16  18
ENDBRANCH  14  16
ENDBRANCH  13  14
ENDBRANCH  11  13
BRANCH   4  21
HETATM   21  C4  UNK     1      16.210   9.948  10.835  1.00  0.00     0.084 C 
BRANCH  21  22
HETATM   22  C8  UNK     1      16.922  10.673   9.732  1.00  0.00    -0.054 A 
HETATM   23  C14 UNK     1      18.265  11.003   9.879  1.00  0.00     0.007 A 
HETATM   24  C17 UNK     1      18.928  11.677   8.854  1.00  0.00     0.001 A 
HETATM   25  C20 UNK     1      18.243  12.017   7.687  1.00  0.00     0.000 A 
HETATM   26  C18 UNK     1      16.896  11.682   7.545  1.00  0.00     0.001 A 
HETATM   27  C15 UNK     1      16.234  11.009   8.571  1.00  0.00     0.007 A 
ENDBRANCH  21  22
ENDBRANCH   4  21
TORSDOF 7
ENDMDL
MODEL 5
REMARK VINA RESULT:      -7.8      1.810      2.249
REMARK  7 active torsions:
REMARK  status: ('A' for Active; 'I' for Inactive)
REMARK    1  A    between atoms: C11_16  and  O2_2 
REMARK    2  A    between atoms: C13_18  and  O2_2 
REMARK    3  A    between atoms: C19_24  and  O4_4 
REMARK    4  A    between atoms: C21_26  and  O4_4 
REMARK    5  A    between atoms: C2_7  and  C4_9 
REMARK    6  A    between atoms: C4_9  and  C8_13 
REMARK    7  A    between atoms: C13_18  and  C19_24 
ROOT
HETATM    1  O1  UNK     1      22.243  -4.585  37.812  1.00  0.00    -0.274 OA
HETATM    2  O3  UNK     1      23.453  -6.231  38.802  1.00  0.00    -0.259 OA
HETATM    3  C1  UNK     1      19.980  -6.284  37.886  1.00  0.00    -0.036 A 
HETATM    4  C2  UNK     1      21.166  -6.726  38.355  1.00  0.00     0.029 A 
HETATM    5  C3  UNK     1      19.889  -4.928  37.304  1.00  0.00     0.005 A 
HETATM    6  C5  UNK     1      21.026  -4.125  37.289  1.00  0.00     0.092 A 
HETATM    7  C6  UNK     1      18.719  -4.391  36.747  1.00  0.00     0.017 A 
HETATM    8  C7  UNK     1      22.377  -5.855  38.349  1.00  0.00     0.295 A 
HETATM    9  C9  UNK     1      21.026  -2.832  36.759  1.00  0.00     0.075 A 
HETATM   10  C10 UNK     1      18.707  -7.093  37.931  1.00  0.00     0.050 C 
HETATM   11  C11 UNK     1      19.854  -2.317  36.217  1.00  0.00     0.072 A 
HETATM   12  C12 UNK     1      18.700  -3.097  36.209  1.00  0.00     0.038 A 
ENDROOT
BRANCH  11  13
HETATM   13  O2  UNK     1      19.834  -1.063  35.695  1.00  0.00    -0.336 OA
BRANCH  13  14
HETATM   14  C13 UNK     1      18.562  -0.423  35.588  1.00  0.00     0.224 C 
HETATM   15  C16 UNK     1      18.734   1.036  35.977  1.00  0.00     0.051 C 
BRANCH  14  16
HETATM   16  C19 UNK     1      18.067  -0.560  34.163  1.00  0.00     0.288 C 
HETATM   17  O5  UNK     1      16.908  -0.800  33.852  1.00  0.00    -0.262 OA
BRANCH  16  18
HETATM   18  O4  UNK     1      19.100  -0.350  33.296  1.00  0.00    -0.320 OA
BRANCH  18  19
HETATM   19  C21 UNK     1      19.186  -1.272  32.204  1.00  0.00     0.174 C 
HETATM   20  C22 UNK     1      20.355  -2.206  32.438  1.00  0.00     0.034 C 
ENDBRANCH  18  19
ENDBRANCH  16  18
ENDBRANCH  14  16
ENDBRANCH  13  14
ENDBRANCH  11  13
BRANCH   4  21
HETATM   21  C4  UNK     1      21.412  -8.104  38.914  1.00  0.00     0.084 C 
BRANCH  21  22
HETATM   22  C8  UNK     1      21.530  -9.140  37.836  1.00  0.00    -0.054 A 
HETATM   23  C14 UNK     1      22.614  -9.109  36.966  1.00  0.00     0.007 A 
HETATM   24  C17 UNK     1      22.723 -10.072  35.963  1.00  0.00     0.001 A 
HETATM   25  C20 UNK     1      21.747 -11.060  35.837  1.00  0.00     0.000 A 
HETATM   26  C18 UNK     1      20.662 -11.086  36.713  1.00  0.00     0.001 A 
HETATM   27  C15 UNK     1      20.553 -10.122  37.715  1.00  0.00     0.007 A 
ENDBRANCH  21  22
ENDBRANCH   4  21
TORSDOF 7
ENDMDL
MODEL 6
REMARK VINA RESULT:      -7.7     28.798     30.768
REMARK  7 active torsions:
REMARK  status: ('A' for Active; 'I' for Inactive)
REMARK    1  A    between atoms: C11_16  and  O2_2 
REMARK    2  A    between atoms: C13_18  and  O2_2 
REMARK    3  A    between atoms: C19_24  and  O4_4 
REMARK    4  A    between atoms: C21_26  and  O4_4 
REMARK    5  A    between atoms: C2_7  and  C4_9 
REMARK    6  A    between atoms: C4_9  and  C8_13 
REMARK    7  A    between atoms: C13_18  and  C19_24 
ROOT
HETATM    1  O1  UNK     1      13.537   8.982   9.857  1.00  0.00    -0.274 OA
HETATM    2  O3  UNK     1      11.325   8.485   9.749  1.00  0.00    -0.259 OA
HETATM    3  C1  UNK     1      14.111   6.220   9.624  1.00  0.00    -0.036 A 
HETATM    4  C2  UNK     1      12.827   6.638   9.652  1.00  0.00     0.029 A 
HETATM    5  C3  UNK     1      15.200   7.210   9.755  1.00  0.00     0.005 A 
HETATM    6  C5  UNK     1      14.874   8.558   9.865  1.00  0.00     0.092 A 
HETATM    7  C6  UNK     1      16.563   6.876   9.786  1.00  0.00     0.017 A 
HETATM    8  C7  UNK     1      12.486   8.086   9.757  1.00  0.00     0.295 A 
HETATM    9  C9  UNK     1      15.843   9.558   9.992  1.00  0.00     0.075 A 
HETATM   10  C10 UNK     1      14.517   4.777   9.450  1.00  0.00     0.050 C 
HETATM   11  C11 UNK     1      17.187   9.206  10.015  1.00  0.00     0.072 A 
HETATM   12  C12 UNK     1      17.548   7.864   9.914  1.00  0.00     0.038 A 
ENDROOT
BRANCH  11  13
HETATM   13  O2  UNK     1      18.144  10.163  10.138  1.00  0.00    -0.336 OA
BRANCH  13  14
HETATM   14  C13 UNK     1      17.850  11.451   9.599  1.00  0.00     0.224 C 
HETATM   15  C16 UNK     1      18.391  12.498  10.558  1.00  0.00     0.051 C 
BRANCH  14  16
HETATM   16  C19 UNK     1      18.497  11.565   8.234  1.00  0.00     0.288 C 
HETATM   17  O5  UNK     1      19.565  11.052   7.927  1.00  0.00    -0.262 OA
BRANCH  16  18
HETATM   18  O4  UNK     1      17.696  12.298   7.406  1.00  0.00    -0.320 OA
BRANCH  18  19
HETATM   19  C21 UNK     1      16.304  11.969   7.445  1.00  0.00     0.174 C 
HETATM   20  C22 UNK     1      15.495  13.215   7.149  1.00  0.00     0.034 C 
ENDBRANCH  18  19
ENDBRANCH  16  18
ENDBRANCH  14  16
ENDBRANCH  13  14
ENDBRANCH  11  13
BRANCH   4  21
HETATM   21  C4  UNK     1      11.624   5.733   9.593  1.00  0.00     0.084 C 
BRANCH  21  22
HETATM   22  C8  UNK     1      10.866   5.883   8.308  1.00  0.00    -0.054 A 
HETATM   23  C14 UNK     1       9.482   6.018   8.335  1.00  0.00     0.007 A 
HETATM   24  C17 UNK     1       8.777   6.157   7.140  1.00  0.00     0.001 A 
HETATM   25  C20 UNK     1       9.460   6.161   5.924  1.00  0.00     0.000 A 
HETATM   26  C18 UNK     1      10.848   6.025   5.903  1.00  0.00     0.001 A 
HETATM   27  C15 UNK     1      11.553   5.885   7.098  1.00  0.00     0.007 A 
ENDBRANCH  21  22
ENDBRANCH   4  21
TORSDOF 7
ENDMDL
MODEL 7
REMARK VINA RESULT:      -7.6     28.808     30.651
REMARK  7 active torsions:
REMARK  status: ('A' for Active; 'I' for Inactive)
REMARK    1  A    between atoms: C11_16  and  O2_2 
REMARK    2  A    between atoms: C13_18  and  O2_2 
REMARK    3  A    between atoms: C19_24  and  O4_4 
REMARK    4  A    between atoms: C21_26  and  O4_4 
REMARK    5  A    between atoms: C2_7  and  C4_9 
REMARK    6  A    between atoms: C4_9  and  C8_13 
REMARK    7  A    between atoms: C13_18  and  C19_24 
ROOT
HETATM    1  O1  UNK     1      13.561   8.992   9.867  1.00  0.00    -0.274 OA
HETATM    2  O3  UNK     1      11.344   8.521   9.751  1.00  0.00    -0.259 OA
HETATM    3  C1  UNK     1      14.103   6.225   9.609  1.00  0.00    -0.036 A 
HETATM    4  C2  UNK     1      12.824   6.658   9.639  1.00  0.00     0.029 A 
HETATM    5  C3  UNK     1      15.204   7.201   9.751  1.00  0.00     0.005 A 
HETATM    6  C5  UNK     1      14.893   8.552   9.873  1.00  0.00     0.092 A 
HETATM    7  C6  UNK     1      16.563   6.851   9.781  1.00  0.00     0.017 A 
HETATM    8  C7  UNK     1      12.500   8.109   9.757  1.00  0.00     0.295 A 
HETATM    9  C9  UNK     1      15.873   9.539  10.011  1.00  0.00     0.075 A 
HETATM   10  C10 UNK     1      14.493   4.780   9.422  1.00  0.00     0.050 C 
HETATM   11  C11 UNK     1      17.213   9.171  10.032  1.00  0.00     0.072 A 
HETATM   12  C12 UNK     1      17.558   7.827   9.919  1.00  0.00     0.038 A 
ENDROOT
BRANCH  11  13
HETATM   13  O2  UNK     1      18.181  10.115  10.167  1.00  0.00    -0.336 OA
BRANCH  13  14
HETATM   14  C13 UNK     1      17.870  11.435   9.719  1.00  0.00     0.224 C 
HETATM   15  C16 UNK     1      18.367  12.417  10.766  1.00  0.00     0.051 C 
BRANCH  14  16
HETATM   16  C19 UNK     1      18.542  11.665   8.382  1.00  0.00     0.288 C 
HETATM   17  O5  UNK     1      17.996  12.167   7.408  1.00  0.00    -0.262 OA
BRANCH  16  18
HETATM   18  O4  UNK     1      19.843  11.255   8.444  1.00  0.00    -0.320 OA
BRANCH  18  19
HETATM   19  C21 UNK     1      20.815  12.224   8.039  1.00  0.00     0.174 C 
HETATM   20  C22 UNK     1      21.982  12.186   9.003  1.00  0.00     0.034 C 
ENDBRANCH  18  19
ENDBRANCH  16  18
ENDBRANCH  14  16
ENDBRANCH  13  14
ENDBRANCH  11  13
BRANCH   4  21
HETATM   21  C4  UNK     1      11.611   5.768   9.569  1.00  0.00     0.084 C 
BRANCH  21  22
HETATM   22  C8  UNK     1      10.884   5.902   8.264  1.00  0.00    -0.054 A 
HETATM   23  C14 UNK     1       9.499   6.018   8.256  1.00  0.00     0.007 A 
HETATM   24  C17 UNK     1       8.822   6.142   7.042  1.00  0.00     0.001 A 
HETATM   25  C20 UNK     1       9.537   6.152   5.844  1.00  0.00     0.000 A 
HETATM   26  C18 UNK     1      10.927   6.037   5.859  1.00  0.00     0.001 A 
HETATM   27  C15 UNK     1      11.602   5.911   7.073  1.00  0.00     0.007 A 
ENDBRANCH  21  22
ENDBRANCH   4  21
TORSDOF 7
ENDMDL
MODEL 8
REMARK VINA RESULT:      -7.6      9.198     11.174
REMARK  7 active torsions:
REMARK  status: ('A' for Active; 'I' for Inactive)
REMARK    1  A    between atoms: C11_16  and  O2_2 
REMARK    2  A    between atoms: C13_18  and  O2_2 
REMARK    3  A    between atoms: C19_24  and  O4_4 
REMARK    4  A    between atoms: C21_26  and  O4_4 
REMARK    5  A    between atoms: C2_7  and  C4_9 
REMARK    6  A    between atoms: C4_9  and  C8_13 
REMARK    7  A    between atoms: C13_18  and  C19_24 
ROOT
HETATM    1  O1  UNK     1      28.198  -6.424  33.564  1.00  0.00    -0.274 OA
HETATM    2  O3  UNK     1      27.338  -6.162  31.479  1.00  0.00    -0.259 OA
HETATM    3  C1  UNK     1      28.890  -9.083  32.880  1.00  0.00    -0.036 A 
HETATM    4  C2  UNK     1      28.252  -8.304  31.981  1.00  0.00     0.029 A 
HETATM    5  C3  UNK     1      29.183  -8.547  34.226  1.00  0.00     0.005 A 
HETATM    6  C5  UNK     1      28.828  -7.234  34.520  1.00  0.00     0.092 A 
HETATM    7  C6  UNK     1      29.798  -9.288  35.248  1.00  0.00     0.017 A 
HETATM    8  C7  UNK     1      27.886  -6.893  32.298  1.00  0.00     0.295 A 
HETATM    9  C9  UNK     1      29.070  -6.651  35.766  1.00  0.00     0.075 A 
HETATM   10  C10 UNK     1      29.347 -10.492  32.593  1.00  0.00     0.050 C 
HETATM   11  C11 UNK     1      29.685  -7.400  36.762  1.00  0.00     0.072 A 
HETATM   12  C12 UNK     1      30.047  -8.720  36.504  1.00  0.00     0.038 A 
ENDROOT
BRANCH  11  13
HETATM   13  O2  UNK     1      29.927  -6.852  37.982  1.00  0.00    -0.336 OA
BRANCH  13  14
HETATM   14  C13 UNK     1      29.025  -5.842  38.433  1.00  0.00     0.224 C 
HETATM   15  C16 UNK     1      28.129  -6.451  39.497  1.00  0.00     0.051 C 
BRANCH  14  16
HETATM   16  C19 UNK     1      29.830  -4.683  38.984  1.00  0.00     0.288 C 
HETATM   17  O5  UNK     1      29.447  -3.933  39.873  1.00  0.00    -0.262 OA
BRANCH  16  18
HETATM   18  O4  UNK     1      31.043  -4.628  38.360  1.00  0.00    -0.320 OA
BRANCH  18  19
HETATM   19  C21 UNK     1      31.107  -3.779  37.210  1.00  0.00     0.174 C 
HETATM   20  C22 UNK     1      32.121  -4.343  36.236  1.00  0.00     0.034 C 
ENDBRANCH  18  19
ENDBRANCH  16  18
ENDBRANCH  14  16
ENDBRANCH  13  14
ENDBRANCH  11  13
BRANCH   4  21
HETATM   21  C4  UNK     1      27.837  -8.744  30.600  1.00  0.00     0.084 C 
BRANCH  21  22
HETATM   22  C8  UNK     1      28.998  -8.805  29.653  1.00  0.00    -0.054 A 
HETATM   23  C14 UNK     1      29.180  -9.931  28.859  1.00  0.00     0.007 A 
HETATM   24  C17 UNK     1      30.260  -9.988  27.977  1.00  0.00     0.001 A 
HETATM   25  C20 UNK     1      31.150  -8.917  27.895  1.00  0.00     0.000 A 
HETATM   26  C18 UNK     1      30.961  -7.790  28.694  1.00  0.00     0.001 A 
HETATM   27  C15 UNK     1      29.882  -7.734  29.576  1.00  0.00     0.007 A 
ENDBRANCH  21  22
ENDBRANCH   4  21
TORSDOF 7
ENDMDL
MODEL 9
REMARK VINA RESULT:      -7.6      6.606      9.790
REMARK  7 active torsions:
REMARK  status: ('A' for Active; 'I' for Inactive)
REMARK    1  A    between atoms: C11_16  and  O2_2 
REMARK    2  A    between atoms: C13_18  and  O2_2 
REMARK    3  A    between atoms: C19_24  and  O4_4 
REMARK    4  A    between atoms: C21_26  and  O4_4 
REMARK    5  A    between atoms: C2_7  and  C4_9 
REMARK    6  A    between atoms: C4_9  and  C8_13 
REMARK    7  A    between atoms: C13_18  and  C19_24 
ROOT
HETATM    1  O1  UNK     1      27.918  -4.986  39.081  1.00  0.00    -0.274 OA
HETATM    2  O3  UNK     1      29.965  -4.009  39.175  1.00  0.00    -0.259 OA
HETATM    3  C1  UNK     1      29.178  -7.424  38.383  1.00  0.00    -0.036 A 
HETATM    4  C2  UNK     1      29.924  -6.315  38.576  1.00  0.00     0.029 A 
HETATM    5  C3  UNK     1      27.707  -7.339  38.500  1.00  0.00     0.005 A 
HETATM    6  C5  UNK     1      27.129  -6.122  38.848  1.00  0.00     0.092 A 
HETATM    7  C6  UNK     1      26.839  -8.418  38.272  1.00  0.00     0.017 A 
HETATM    8  C7  UNK     1      29.298  -5.017  38.962  1.00  0.00     0.295 A 
HETATM    9  C9  UNK     1      25.748  -5.957  38.981  1.00  0.00     0.075 A 
HETATM   10  C10 UNK     1      29.760  -8.778  38.061  1.00  0.00     0.050 C 
HETATM   11  C11 UNK     1      24.907  -7.040  38.756  1.00  0.00     0.072 A 
HETATM   12  C12 UNK     1      25.452  -8.271  38.400  1.00  0.00     0.038 A 
ENDROOT
BRANCH  11  13
HETATM   13  O2  UNK     1      23.560  -6.900  38.879  1.00  0.00    -0.336 OA
BRANCH  13  14
HETATM   14  C13 UNK     1      22.756  -8.036  38.562  1.00  0.00     0.224 C 
HETATM   15  C16 UNK     1      21.978  -8.425  39.807  1.00  0.00     0.051 C 
BRANCH  14  16
HETATM   16  C19 UNK     1      21.828  -7.671  37.421  1.00  0.00     0.288 C 
HETATM   17  O5  UNK     1      20.825  -6.979  37.537  1.00  0.00    -0.262 OA
BRANCH  16  18
HETATM   18  O4  UNK     1      22.298  -8.207  36.257  1.00  0.00    -0.320 OA
BRANCH  18  19
HETATM   19  C21 UNK     1      22.635  -9.597  36.310  1.00  0.00     0.174 C 
HETATM   20  C22 UNK     1      21.881 -10.329  35.220  1.00  0.00     0.034 C 
ENDBRANCH  18  19
ENDBRANCH  16  18
ENDBRANCH  14  16
ENDBRANCH  13  14
ENDBRANCH  11  13
BRANCH   4  21
HETATM   21  C4  UNK     1      31.422  -6.246  38.426  1.00  0.00     0.084 C 
BRANCH  21  22
HETATM   22  C8  UNK     1      31.832  -5.694  37.093  1.00  0.00    -0.054 A 
HETATM   23  C14 UNK     1      31.165  -6.102  35.944  1.00  0.00     0.007 A 
HETATM   24  C17 UNK     1      31.547  -5.589  34.704  1.00  0.00     0.001 A 
HETATM   25  C20 UNK     1      32.593  -4.670  34.622  1.00  0.00     0.000 A 
HETATM   26  C18 UNK     1      33.258  -4.265  35.779  1.00  0.00     0.001 A 
HETATM   27  C15 UNK     1      32.876  -4.779  37.018  1.00  0.00     0.007 A 
ENDBRANCH  21  22
ENDBRANCH   4  21
TORSDOF 7
ENDMDL
MODEL 10
REMARK VINA RESULT:      -7.5      8.484     11.165
REMARK  7 active torsions:
REMARK  status: ('A' for Active; 'I' for Inactive)
REMARK    1  A    between atoms: C11_16  and  O2_2 
REMARK    2  A    between atoms: C13_18  and  O2_2 
REMARK    3  A    between atoms: C19_24  and  O4_4 
REMARK    4  A    between atoms: C21_26  and  O4_4 
REMARK    5  A    between atoms: C2_7  and  C4_9 
REMARK    6  A    between atoms: C4_9  and  C8_13 
REMARK    7  A    between atoms: C13_18  and  C19_24 
ROOT
HETATM    1  O1  UNK     1      28.998  -5.802  33.319  1.00  0.00    -0.274 OA
HETATM    2  O3  UNK     1      29.001  -5.082  31.166  1.00  0.00    -0.259 OA
HETATM    3  C1  UNK     1      30.811  -7.847  32.576  1.00  0.00    -0.036 A 
HETATM    4  C2  UNK     1      30.347  -6.990  31.642  1.00  0.00     0.029 A 
HETATM    5  C3  UNK     1      30.333  -7.729  33.970  1.00  0.00     0.005 A 
HETATM    6  C5  UNK     1      29.444  -6.708  34.293  1.00  0.00     0.092 A 
HETATM    7  C6  UNK     1      30.715  -8.596  35.006  1.00  0.00     0.017 A 
HETATM    8  C7  UNK     1      29.404  -5.890  31.997  1.00  0.00     0.295 A 
HETATM    9  C9  UNK     1      28.946  -6.526  35.585  1.00  0.00     0.075 A 
HETATM   10  C10 UNK     1      31.817  -8.933  32.290  1.00  0.00     0.050 C 
HETATM   11  C11 UNK     1      29.341  -7.393  36.597  1.00  0.00     0.072 A 
HETATM   12  C12 UNK     1      30.224  -8.429  36.307  1.00  0.00     0.038 A 
ENDROOT
BRANCH  11  13
HETATM   13  O2  UNK     1      28.867  -7.234  37.861  1.00  0.00    -0.336 OA
BRANCH  13  14
HETATM   14  C13 UNK     1      27.535  -6.737  37.999  1.00  0.00     0.224 C 
HETATM   15  C16 UNK     1      26.714  -7.786  38.728  1.00  0.00     0.051 C 
BRANCH  14  16
HETATM   16  C19 UNK     1      27.581  -5.435  38.771  1.00  0.00     0.288 C 
HETATM   17  O5  UNK     1      26.676  -4.611  38.796  1.00  0.00    -0.262 OA
BRANCH  16  18
HETATM   18  O4  UNK     1      28.764  -5.342  39.446  1.00  0.00    -0.320 OA
BRANCH  18  19
HETATM   19  C21 UNK     1      29.434  -4.081  39.346  1.00  0.00     0.174 C 
HETATM   20  C22 UNK     1      30.060  -3.963  37.972  1.00  0.00     0.034 C 
ENDBRANCH  18  19
ENDBRANCH  16  18
ENDBRANCH  14  16
ENDBRANCH  13  14
ENDBRANCH  11  13
BRANCH   4  21
HETATM   21  C4  UNK     1      30.700  -7.037  30.177  1.00  0.00     0.084 C 
BRANCH  21  22
HETATM   22  C8  UNK     1      29.974  -8.133  29.455  1.00  0.00    -0.054 A 
HETATM   23  C14 UNK     1      28.625  -8.353  29.715  1.00  0.00     0.007 A 
HETATM   24  C17 UNK     1      27.950  -9.373  29.044  1.00  0.00     0.001 A 
HETATM   25  C20 UNK     1      28.626 -10.164  28.116  1.00  0.00     0.000 A 
HETATM   26  C18 UNK     1      29.979  -9.937  27.860  1.00  0.00     0.001 A 
HETATM   27  C15 UNK     1      30.654  -8.919  28.532  1.00  0.00     0.007 A 
ENDBRANCH  21  22
ENDBRANCH   4  21
TORSDOF 7
ENDMDL
