MODEL 1
REMARK VINA RESULT:      -7.4      0.000      0.000
REMARK  4 active torsions:
REMARK  status: ('A' for Active; 'I' for Inactive)
REMARK    1  A    between atoms: C11_16  and  O3_3 
REMARK    2  A    between atoms: C12_17  and  O4_4 
REMARK    3  A    between atoms: C3_8  and  C5_10 
REMARK    4  A    between atoms: C12_17  and  C5_10 
ROOT
HETATM    1  O1  UNK     1      18.858   0.583  32.773  1.00  0.00    -0.274 OA
HETATM    2  O2  UNK     1      17.984   2.176  34.134  1.00  0.00    -0.259 OA
HETATM    3  C1  UNK     1      18.733   2.429  30.630  1.00  0.00    -0.036 A 
HETATM    4  C2  UNK     1      19.245   1.058  30.418  1.00  0.00     0.005 A 
HETATM    5  C3  UNK     1      18.289   2.790  31.852  1.00  0.00     0.034 A 
HETATM    6  C4  UNK     1      19.290   0.183  31.499  1.00  0.00     0.092 A 
HETATM    7  C6  UNK     1      18.352   1.851  33.009  1.00  0.00     0.295 A 
HETATM    8  C7  UNK     1      18.758   3.356  29.441  1.00  0.00     0.050 C 
HETATM    9  C8  UNK     1      19.684   0.568  29.179  1.00  0.00     0.017 A 
HETATM   10  C9  UNK     1      19.759  -1.128  31.386  1.00  0.00     0.074 A 
HETATM   11  C10 UNK     1      20.157  -0.744  29.047  1.00  0.00     0.037 A 
HETATM   12  C11 UNK     1      20.196  -1.591  30.151  1.00  0.00     0.068 A 
ENDROOT
BRANCH   5  13
HETATM   13  C5  UNK     1      17.686   4.130  32.189  1.00  0.00     0.155 C 
BRANCH  13  14
HETATM   14  C12 UNK     1      18.750   5.049  32.715  1.00  0.00     0.143 C 
HETATM   15  O5  UNK     1      19.592   5.657  32.069  1.00  0.00    -0.650 OA
BRANCH  14  16
HETATM   16  O4  UNK     1      18.650   5.115  34.068  1.00  0.00    -0.776 OA
HETATM   17  H10 UNK     1      19.361   5.666  34.461  1.00  0.00     0.167 HD
ENDBRANCH  14  16
ENDBRANCH  13  14
ENDBRANCH   5  13
BRANCH  12  18
HETATM   18  O3  UNK     1      20.654  -2.864  30.020  1.00  0.00    -0.361 OA
HETATM   19  H9  UNK     1      21.610  -2.876  30.198  1.00  0.00     0.217 HD
ENDBRANCH  12  18
TORSDOF 4
ENDMDL
MODEL 2
REMARK VINA RESULT:      -7.2      2.464      6.166
REMARK  4 active torsions:
REMARK  status: ('A' for Active; 'I' for Inactive)
REMARK    1  A    between atoms: C11_16  and  O3_3 
REMARK    2  A    between atoms: C12_17  and  O4_4 
REMARK    3  A    between atoms: C3_8  and  C5_10 
REMARK    4  A    between atoms: C12_17  and  C5_10 
ROOT
HETATM    1  O1  UNK     1      17.789   3.694  33.214  1.00  0.00    -0.274 OA
HETATM    2  O2  UNK     1      18.157   1.614  32.385  1.00  0.00    -0.259 OA
HETATM    3  C1  UNK     1      18.838   4.772  30.816  1.00  0.00    -0.036 A 
HETATM    4  C2  UNK     1      18.370   5.659  31.902  1.00  0.00     0.005 A 
HETATM    5  C3  UNK     1      18.794   3.434  30.987  1.00  0.00     0.034 A 
HETATM    6  C4  UNK     1      17.860   5.088  33.064  1.00  0.00     0.092 A 
HETATM    7  C6  UNK     1      18.235   2.829  32.230  1.00  0.00     0.295 A 
HETATM    8  C7  UNK     1      19.328   5.439  29.555  1.00  0.00     0.050 C 
HETATM    9  C8  UNK     1      18.417   7.060  31.845  1.00  0.00     0.017 A 
HETATM   10  C9  UNK     1      17.397   5.853  34.137  1.00  0.00     0.074 A 
HETATM   11  C10 UNK     1      17.957   7.843  32.911  1.00  0.00     0.037 A 
HETATM   12  C11 UNK     1      17.446   7.239  34.057  1.00  0.00     0.068 A 
ENDROOT
BRANCH   5  13
HETATM   13  C5  UNK     1      19.297   2.421  29.989  1.00  0.00     0.155 C 
BRANCH  13  14
HETATM   14  C12 UNK     1      18.186   2.030  29.058  1.00  0.00     0.143 C 
HETATM   15  O5  UNK     1      17.779   2.648  28.085  1.00  0.00    -0.650 OA
BRANCH  14  16
HETATM   16  O4  UNK     1      17.665   0.842  29.463  1.00  0.00    -0.776 OA
HETATM   17  H10 UNK     1      18.238   0.086  29.212  1.00  0.00     0.167 HD
ENDBRANCH  14  16
ENDBRANCH  13  14
ENDBRANCH   5  13
BRANCH  12  18
HETATM   18  O3  UNK     1      17.002   8.001  35.091  1.00  0.00    -0.361 OA
HETATM   19  H9  UNK     1      16.217   8.497  34.803  1.00  0.00     0.217 HD
ENDBRANCH  12  18
TORSDOF 4
ENDMDL
MODEL 3
REMARK VINA RESULT:      -7.0      5.327      6.952
REMARK  4 active torsions:
REMARK  status: ('A' for Active; 'I' for Inactive)
REMARK    1  A    between atoms: C11_16  and  O3_3 
REMARK    2  A    between atoms: C12_17  and  O4_4 
REMARK    3  A    between atoms: C3_8  and  C5_10 
REMARK    4  A    between atoms: C12_17  and  C5_10 
ROOT
HETATM    1  O1  UNK     1      16.556   6.575  31.253  1.00  0.00    -0.274 OA
HETATM    2  O2  UNK     1      14.341   7.039  31.420  1.00  0.00    -0.259 OA
HETATM    3  C1  UNK     1      16.882   7.442  33.928  1.00  0.00    -0.036 A 
HETATM    4  C2  UNK     1      18.039   6.967  33.141  1.00  0.00     0.005 A 
HETATM    5  C3  UNK     1      15.663   7.493  33.349  1.00  0.00     0.034 A 
HETATM    6  C4  UNK     1      17.835   6.549  31.830  1.00  0.00     0.092 A 
HETATM    7  C6  UNK     1      15.449   7.031  31.948  1.00  0.00     0.295 A 
HETATM    8  C7  UNK     1      17.145   7.830  35.361  1.00  0.00     0.050 C 
HETATM    9  C8  UNK     1      19.354   6.921  33.630  1.00  0.00     0.017 A 
HETATM   10  C9  UNK     1      18.874   6.087  31.017  1.00  0.00     0.074 A 
HETATM   11  C10 UNK     1      20.407   6.461  32.830  1.00  0.00     0.037 A 
HETATM   12  C11 UNK     1      20.167   6.042  31.524  1.00  0.00     0.068 A 
ENDROOT
BRANCH   5  13
HETATM   13  C5  UNK     1      14.414   8.013  34.016  1.00  0.00     0.155 C 
BRANCH  13  14
HETATM   14  C12 UNK     1      14.254   9.477  33.724  1.00  0.00     0.143 C 
HETATM   15  O5  UNK     1      14.863  10.407  34.234  1.00  0.00    -0.650 OA
BRANCH  14  16
HETATM   16  O4  UNK     1      13.294   9.639  32.777  1.00  0.00    -0.776 OA
HETATM   17  H10 UNK     1      13.383   8.986  32.050  1.00  0.00     0.167 HD
ENDBRANCH  14  16
ENDBRANCH  13  14
ENDBRANCH   5  13
BRANCH  12  18
HETATM   18  O3  UNK     1      21.191   5.597  30.749  1.00  0.00    -0.361 OA
HETATM   19  H9  UNK     1      21.103   4.636  30.631  1.00  0.00     0.217 HD
ENDBRANCH  12  18
TORSDOF 4
ENDMDL
MODEL 4
REMARK VINA RESULT:      -7.0     22.371     24.093
REMARK  4 active torsions:
REMARK  status: ('A' for Active; 'I' for Inactive)
REMARK    1  A    between atoms: C11_16  and  O3_3 
REMARK    2  A    between atoms: C12_17  and  O4_4 
REMARK    3  A    between atoms: C3_8  and  C5_10 
REMARK    4  A    between atoms: C12_17  and  C5_10 
ROOT
HETATM    1  O1  UNK     1      14.007   5.032   8.528  1.00  0.00    -0.274 OA
HETATM    2  O2  UNK     1      15.948   4.673   9.648  1.00  0.00    -0.259 OA
HETATM    3  C1  UNK     1      14.035   7.708   9.453  1.00  0.00    -0.036 A 
HETATM    4  C2  UNK     1      12.937   7.216   8.596  1.00  0.00     0.005 A 
HETATM    5  C3  UNK     1      15.017   6.858   9.826  1.00  0.00     0.034 A 
HETATM    6  C4  UNK     1      12.961   5.894   8.162  1.00  0.00     0.092 A 
HETATM    7  C6  UNK     1      15.044   5.447   9.347  1.00  0.00     0.295 A 
HETATM    8  C7  UNK     1      13.992   9.162   9.850  1.00  0.00     0.050 C 
HETATM    9  C8  UNK     1      11.845   8.001   8.193  1.00  0.00     0.017 A 
HETATM   10  C9  UNK     1      11.963   5.350   7.350  1.00  0.00     0.074 A 
HETATM   11  C10 UNK     1      10.836   7.472   7.379  1.00  0.00     0.037 A 
HETATM   12  C11 UNK     1      10.895   6.147   6.957  1.00  0.00     0.068 A 
ENDROOT
BRANCH   5  13
HETATM   13  C5  UNK     1      16.158   7.211  10.745  1.00  0.00     0.155 C 
BRANCH  13  14
HETATM   14  C12 UNK     1      17.323   7.712   9.942  1.00  0.00     0.143 C 
HETATM   15  O5  UNK     1      17.535   8.860   9.576  1.00  0.00    -0.650 OA
BRANCH  14  16
HETATM   16  O4  UNK     1      18.147   6.671   9.658  1.00  0.00    -0.776 OA
HETATM   17  H10 UNK     1      17.760   5.812   9.933  1.00  0.00     0.167 HD
ENDBRANCH  14  16
ENDBRANCH  13  14
ENDBRANCH   5  13
BRANCH  12  18
HETATM   18  O3  UNK     1       9.913   5.636   6.168  1.00  0.00    -0.361 OA
HETATM   19  H9  UNK     1       9.191   5.312   6.733  1.00  0.00     0.217 HD
ENDBRANCH  12  18
TORSDOF 4
ENDMDL
MODEL 5
REMARK VINA RESULT:      -6.9     22.667     24.397
REMARK  4 active torsions:
REMARK  status: ('A' for Active; 'I' for Inactive)
REMARK    1  A    between atoms: C11_16  and  O3_3 
REMARK    2  A    between atoms: C12_17  and  O4_4 
REMARK    3  A    between atoms: C3_8  and  C5_10 
REMARK    4  A    between atoms: C12_17  and  C5_10 
ROOT
HETATM    1  O1  UNK     1      14.106   4.915   8.980  1.00  0.00    -0.274 OA
HETATM    2  O2  UNK     1      12.245   3.834   8.260  1.00  0.00    -0.259 OA
HETATM    3  C1  UNK     1      12.679   7.355   8.823  1.00  0.00    -0.036 A 
HETATM    4  C2  UNK     1      14.091   7.332   9.257  1.00  0.00     0.005 A 
HETATM    5  C3  UNK     1      12.077   6.202   8.465  1.00  0.00     0.034 A 
HETATM    6  C4  UNK     1      14.756   6.112   9.322  1.00  0.00     0.092 A 
HETATM    7  C6  UNK     1      12.790   4.895   8.549  1.00  0.00     0.295 A 
HETATM    8  C7  UNK     1      11.987   8.695   8.824  1.00  0.00     0.050 C 
HETATM    9  C8  UNK     1      14.824   8.478   9.604  1.00  0.00     0.017 A 
HETATM   10  C9  UNK     1      16.090   6.001   9.722  1.00  0.00     0.074 A 
HETATM   11  C10 UNK     1      16.162   8.387  10.007  1.00  0.00     0.037 A 
HETATM   12  C11 UNK     1      16.794   7.148  10.067  1.00  0.00     0.068 A 
ENDROOT
BRANCH   5  13
HETATM   13  C5  UNK     1      10.666   6.092   7.944  1.00  0.00     0.155 C 
BRANCH  13  14
HETATM   14  C12 UNK     1      10.675   6.096   6.443  1.00  0.00     0.143 C 
HETATM   15  O5  UNK     1      11.538   6.552   5.707  1.00  0.00    -0.650 OA
BRANCH  14  16
HETATM   16  O4  UNK     1       9.541   5.501   5.991  1.00  0.00    -0.776 OA
HETATM   17  H10 UNK     1       9.012   5.115   6.722  1.00  0.00     0.167 HD
ENDBRANCH  14  16
ENDBRANCH  13  14
ENDBRANCH   5  13
BRANCH  12  18
HETATM   18  O3  UNK     1      18.094   7.062  10.458  1.00  0.00    -0.361 OA
HETATM   19  H9  UNK     1      18.570   6.477   9.845  1.00  0.00     0.217 HD
ENDBRANCH  12  18
TORSDOF 4
ENDMDL
MODEL 6
REMARK VINA RESULT:      -6.8      2.222      3.464
REMARK  4 active torsions:
REMARK  status: ('A' for Active; 'I' for Inactive)
REMARK    1  A    between atoms: C11_16  and  O3_3 
REMARK    2  A    between atoms: C12_17  and  O4_4 
REMARK    3  A    between atoms: C3_8  and  C5_10 
REMARK    4  A    between atoms: C12_17  and  C5_10 
ROOT
HETATM    1  O1  UNK     1      17.936   3.988  33.443  1.00  0.00    -0.274 OA
HETATM    2  O2  UNK     1      17.530   5.968  34.476  1.00  0.00    -0.259 OA
HETATM    3  C1  UNK     1      18.544   5.414  31.075  1.00  0.00    -0.036 A 
HETATM    4  C2  UNK     1      18.605   3.938  31.104  1.00  0.00     0.005 A 
HETATM    5  C3  UNK     1      18.160   6.085  32.181  1.00  0.00     0.034 A 
HETATM    6  C4  UNK     1      18.299   3.276  32.289  1.00  0.00     0.092 A 
HETATM    7  C6  UNK     1      17.846   5.370  33.452  1.00  0.00     0.295 A 
HETATM    8  C7  UNK     1      18.940   6.087  29.784  1.00  0.00     0.050 C 
HETATM    9  C8  UNK     1      18.944   3.145  29.998  1.00  0.00     0.017 A 
HETATM   10  C9  UNK     1      18.332   1.884  32.404  1.00  0.00     0.074 A 
HETATM   11  C10 UNK     1      18.982   1.748  30.094  1.00  0.00     0.037 A 
HETATM   12  C11 UNK     1      18.677   1.118  31.297  1.00  0.00     0.068 A 
ENDROOT
BRANCH   5  13
HETATM   13  C5  UNK     1      17.995   7.581  32.268  1.00  0.00     0.155 C 
BRANCH  13  14
HETATM   14  C12 UNK     1      16.614   7.968  31.825  1.00  0.00     0.143 C 
HETATM   15  O5  UNK     1      16.260   8.303  30.704  1.00  0.00    -0.650 OA
BRANCH  14  16
HETATM   16  O4  UNK     1      15.771   7.896  32.888  1.00  0.00    -0.776 OA
HETATM   17  H10 UNK     1      16.214   8.152  33.725  1.00  0.00     0.167 HD
ENDBRANCH  14  16
ENDBRANCH  13  14
ENDBRANCH   5  13
BRANCH  12  18
HETATM   18  O3  UNK     1      18.713  -0.238  31.387  1.00  0.00    -0.361 OA
HETATM   19  H9  UNK     1      19.448  -0.496  31.970  1.00  0.00     0.217 HD
ENDBRANCH  12  18
TORSDOF 4
ENDMDL
MODEL 7
REMARK VINA RESULT:      -6.8     13.043     14.850
REMARK  4 active torsions:
REMARK  status: ('A' for Active; 'I' for Inactive)
REMARK    1  A    between atoms: C11_16  and  O3_3 
REMARK    2  A    between atoms: C12_17  and  O4_4 
REMARK    3  A    between atoms: C3_8  and  C5_10 
REMARK    4  A    between atoms: C12_17  and  C5_10 
ROOT
HETATM    1  O1  UNK     1      19.379   1.515  15.310  1.00  0.00    -0.274 OA
HETATM    2  O2  UNK     1      19.411   3.620  16.160  1.00  0.00    -0.259 OA
HETATM    3  C1  UNK     1      18.878   0.531  17.916  1.00  0.00    -0.036 A 
HETATM    4  C2  UNK     1      18.999  -0.393  16.770  1.00  0.00     0.005 A 
HETATM    5  C3  UNK     1      19.043   1.857  17.720  1.00  0.00     0.034 A 
HETATM    6  C4  UNK     1      19.244   0.132  15.505  1.00  0.00     0.092 A 
HETATM    7  C6  UNK     1      19.293   2.414  16.359  1.00  0.00     0.295 A 
HETATM    8  C7  UNK     1      18.555  -0.082  19.256  1.00  0.00     0.050 C 
HETATM    9  C8  UNK     1      18.893  -1.789  16.874  1.00  0.00     0.017 A 
HETATM   10  C9  UNK     1      19.373  -0.671  14.369  1.00  0.00     0.074 A 
HETATM   11  C10 UNK     1      19.020  -2.609  15.746  1.00  0.00     0.037 A 
HETATM   12  C11 UNK     1      19.258  -2.050  14.493  1.00  0.00     0.068 A 
ENDROOT
BRANCH   5  13
HETATM   13  C5  UNK     1      19.008   2.900  18.808  1.00  0.00     0.155 C 
BRANCH  13  14
HETATM   14  C12 UNK     1      20.380   3.071  19.393  1.00  0.00     0.143 C 
HETATM   15  O5  UNK     1      20.902   2.400  20.272  1.00  0.00    -0.650 OA
BRANCH  14  16
HETATM   16  O4  UNK     1      20.992   4.123  18.790  1.00  0.00    -0.776 OA
HETATM   17  H10 UNK     1      20.861   4.958  19.290  1.00  0.00     0.167 HD
ENDBRANCH  14  16
ENDBRANCH  13  14
ENDBRANCH   5  13
BRANCH  12  18
HETATM   18  O3  UNK     1      19.381  -2.849  13.400  1.00  0.00    -0.361 OA
HETATM   19  H9  UNK     1      18.541  -2.847  12.911  1.00  0.00     0.217 HD
ENDBRANCH  12  18
TORSDOF 4
ENDMDL
MODEL 8
REMARK VINA RESULT:      -6.8     14.048     15.946
REMARK  4 active torsions:
REMARK  status: ('A' for Active; 'I' for Inactive)
REMARK    1  A    between atoms: C11_16  and  O3_3 
REMARK    2  A    between atoms: C12_17  and  O4_4 
REMARK    3  A    between atoms: C3_8  and  C5_10 
REMARK    4  A    between atoms: C12_17  and  C5_10 
ROOT
HETATM    1  O1  UNK     1      31.451  -4.698  38.603  1.00  0.00    -0.274 OA
HETATM    2  O2  UNK     1      29.549  -3.941  39.584  1.00  0.00    -0.259 OA
HETATM    3  C1  UNK     1      30.212  -7.223  38.283  1.00  0.00    -0.036 A 
HETATM    4  C2  UNK     1      31.599  -6.999  37.826  1.00  0.00     0.005 A 
HETATM    5  C3  UNK     1      29.544  -6.220  38.891  1.00  0.00     0.034 A 
HETATM    6  C4  UNK     1      32.170  -5.743  38.001  1.00  0.00     0.092 A 
HETATM    7  C6  UNK     1      30.157  -4.873  39.064  1.00  0.00     0.295 A 
HETATM    8  C7  UNK     1      29.619  -8.585  38.020  1.00  0.00     0.050 C 
HETATM    9  C8  UNK     1      32.397  -7.987  37.227  1.00  0.00     0.017 A 
HETATM   10  C9  UNK     1      33.475  -5.446  37.597  1.00  0.00     0.074 A 
HETATM   11  C10 UNK     1      33.706  -7.707  36.817  1.00  0.00     0.037 A 
HETATM   12  C11 UNK     1      34.245  -6.437  37.001  1.00  0.00     0.068 A 
ENDROOT
BRANCH   5  13
HETATM   13  C5  UNK     1      28.152  -6.333  39.461  1.00  0.00     0.155 C 
BRANCH  13  14
HETATM   14  C12 UNK     1      27.143  -5.948  38.419  1.00  0.00     0.143 C 
HETATM   15  O5  UNK     1      26.770  -6.614  37.464  1.00  0.00    -0.650 OA
BRANCH  14  16
HETATM   16  O4  UNK     1      26.681  -4.700  38.688  1.00  0.00    -0.776 OA
HETATM   17  H10 UNK     1      26.173  -4.327  37.936  1.00  0.00     0.167 HD
ENDBRANCH  14  16
ENDBRANCH  13  14
ENDBRANCH   5  13
BRANCH  12  18
HETATM   18  O3  UNK     1      35.516  -6.169  36.602  1.00  0.00    -0.361 OA
HETATM   19  H9  UNK     1      35.853  -6.925  36.091  1.00  0.00     0.217 HD
ENDBRANCH  12  18
TORSDOF 4
ENDMDL
MODEL 9
REMARK VINA RESULT:      -6.7      3.672      5.059
REMARK  4 active torsions:
REMARK  status: ('A' for Active; 'I' for Inactive)
REMARK    1  A    between atoms: C11_16  and  O3_3 
REMARK    2  A    between atoms: C12_17  and  O4_4 
REMARK    3  A    between atoms: C3_8  and  C5_10 
REMARK    4  A    between atoms: C12_17  and  C5_10 
ROOT
HETATM    1  O1  UNK     1      17.480  -0.205  33.435  1.00  0.00    -0.274 OA
HETATM    2  O2  UNK     1      15.884   0.874  34.635  1.00  0.00    -0.259 OA
HETATM    3  C1  UNK     1      18.505  -1.259  35.853  1.00  0.00    -0.036 A 
HETATM    4  C2  UNK     1      19.140  -1.583  34.559  1.00  0.00     0.005 A 
HETATM    5  C3  UNK     1      17.446  -0.423  35.882  1.00  0.00     0.034 A 
HETATM    6  C4  UNK     1      18.603  -1.045  33.393  1.00  0.00     0.092 A 
HETATM    7  C6  UNK     1      16.868   0.140  34.628  1.00  0.00     0.295 A 
HETATM    8  C7  UNK     1      19.089  -1.913  37.081  1.00  0.00     0.050 C 
HETATM    9  C8  UNK     1      20.272  -2.401  34.423  1.00  0.00     0.017 A 
HETATM   10  C9  UNK     1      19.141  -1.300  32.129  1.00  0.00     0.074 A 
HETATM   11  C10 UNK     1      20.825  -2.667  33.165  1.00  0.00     0.037 A 
HETATM   12  C11 UNK     1      20.259  -2.118  32.017  1.00  0.00     0.068 A 
ENDROOT
BRANCH   5  13
HETATM   13  C5  UNK     1      16.747   0.039  37.135  1.00  0.00     0.155 C 
BRANCH  13  14
HETATM   14  C12 UNK     1      17.514   1.169  37.759  1.00  0.00     0.143 C 
HETATM   15  O5  UNK     1      17.956   1.227  38.897  1.00  0.00    -0.650 OA
BRANCH  14  16
HETATM   16  O4  UNK     1      17.652   2.167  36.849  1.00  0.00    -0.776 OA
HETATM   17  H10 UNK     1      17.740   3.045  37.278  1.00  0.00     0.167 HD
ENDBRANCH  14  16
ENDBRANCH  13  14
ENDBRANCH   5  13
BRANCH  12  18
HETATM   18  O3  UNK     1      20.799  -2.378  30.797  1.00  0.00    -0.361 OA
HETATM   19  H9  UNK     1      20.830  -1.553  30.283  1.00  0.00     0.217 HD
ENDBRANCH  12  18
TORSDOF 4
ENDMDL
MODEL 10
REMARK VINA RESULT:      -6.7      1.999      3.460
REMARK  4 active torsions:
REMARK  status: ('A' for Active; 'I' for Inactive)
REMARK    1  A    between atoms: C11_16  and  O3_3 
REMARK    2  A    between atoms: C12_17  and  O4_4 
REMARK    3  A    between atoms: C3_8  and  C5_10 
REMARK    4  A    between atoms: C12_17  and  C5_10 
ROOT
HETATM    1  O1  UNK     1      18.678   1.970  31.680  1.00  0.00    -0.274 OA
HETATM    2  O2  UNK     1      17.728   3.361  33.203  1.00  0.00    -0.259 OA
HETATM    3  C1  UNK     1      18.581  -0.106  33.602  1.00  0.00    -0.036 A 
HETATM    4  C2  UNK     1      19.146  -0.346  32.258  1.00  0.00     0.005 A 
HETATM    5  C3  UNK     1      18.138   1.128  33.925  1.00  0.00     0.034 A 
HETATM    6  C4  UNK     1      19.173   0.701  31.343  1.00  0.00     0.092 A 
HETATM    7  C6  UNK     1      18.159   2.243  32.935  1.00  0.00     0.295 A 
HETATM    8  C7  UNK     1      18.521  -1.288  34.537  1.00  0.00     0.050 C 
HETATM    9  C8  UNK     1      19.676  -1.576  31.838  1.00  0.00     0.017 A 
HETATM   10  C9  UNK     1      19.690   0.560  30.052  1.00  0.00     0.074 A 
HETATM   11  C10 UNK     1      20.198  -1.736  30.549  1.00  0.00     0.037 A 
HETATM   12  C11 UNK     1      20.204  -0.669  29.655  1.00  0.00     0.068 A 
ENDROOT
BRANCH   5  13
HETATM   13  C5  UNK     1      17.599   1.523  35.276  1.00  0.00     0.155 C 
BRANCH  13  14
HETATM   14  C12 UNK     1      18.731   1.688  36.248  1.00  0.00     0.143 C 
HETATM   15  O5  UNK     1      19.857   2.105  36.013  1.00  0.00    -0.650 OA
BRANCH  14  16
HETATM   16  O4  UNK     1      18.321   1.290  37.480  1.00  0.00    -0.776 OA
HETATM   17  H10 UNK     1      18.090   2.052  38.053  1.00  0.00     0.167 HD
ENDBRANCH  14  16
ENDBRANCH  13  14
ENDBRANCH   5  13
BRANCH  12  18
HETATM   18  O3  UNK     1      20.712  -0.827  28.404  1.00  0.00    -0.361 OA
HETATM   19  H9  UNK     1      20.082  -0.464  27.759  1.00  0.00     0.217 HD
ENDBRANCH  12  18
TORSDOF 4
ENDMDL
