MODEL 1
REMARK VINA RESULT:     -10.2      0.000      0.000
REMARK  6 active torsions:
REMARK  status: ('A' for Active; 'I' for Inactive)
REMARK    1  A    between atoms: C15_20  and  O1_3 
REMARK    2  A    between atoms: C4_9  and  O1_3 
REMARK    3  A    between atoms: C1_6  and  C13_18 
REMARK    4  A    between atoms: C15_20  and  C2_7 
REMARK    5  A    between atoms: C13_18  and  C16_21 
REMARK    6  A    between atoms: C14_19  and  C17_22 
ROOT
HETATM    1  C1  UNK     1      19.441   5.702  32.362  1.00  0.00     0.014 A 
HETATM    2  C4  UNK     1      18.106   3.598  31.107  1.00  0.00     0.079 A 
HETATM    3  C5  UNK     1      19.588   5.503  30.989  1.00  0.00     0.018 A 
HETATM    4  C6  UNK     1      18.627   4.849  33.107  1.00  0.00     0.018 A 
HETATM    5  C9  UNK     1      18.921   4.451  30.362  1.00  0.00     0.038 A 
HETATM    6  C10 UNK     1      17.960   3.797  32.480  1.00  0.00     0.038 A 
ENDROOT
BRANCH   1   7
HETATM    7  C13 UNK     1      20.138   6.798  33.016  1.00  0.00     0.182 C 
HETATM    8  O2  UNK     1      21.376   6.863  33.001  1.00  0.00    -0.288 OA
BRANCH   7   9
HETATM    9  C16 UNK     1      19.328   7.837  33.739  1.00  0.00     0.056 C 
HETATM   10  C17 UNK     1      18.196   8.316  33.204  1.00  0.00     0.017 C 
BRANCH  10  11
HETATM   11  C14 UNK     1      17.345   9.344  33.829  1.00  0.00    -0.014 A 
HETATM   12  C19 UNK     1      16.081   9.046  34.314  1.00  0.00     0.045 A 
HETATM   13 Cl1  UNK     1      15.404   7.457  34.224  1.00  0.00    -0.083 Cl
HETATM   14  C21 UNK     1      15.316  10.054  34.900  1.00  0.00     0.048 A 
HETATM   15  C23 UNK     1      15.823  11.350  34.993  1.00  0.00     0.035 A 
HETATM   16  C22 UNK     1      17.096  11.638  34.501  1.00  0.00     0.024 A 
HETATM   17 Cl2  UNK     1      14.878  12.596  35.713  1.00  0.00    -0.084 Cl
HETATM   18  C20 UNK     1      17.861  10.629  33.916  1.00  0.00     0.015 A 
ENDBRANCH  10  11
ENDBRANCH   7   9
ENDBRANCH   1   7
BRANCH   2  19
HETATM   19  O1  UNK     1      17.457   2.570  30.495  1.00  0.00    -0.275 OA
BRANCH  19  20
HETATM   20  C15 UNK     1      18.088   2.098  29.341  1.00  0.00     0.298 C 
HETATM   21  O3  UNK     1      18.041   2.625  28.239  1.00  0.00    -0.259 OA
BRANCH  20  22
HETATM   22  C2  UNK     1      18.851   0.854  29.615  1.00  0.00     0.040 A 
HETATM   23  C7  UNK     1      19.307   0.103  28.552  1.00  0.00     0.018 A 
HETATM   24  C11 UNK     1      20.026  -1.064  28.811  1.00  0.00     0.007 A 
HETATM   25  C3  UNK     1      20.272  -1.455  30.126  1.00  0.00    -0.062 A 
HETATM   26  C12 UNK     1      19.800  -0.678  31.184  1.00  0.00     0.007 A 
HETATM   27  C18 UNK     1      21.039  -2.704  30.402  1.00  0.00     0.048 C 
HETATM   28  C8  UNK     1      19.082   0.489  30.926  1.00  0.00     0.018 A 
ENDBRANCH  20  22
ENDBRANCH  19  20
ENDBRANCH   2  19
TORSDOF 6
ENDMDL
MODEL 2
REMARK VINA RESULT:      -9.9      1.098      1.923
REMARK  6 active torsions:
REMARK  status: ('A' for Active; 'I' for Inactive)
REMARK    1  A    between atoms: C15_20  and  O1_3 
REMARK    2  A    between atoms: C4_9  and  O1_3 
REMARK    3  A    between atoms: C1_6  and  C13_18 
REMARK    4  A    between atoms: C15_20  and  C2_7 
REMARK    5  A    between atoms: C13_18  and  C16_21 
REMARK    6  A    between atoms: C14_19  and  C17_22 
ROOT
HETATM    1  C1  UNK     1      19.213   5.905  32.565  1.00  0.00     0.014 A 
HETATM    2  C4  UNK     1      18.090   3.688  31.299  1.00  0.00     0.079 A 
HETATM    3  C5  UNK     1      18.523   4.951  33.312  1.00  0.00     0.018 A 
HETATM    4  C6  UNK     1      19.341   5.751  31.185  1.00  0.00     0.018 A 
HETATM    5  C9  UNK     1      17.961   3.842  32.679  1.00  0.00     0.038 A 
HETATM    6  C10 UNK     1      18.780   4.643  30.552  1.00  0.00     0.038 A 
ENDROOT
BRANCH   1   7
HETATM    7  C13 UNK     1      19.797   7.061  33.226  1.00  0.00     0.182 C 
HETATM    8  O2  UNK     1      21.021   7.261  33.195  1.00  0.00    -0.288 OA
BRANCH   7   9
HETATM    9  C16 UNK     1      18.891   7.996  33.976  1.00  0.00     0.056 C 
HETATM   10  C17 UNK     1      17.904   8.647  33.343  1.00  0.00     0.017 C 
BRANCH  10  11
HETATM   11  C14 UNK     1      16.977   9.592  33.989  1.00  0.00    -0.014 A 
HETATM   12  C19 UNK     1      17.316  10.920  34.193  1.00  0.00     0.045 A 
HETATM   13 Cl1  UNK     1      18.845  11.571  33.712  1.00  0.00    -0.083 Cl
HETATM   14  C21 UNK     1      16.402  11.776  34.808  1.00  0.00     0.048 A 
HETATM   15  C23 UNK     1      15.158  11.293  35.213  1.00  0.00     0.035 A 
HETATM   16  C22 UNK     1      14.828   9.953  35.003  1.00  0.00     0.024 A 
HETATM   17 Cl2  UNK     1      14.030  12.346  35.975  1.00  0.00    -0.084 Cl
HETATM   18  C20 UNK     1      15.742   9.098  34.387  1.00  0.00     0.015 A 
ENDBRANCH  10  11
ENDBRANCH   7   9
ENDBRANCH   1   7
BRANCH   2  19
HETATM   19  O1  UNK     1      17.540   2.607  30.680  1.00  0.00    -0.275 OA
BRANCH  19  20
HETATM   20  C15 UNK     1      18.200   2.214  29.513  1.00  0.00     0.298 C 
HETATM   21  O3  UNK     1      18.206   2.831  28.457  1.00  0.00    -0.259 OA
BRANCH  20  22
HETATM   22  C2  UNK     1      18.923   0.932  29.709  1.00  0.00     0.040 A 
HETATM   23  C7  UNK     1      19.177   0.499  30.994  1.00  0.00     0.018 A 
HETATM   24  C11 UNK     1      19.855  -0.706  31.178  1.00  0.00     0.007 A 
HETATM   25  C3  UNK     1      20.263  -1.453  30.073  1.00  0.00    -0.062 A 
HETATM   26  C12 UNK     1      19.993  -0.993  28.784  1.00  0.00     0.007 A 
HETATM   27  C18 UNK     1      20.988  -2.740  30.269  1.00  0.00     0.048 C 
HETATM   28  C8  UNK     1      19.316   0.212  28.600  1.00  0.00     0.018 A 
ENDBRANCH  20  22
ENDBRANCH  19  20
ENDBRANCH   2  19
TORSDOF 6
ENDMDL
MODEL 3
REMARK VINA RESULT:      -9.2      4.989      6.453
REMARK  6 active torsions:
REMARK  status: ('A' for Active; 'I' for Inactive)
REMARK    1  A    between atoms: C15_20  and  O1_3 
REMARK    2  A    between atoms: C4_9  and  O1_3 
REMARK    3  A    between atoms: C1_6  and  C13_18 
REMARK    4  A    between atoms: C15_20  and  C2_7 
REMARK    5  A    between atoms: C13_18  and  C16_21 
REMARK    6  A    between atoms: C14_19  and  C17_22 
ROOT
HETATM    1  C1  UNK     1      18.337   1.390  33.927  1.00  0.00     0.014 A 
HETATM    2  C4  UNK     1      18.853  -0.723  35.673  1.00  0.00     0.079 A 
HETATM    3  C5  UNK     1      18.288   0.076  33.464  1.00  0.00     0.018 A 
HETATM    4  C6  UNK     1      18.644   1.649  35.262  1.00  0.00     0.018 A 
HETATM    5  C9  UNK     1      18.547  -0.981  34.337  1.00  0.00     0.038 A 
HETATM    6  C10 UNK     1      18.903   0.592  36.135  1.00  0.00     0.038 A 
ENDROOT
BRANCH   1   7
HETATM    7  C13 UNK     1      18.069   2.491  33.015  1.00  0.00     0.182 C 
HETATM    8  O2  UNK     1      17.694   2.278  31.853  1.00  0.00    -0.288 OA
BRANCH   7   9
HETATM    9  C16 UNK     1      18.287   3.897  33.499  1.00  0.00     0.056 C 
HETATM   10  C17 UNK     1      18.070   4.942  32.687  1.00  0.00     0.017 C 
BRANCH  10  11
HETATM   11  C14 UNK     1      18.269   6.351  33.067  1.00  0.00    -0.014 A 
HETATM   12  C19 UNK     1      17.284   7.306  32.866  1.00  0.00     0.045 A 
HETATM   13 Cl1  UNK     1      15.753   6.923  32.158  1.00  0.00    -0.083 Cl
HETATM   14  C21 UNK     1      17.521   8.627  33.245  1.00  0.00     0.048 A 
HETATM   15  C23 UNK     1      18.741   8.980  33.820  1.00  0.00     0.035 A 
HETATM   16  C22 UNK     1      19.726   8.011  34.016  1.00  0.00     0.024 A 
HETATM   17 Cl2  UNK     1      19.036  10.610  34.285  1.00  0.00    -0.084 Cl
HETATM   18  C20 UNK     1      19.488   6.689  33.637  1.00  0.00     0.015 A 
ENDBRANCH  10  11
ENDBRANCH   7   9
ENDBRANCH   1   7
BRANCH   2  19
HETATM   19  O1  UNK     1      19.107  -1.754  36.524  1.00  0.00    -0.275 OA
BRANCH  19  20
HETATM   20  C15 UNK     1      20.265  -2.476  36.223  1.00  0.00     0.298 C 
HETATM   21  O3  UNK     1      21.229  -2.049  35.604  1.00  0.00    -0.259 OA
BRANCH  20  22
HETATM   22  C2  UNK     1      20.193  -3.857  36.764  1.00  0.00     0.040 A 
HETATM   23  C7  UNK     1      19.137  -4.664  36.396  1.00  0.00     0.018 A 
HETATM   24  C11 UNK     1      19.072  -5.962  36.904  1.00  0.00     0.007 A 
HETATM   25  C3  UNK     1      20.064  -6.424  37.768  1.00  0.00    -0.062 A 
HETATM   26  C12 UNK     1      21.122  -5.587  38.125  1.00  0.00     0.007 A 
HETATM   27  C18 UNK     1      19.993  -7.810  38.312  1.00  0.00     0.048 C 
HETATM   28  C8  UNK     1      21.187  -4.291  37.618  1.00  0.00     0.018 A 
ENDBRANCH  20  22
ENDBRANCH  19  20
ENDBRANCH   2  19
TORSDOF 6
ENDMDL
MODEL 4
REMARK VINA RESULT:      -9.0     22.456     24.699
REMARK  6 active torsions:
REMARK  status: ('A' for Active; 'I' for Inactive)
REMARK    1  A    between atoms: C15_20  and  O1_3 
REMARK    2  A    between atoms: C4_9  and  O1_3 
REMARK    3  A    between atoms: C1_6  and  C13_18 
REMARK    4  A    between atoms: C15_20  and  C2_7 
REMARK    5  A    between atoms: C13_18  and  C16_21 
REMARK    6  A    between atoms: C14_19  and  C17_22 
ROOT
HETATM    1  C1  UNK     1      11.024   6.094   7.076  1.00  0.00     0.014 A 
HETATM    2  C4  UNK     1      13.627   5.687   7.992  1.00  0.00     0.079 A 
HETATM    3  C5  UNK     1      12.052   6.934   6.650  1.00  0.00     0.018 A 
HETATM    4  C6  UNK     1      11.296   5.051   7.960  1.00  0.00     0.018 A 
HETATM    5  C9  UNK     1      13.354   6.731   7.108  1.00  0.00     0.038 A 
HETATM    6  C10 UNK     1      12.598   4.848   8.418  1.00  0.00     0.038 A 
ENDROOT
BRANCH   1   7
HETATM    7  C13 UNK     1       9.667   6.308   6.598  1.00  0.00     0.182 C 
HETATM    8  O2  UNK     1       9.451   6.632   5.421  1.00  0.00    -0.288 OA
BRANCH   7   9
HETATM    9  C16 UNK     1       8.530   6.159   7.569  1.00  0.00     0.056 C 
HETATM   10  C17 UNK     1       8.534   6.822   8.735  1.00  0.00     0.017 C 
BRANCH  10  11
HETATM   11  C14 UNK     1       7.474   6.729   9.753  1.00  0.00    -0.014 A 
HETATM   12  C19 UNK     1       7.387   5.648  10.617  1.00  0.00     0.045 A 
HETATM   13 Cl1  UNK     1       8.507   4.331  10.569  1.00  0.00    -0.083 Cl
HETATM   14  C21 UNK     1       6.365   5.608  11.566  1.00  0.00     0.048 A 
HETATM   15  C23 UNK     1       5.440   6.649  11.639  1.00  0.00     0.035 A 
HETATM   16  C22 UNK     1       5.537   7.731  10.764  1.00  0.00     0.024 A 
HETATM   17 Cl2  UNK     1       4.177   6.599  12.807  1.00  0.00    -0.084 Cl
HETATM   18  C20 UNK     1       6.560   7.771   9.816  1.00  0.00     0.015 A 
ENDBRANCH  10  11
ENDBRANCH   7   9
ENDBRANCH   1   7
BRANCH   2  19
HETATM   19  O1  UNK     1      14.896   5.490   8.441  1.00  0.00    -0.275 OA
BRANCH  19  20
HETATM   20  C15 UNK     1      15.071   5.748   9.803  1.00  0.00     0.298 C 
HETATM   21  O3  UNK     1      14.895   4.944  10.708  1.00  0.00    -0.259 OA
BRANCH  20  22
HETATM   22  C2  UNK     1      15.517   7.145  10.033  1.00  0.00     0.040 A 
HETATM   23  C7  UNK     1      14.582   8.094  10.393  1.00  0.00     0.018 A 
HETATM   24  C11 UNK     1      15.003   9.406  10.611  1.00  0.00     0.007 A 
HETATM   25  C3  UNK     1      16.348   9.741  10.465  1.00  0.00    -0.062 A 
HETATM   26  C12 UNK     1      17.274   8.763  10.100  1.00  0.00     0.007 A 
HETATM   27  C18 UNK     1      16.797  11.144  10.696  1.00  0.00     0.048 C 
HETATM   28  C8  UNK     1      16.854   7.452   9.882  1.00  0.00     0.018 A 
ENDBRANCH  20  22
ENDBRANCH  19  20
ENDBRANCH   2  19
TORSDOF 6
ENDMDL
MODEL 5
REMARK VINA RESULT:      -9.0      3.347     10.254
REMARK  6 active torsions:
REMARK  status: ('A' for Active; 'I' for Inactive)
REMARK    1  A    between atoms: C15_20  and  O1_3 
REMARK    2  A    between atoms: C4_9  and  O1_3 
REMARK    3  A    between atoms: C1_6  and  C13_18 
REMARK    4  A    between atoms: C15_20  and  C2_7 
REMARK    5  A    between atoms: C13_18  and  C16_21 
REMARK    6  A    between atoms: C14_19  and  C17_22 
ROOT
HETATM    1  C1  UNK     1      18.740   3.927  30.565  1.00  0.00     0.014 A 
HETATM    2  C4  UNK     1      18.905   5.893  32.537  1.00  0.00     0.079 A 
HETATM    3  C5  UNK     1      18.170   3.706  31.819  1.00  0.00     0.018 A 
HETATM    4  C6  UNK     1      19.393   5.130  30.297  1.00  0.00     0.018 A 
HETATM    5  C9  UNK     1      18.253   4.689  32.805  1.00  0.00     0.038 A 
HETATM    6  C10 UNK     1      19.476   6.112  31.284  1.00  0.00     0.038 A 
ENDROOT
BRANCH   1   7
HETATM    7  C13 UNK     1      18.654   2.901  29.538  1.00  0.00     0.182 C 
HETATM    8  O2  UNK     1      17.979   3.081  28.514  1.00  0.00    -0.288 OA
BRANCH   7   9
HETATM    9  C16 UNK     1      19.376   1.601  29.756  1.00  0.00     0.056 C 
HETATM   10  C17 UNK     1      18.928   0.712  30.654  1.00  0.00     0.017 C 
BRANCH  10  11
HETATM   11  C14 UNK     1      19.574  -0.579  30.947  1.00  0.00    -0.014 A 
HETATM   12  C19 UNK     1      19.517  -1.153  32.208  1.00  0.00     0.045 A 
HETATM   13 Cl1  UNK     1      18.690  -0.405  33.530  1.00  0.00    -0.083 Cl
HETATM   14  C21 UNK     1      20.144  -2.378  32.433  1.00  0.00     0.048 A 
HETATM   15  C23 UNK     1      20.823  -3.016  31.395  1.00  0.00     0.035 A 
HETATM   16  C22 UNK     1      20.875  -2.428  30.131  1.00  0.00     0.024 A 
HETATM   17 Cl2  UNK     1      21.600  -4.526  31.673  1.00  0.00    -0.084 Cl
HETATM   18  C20 UNK     1      20.246  -1.203  29.906  1.00  0.00     0.015 A 
ENDBRANCH  10  11
ENDBRANCH   7   9
ENDBRANCH   1   7
BRANCH   2  19
HETATM   19  O1  UNK     1      18.988   6.851  33.500  1.00  0.00    -0.275 OA
BRANCH  19  20
HETATM   20  C15 UNK     1      17.754   7.361  33.912  1.00  0.00     0.298 C 
HETATM   21  O3  UNK     1      16.765   6.696  34.183  1.00  0.00    -0.259 OA
BRANCH  20  22
HETATM   22  C2  UNK     1      17.786   8.843  33.997  1.00  0.00     0.040 A 
HETATM   23  C7  UNK     1      19.007   9.485  34.007  1.00  0.00     0.018 A 
HETATM   24  C11 UNK     1      19.036  10.878  34.084  1.00  0.00     0.007 A 
HETATM   25  C3  UNK     1      17.844  11.597  34.149  1.00  0.00    -0.062 A 
HETATM   26  C12 UNK     1      16.622  10.925  34.138  1.00  0.00     0.007 A 
HETATM   27  C18 UNK     1      17.875  13.086  34.234  1.00  0.00     0.048 C 
HETATM   28  C8  UNK     1      16.593   9.533  34.060  1.00  0.00     0.018 A 
ENDBRANCH  20  22
ENDBRANCH  19  20
ENDBRANCH   2  19
TORSDOF 6
ENDMDL
MODEL 6
REMARK VINA RESULT:      -8.9     22.082     23.807
REMARK  6 active torsions:
REMARK  status: ('A' for Active; 'I' for Inactive)
REMARK    1  A    between atoms: C15_20  and  O1_3 
REMARK    2  A    between atoms: C4_9  and  O1_3 
REMARK    3  A    between atoms: C1_6  and  C13_18 
REMARK    4  A    between atoms: C15_20  and  C2_7 
REMARK    5  A    between atoms: C13_18  and  C16_21 
REMARK    6  A    between atoms: C14_19  and  C17_22 
ROOT
HETATM    1  C1  UNK     1      16.741   9.762   9.510  1.00  0.00     0.014 A 
HETATM    2  C4  UNK     1      15.354   7.490  10.342  1.00  0.00     0.079 A 
HETATM    3  C5  UNK     1      15.346   9.766   9.534  1.00  0.00     0.018 A 
HETATM    4  C6  UNK     1      17.442   8.622   9.902  1.00  0.00     0.018 A 
HETATM    5  C9  UNK     1      14.653   8.630   9.949  1.00  0.00     0.038 A 
HETATM    6  C10 UNK     1      16.748   7.486  10.317  1.00  0.00     0.038 A 
ENDROOT
BRANCH   1   7
HETATM    7  C13 UNK     1      17.463  10.947   9.075  1.00  0.00     0.182 C 
HETATM    8  O2  UNK     1      17.118  11.564   8.056  1.00  0.00    -0.288 OA
BRANCH   7   9
HETATM    9  C16 UNK     1      18.659  11.393   9.867  1.00  0.00     0.056 C 
HETATM   10  C17 UNK     1      19.764  11.835   9.248  1.00  0.00     0.017 C 
BRANCH  10  11
HETATM   11  C14 UNK     1      20.988  12.278   9.938  1.00  0.00    -0.014 A 
HETATM   12  C19 UNK     1      21.970  13.006   9.283  1.00  0.00     0.045 A 
HETATM   13 Cl1  UNK     1      21.840  13.447   7.616  1.00  0.00    -0.083 Cl
HETATM   14  C21 UNK     1      23.110  13.404   9.981  1.00  0.00     0.048 A 
HETATM   15  C23 UNK     1      23.255  13.069  11.328  1.00  0.00     0.035 A 
HETATM   16  C22 UNK     1      22.261  12.336  11.975  1.00  0.00     0.024 A 
HETATM   17 Cl2  UNK     1      24.663  13.557  12.190  1.00  0.00    -0.084 Cl
HETATM   18  C20 UNK     1      21.121  11.939  11.277  1.00  0.00     0.015 A 
ENDBRANCH  10  11
ENDBRANCH   7   9
ENDBRANCH   1   7
BRANCH   2  19
HETATM   19  O1  UNK     1      14.677   6.380  10.746  1.00  0.00    -0.275 OA
BRANCH  19  20
HETATM   20  C15 UNK     1      14.563   5.389   9.768  1.00  0.00     0.298 C 
HETATM   21  O3  UNK     1      15.344   4.463   9.600  1.00  0.00    -0.259 OA
BRANCH  20  22
HETATM   22  C2  UNK     1      13.346   5.586   8.940  1.00  0.00     0.040 A 
HETATM   23  C7  UNK     1      12.111   5.329   9.498  1.00  0.00     0.018 A 
HETATM   24  C11 UNK     1      10.968   5.516   8.720  1.00  0.00     0.007 A 
HETATM   25  C3  UNK     1      11.085   5.957   7.403  1.00  0.00    -0.062 A 
HETATM   26  C12 UNK     1      12.346   6.210   6.862  1.00  0.00     0.007 A 
HETATM   27  C18 UNK     1       9.863   6.156   6.571  1.00  0.00     0.048 C 
HETATM   28  C8  UNK     1      13.488   6.023   7.639  1.00  0.00     0.018 A 
ENDBRANCH  20  22
ENDBRANCH  19  20
ENDBRANCH   2  19
TORSDOF 6
ENDMDL
MODEL 7
REMARK VINA RESULT:      -8.9     21.704     23.307
REMARK  6 active torsions:
REMARK  status: ('A' for Active; 'I' for Inactive)
REMARK    1  A    between atoms: C15_20  and  O1_3 
REMARK    2  A    between atoms: C4_9  and  O1_3 
REMARK    3  A    between atoms: C1_6  and  C13_18 
REMARK    4  A    between atoms: C15_20  and  C2_7 
REMARK    5  A    between atoms: C13_18  and  C16_21 
REMARK    6  A    between atoms: C14_19  and  C17_22 
ROOT
HETATM    1  C1  UNK     1      16.543   9.974  10.166  1.00  0.00     0.014 A 
HETATM    2  C4  UNK     1      15.445   7.463  10.687  1.00  0.00     0.079 A 
HETATM    3  C5  UNK     1      17.268   8.820   9.869  1.00  0.00     0.018 A 
HETATM    4  C6  UNK     1      15.268   9.872  10.724  1.00  0.00     0.018 A 
HETATM    5  C9  UNK     1      16.720   7.565  10.130  1.00  0.00     0.038 A 
HETATM    6  C10 UNK     1      14.720   8.616  10.984  1.00  0.00     0.038 A 
ENDROOT
BRANCH   1   7
HETATM    7  C13 UNK     1      17.116  11.282   9.895  1.00  0.00     0.182 C 
HETATM    8  O2  UNK     1      16.389  12.264   9.685  1.00  0.00    -0.288 OA
BRANCH   7   9
HETATM    9  C16 UNK     1      18.612  11.417   9.842  1.00  0.00     0.056 C 
HETATM   10  C17 UNK     1      19.278  12.037  10.827  1.00  0.00     0.017 C 
BRANCH  10  11
HETATM   11  C14 UNK     1      20.738  12.229  10.856  1.00  0.00    -0.014 A 
HETATM   12  C19 UNK     1      21.421  12.445  12.043  1.00  0.00     0.045 A 
HETATM   13 Cl1  UNK     1      20.620  12.507  13.575  1.00  0.00    -0.083 Cl
HETATM   14  C21 UNK     1      22.805  12.619  12.017  1.00  0.00     0.048 A 
HETATM   15  C23 UNK     1      23.491  12.577  10.803  1.00  0.00     0.035 A 
HETATM   16  C22 UNK     1      22.793  12.360   9.615  1.00  0.00     0.024 A 
HETATM   17 Cl2  UNK     1      25.198  12.795  10.770  1.00  0.00    -0.084 Cl
HETATM   18  C20 UNK     1      21.409  12.185   9.641  1.00  0.00     0.015 A 
ENDBRANCH  10  11
ENDBRANCH   7   9
ENDBRANCH   1   7
BRANCH   2  19
HETATM   19  O1  UNK     1      14.911   6.237  10.944  1.00  0.00    -0.275 OA
BRANCH  19  20
HETATM   20  C15 UNK     1      14.876   5.382   9.839  1.00  0.00     0.298 C 
HETATM   21  O3  UNK     1      15.710   4.529   9.574  1.00  0.00    -0.259 OA
BRANCH  20  22
HETATM   22  C2  UNK     1      13.671   5.627   9.008  1.00  0.00     0.040 A 
HETATM   23  C7  UNK     1      12.431   5.304   9.518  1.00  0.00     0.018 A 
HETATM   24  C11 UNK     1      11.299   5.535   8.736  1.00  0.00     0.007 A 
HETATM   25  C3  UNK     1      11.431   6.086   7.462  1.00  0.00    -0.062 A 
HETATM   26  C12 UNK     1      12.697   6.404   6.969  1.00  0.00     0.007 A 
HETATM   27  C18 UNK     1      10.221   6.332   6.626  1.00  0.00     0.048 C 
HETATM   28  C8  UNK     1      13.828   6.172   7.749  1.00  0.00     0.018 A 
ENDBRANCH  20  22
ENDBRANCH  19  20
ENDBRANCH   2  19
TORSDOF 6
ENDMDL
MODEL 8
REMARK VINA RESULT:      -8.8      6.657      9.152
REMARK  6 active torsions:
REMARK  status: ('A' for Active; 'I' for Inactive)
REMARK    1  A    between atoms: C15_20  and  O1_3 
REMARK    2  A    between atoms: C4_9  and  O1_3 
REMARK    3  A    between atoms: C1_6  and  C13_18 
REMARK    4  A    between atoms: C15_20  and  C2_7 
REMARK    5  A    between atoms: C13_18  and  C16_21 
REMARK    6  A    between atoms: C14_19  and  C17_22 
ROOT
HETATM    1  C1  UNK     1      18.706  -0.797  36.049  1.00  0.00     0.014 A 
HETATM    2  C4  UNK     1      19.722  -3.392  35.927  1.00  0.00     0.079 A 
HETATM    3  C5  UNK     1      18.299  -1.750  36.983  1.00  0.00     0.018 A 
HETATM    4  C6  UNK     1      19.621  -1.141  35.055  1.00  0.00     0.018 A 
HETATM    5  C9  UNK     1      18.806  -3.047  36.922  1.00  0.00     0.038 A 
HETATM    6  C10 UNK     1      20.128  -2.439  34.993  1.00  0.00     0.038 A 
ENDROOT
BRANCH   1   7
HETATM    7  C13 UNK     1      18.175   0.556  36.113  1.00  0.00     0.182 C 
HETATM    8  O2  UNK     1      17.351   0.875  36.983  1.00  0.00    -0.288 OA
BRANCH   7   9
HETATM    9  C16 UNK     1      18.621   1.554  35.083  1.00  0.00     0.056 C 
HETATM   10  C17 UNK     1      17.850   1.832  34.021  1.00  0.00     0.017 C 
BRANCH  10  11
HETATM   11  C14 UNK     1      18.207   2.783  32.955  1.00  0.00    -0.014 A 
HETATM   12  C19 UNK     1      18.654   2.352  31.715  1.00  0.00     0.045 A 
HETATM   13 Cl1  UNK     1      18.828   0.676  31.323  1.00  0.00    -0.083 Cl
HETATM   14  C21 UNK     1      18.979   3.292  30.737  1.00  0.00     0.048 A 
HETATM   15  C23 UNK     1      18.853   4.655  31.010  1.00  0.00     0.035 A 
HETATM   16  C22 UNK     1      18.404   5.076  32.262  1.00  0.00     0.024 A 
HETATM   17 Cl2  UNK     1      19.256   5.816  29.806  1.00  0.00    -0.084 Cl
HETATM   18  C20 UNK     1      18.079   4.135  33.239  1.00  0.00     0.015 A 
ENDBRANCH  10  11
ENDBRANCH   7   9
ENDBRANCH   1   7
BRANCH   2  19
HETATM   19  O1  UNK     1      20.215  -4.659  35.866  1.00  0.00    -0.275 OA
BRANCH  19  20
HETATM   20  C15 UNK     1      20.885  -5.072  37.021  1.00  0.00     0.298 C 
HETATM   21  O3  UNK     1      21.705  -4.412  37.641  1.00  0.00    -0.259 OA
BRANCH  20  22
HETATM   22  C2  UNK     1      20.466  -6.437  37.426  1.00  0.00     0.040 A 
HETATM   23  C7  UNK     1      20.177  -6.681  38.753  1.00  0.00     0.018 A 
HETATM   24  C11 UNK     1      19.782  -7.964  39.132  1.00  0.00     0.007 A 
HETATM   25  C3  UNK     1      19.684  -8.975  38.177  1.00  0.00    -0.062 A 
HETATM   26  C12 UNK     1      19.982  -8.703  36.842  1.00  0.00     0.007 A 
HETATM   27  C18 UNK     1      19.264 -10.347  38.583  1.00  0.00     0.048 C 
HETATM   28  C8  UNK     1      20.377  -7.421  36.462  1.00  0.00     0.018 A 
ENDBRANCH  20  22
ENDBRANCH  19  20
ENDBRANCH   2  19
TORSDOF 6
ENDMDL
MODEL 9
REMARK VINA RESULT:      -8.7     23.095     24.770
REMARK  6 active torsions:
REMARK  status: ('A' for Active; 'I' for Inactive)
REMARK    1  A    between atoms: C15_20  and  O1_3 
REMARK    2  A    between atoms: C4_9  and  O1_3 
REMARK    3  A    between atoms: C1_6  and  C13_18 
REMARK    4  A    between atoms: C15_20  and  C2_7 
REMARK    5  A    between atoms: C13_18  and  C16_21 
REMARK    6  A    between atoms: C14_19  and  C17_22 
ROOT
HETATM    1  C1  UNK     1      16.687   9.585   9.457  1.00  0.00     0.014 A 
HETATM    2  C4  UNK     1      15.330   7.319  10.351  1.00  0.00     0.079 A 
HETATM    3  C5  UNK     1      15.293   9.567   9.467  1.00  0.00     0.018 A 
HETATM    4  C6  UNK     1      17.403   8.471   9.895  1.00  0.00     0.018 A 
HETATM    5  C9  UNK     1      14.614   8.433   9.913  1.00  0.00     0.038 A 
HETATM    6  C10 UNK     1      16.724   7.338  10.341  1.00  0.00     0.038 A 
ENDROOT
BRANCH   1   7
HETATM    7  C13 UNK     1      17.394  10.768   8.991  1.00  0.00     0.182 C 
HETATM    8  O2  UNK     1      18.604  10.721   8.722  1.00  0.00    -0.288 OA
BRANCH   7   9
HETATM    9  C16 UNK     1      16.637  12.059   8.870  1.00  0.00     0.056 C 
HETATM   10  C17 UNK     1      16.278  12.533   7.668  1.00  0.00     0.017 C 
BRANCH  10  11
HETATM   11  C14 UNK     1      15.548  13.793   7.449  1.00  0.00    -0.014 A 
HETATM   12  C19 UNK     1      15.988  14.741   6.539  1.00  0.00     0.045 A 
HETATM   13 Cl1  UNK     1      17.420  14.524   5.593  1.00  0.00    -0.083 Cl
HETATM   14  C21 UNK     1      15.260  15.919   6.367  1.00  0.00     0.048 A 
HETATM   15  C23 UNK     1      14.099  16.136   7.110  1.00  0.00     0.035 A 
HETATM   16  C22 UNK     1      13.667  15.175   8.024  1.00  0.00     0.024 A 
HETATM   17 Cl2  UNK     1      13.201  17.589   6.901  1.00  0.00    -0.084 Cl
HETATM   18  C20 UNK     1      14.395  13.997   8.195  1.00  0.00     0.015 A 
ENDBRANCH  10  11
ENDBRANCH   7   9
ENDBRANCH   1   7
BRANCH   2  19
HETATM   19  O1  UNK     1      14.667   6.212  10.784  1.00  0.00    -0.275 OA
BRANCH  19  20
HETATM   20  C15 UNK     1      14.511   5.218   9.814  1.00  0.00     0.298 C 
HETATM   21  O3  UNK     1      15.258   4.264   9.647  1.00  0.00    -0.259 OA
BRANCH  20  22
HETATM   22  C2  UNK     1      13.297   5.453   8.993  1.00  0.00     0.040 A 
HETATM   23  C7  UNK     1      12.056   5.304   9.579  1.00  0.00     0.018 A 
HETATM   24  C11 UNK     1      10.916   5.527   8.807  1.00  0.00     0.007 A 
HETATM   25  C3  UNK     1      11.040   5.894   7.468  1.00  0.00    -0.062 A 
HETATM   26  C12 UNK     1      12.306   6.038   6.899  1.00  0.00     0.007 A 
HETATM   27  C18 UNK     1       9.821   6.131   6.643  1.00  0.00     0.048 C 
HETATM   28  C8  UNK     1      13.446   5.815   7.670  1.00  0.00     0.018 A 
ENDBRANCH  20  22
ENDBRANCH  19  20
ENDBRANCH   2  19
TORSDOF 6
ENDMDL
MODEL 10
REMARK VINA RESULT:      -8.6     10.269     15.449
REMARK  6 active torsions:
REMARK  status: ('A' for Active; 'I' for Inactive)
REMARK    1  A    between atoms: C15_20  and  O1_3 
REMARK    2  A    between atoms: C4_9  and  O1_3 
REMARK    3  A    between atoms: C1_6  and  C13_18 
REMARK    4  A    between atoms: C15_20  and  C2_7 
REMARK    5  A    between atoms: C13_18  and  C16_21 
REMARK    6  A    between atoms: C14_19  and  C17_22 
ROOT
HETATM    1  C1  UNK     1      21.652  -7.029  37.808  1.00  0.00     0.014 A 
HETATM    2  C4  UNK     1      20.176  -5.026  36.547  1.00  0.00     0.079 A 
HETATM    3  C5  UNK     1      20.971  -7.306  36.623  1.00  0.00     0.018 A 
HETATM    4  C6  UNK     1      21.595  -5.750  38.363  1.00  0.00     0.018 A 
HETATM    5  C9  UNK     1      20.232  -6.305  35.992  1.00  0.00     0.038 A 
HETATM    6  C10 UNK     1      20.856  -4.749  37.732  1.00  0.00     0.038 A 
ENDROOT
BRANCH   1   7
HETATM    7  C13 UNK     1      22.420  -8.074  38.466  1.00  0.00     0.182 C 
HETATM    8  O2  UNK     1      21.894  -8.816  39.308  1.00  0.00    -0.288 OA
BRANCH   7   9
HETATM    9  C16 UNK     1      23.877  -8.218  38.128  1.00  0.00     0.056 C 
HETATM   10  C17 UNK     1      24.820  -8.008  39.058  1.00  0.00     0.017 C 
BRANCH  10  11
HETATM   11  C14 UNK     1      26.269  -8.111  38.818  1.00  0.00    -0.014 A 
HETATM   12  C19 UNK     1      27.058  -6.986  38.631  1.00  0.00     0.045 A 
HETATM   13 Cl1  UNK     1      26.409  -5.383  38.662  1.00  0.00    -0.083 Cl
HETATM   14  C21 UNK     1      28.427  -7.137  38.408  1.00  0.00     0.048 A 
HETATM   15  C23 UNK     1      28.992  -8.411  38.375  1.00  0.00     0.035 A 
HETATM   16  C22 UNK     1      28.188  -9.536  38.563  1.00  0.00     0.024 A 
HETATM   17 Cl2  UNK     1      30.680  -8.599  38.097  1.00  0.00    -0.084 Cl
HETATM   18  C20 UNK     1      26.819  -9.385  38.787  1.00  0.00     0.015 A 
ENDBRANCH  10  11
ENDBRANCH   7   9
ENDBRANCH   1   7
BRANCH   2  19
HETATM   19  O1  UNK     1      19.453  -4.050  35.933  1.00  0.00    -0.275 OA
BRANCH  19  20
HETATM   20  C15 UNK     1      20.114  -2.823  35.831  1.00  0.00     0.298 C 
HETATM   21  O3  UNK     1      21.270  -2.665  35.465  1.00  0.00    -0.259 OA
BRANCH  20  22
HETATM   22  C2  UNK     1      19.224  -1.699  36.219  1.00  0.00     0.040 A 
HETATM   23  C7  UNK     1      19.050  -0.651  35.338  1.00  0.00     0.018 A 
HETATM   24  C11 UNK     1      18.212   0.403  35.703  1.00  0.00     0.007 A 
HETATM   25  C3  UNK     1      17.567   0.386  36.939  1.00  0.00    -0.062 A 
HETATM   26  C12 UNK     1      17.760  -0.685  37.811  1.00  0.00     0.007 A 
HETATM   27  C18 UNK     1      16.673   1.514  37.328  1.00  0.00     0.048 C 
HETATM   28  C8  UNK     1      18.597  -1.739  37.447  1.00  0.00     0.018 A 
ENDBRANCH  20  22
ENDBRANCH  19  20
ENDBRANCH   2  19
TORSDOF 6
ENDMDL
