MODEL 1
REMARK VINA RESULT:      -7.8      0.000      0.000
REMARK  1 active torsions:
REMARK  status: ('A' for Active; 'I' for Inactive)
REMARK       I    between atoms: C5_10  and  N1_4 
REMARK    1  A    between atoms: C5_10  and  C7_12 
ROOT
HETATM    1  O2  UNK     1      11.219   7.510   9.631  1.00  0.00    -0.274 OA
HETATM    2  O3  UNK     1      12.750   8.180  11.188  1.00  0.00    -0.259 OA
HETATM    3  C7  UNK     1      13.598   7.537   9.070  1.00  0.00     0.108 A 
HETATM    4  C8  UNK     1      13.340   7.093   7.835  1.00  0.00     0.037 A 
HETATM    5  C9  UNK     1      11.970   6.827   7.422  1.00  0.00    -0.001 A 
HETATM    6  C10 UNK     1      12.518   7.772  10.054  1.00  0.00     0.304 A 
HETATM    7  C11 UNK     1      10.940   7.043   8.332  1.00  0.00     0.089 A 
HETATM    8  C12 UNK     1      11.654   6.363   6.143  1.00  0.00     0.014 A 
HETATM    9  C13 UNK     1       9.608   6.808   8.000  1.00  0.00     0.038 A 
HETATM   10  C14 UNK     1      10.321   6.123   5.795  1.00  0.00     0.001 A 
HETATM   11  C15 UNK     1       9.301   6.346   6.723  1.00  0.00     0.003 A 
ENDROOT
BRANCH   3  12
HETATM   12  C5  UNK     1      15.019   7.777   9.394  1.00  0.00     0.260 C 
HETATM   13  N1  UNK     1      15.493   9.083   9.304  1.00  0.00    -0.344 N 
HETATM   14  C1  UNK     1      14.712  10.261   8.907  1.00  0.00     0.156 C 
HETATM   15  C2  UNK     1      16.849   9.380   9.766  1.00  0.00     0.156 C 
HETATM   16  C3  UNK     1      15.507  11.178   7.972  1.00  0.00     0.291 C 
HETATM   17  N2  UNK     1      16.816  11.518   8.545  1.00  0.00     0.087 N 
HETATM   18  C4  UNK     1      17.592  10.297   8.796  1.00  0.00     0.291 C 
HETATM   19  C6  UNK     1      17.547  12.419   7.656  1.00  0.00     0.310 C 
HETATM   20  O1  UNK     1      15.700   6.806   9.731  1.00  0.00    -0.267 OA
ENDBRANCH   3  12
TORSDOF 1
ENDMDL
MODEL 2
REMARK VINA RESULT:      -7.7      1.986      2.659
REMARK  1 active torsions:
REMARK  status: ('A' for Active; 'I' for Inactive)
REMARK       I    between atoms: C5_10  and  N1_4 
REMARK    1  A    between atoms: C5_10  and  C7_12 
ROOT
HETATM    1  O2  UNK     1      11.776   6.683   6.313  1.00  0.00    -0.274 OA
HETATM    2  O3  UNK     1      14.050   6.881   6.234  1.00  0.00    -0.259 OA
HETATM    3  C7  UNK     1      13.118   6.148   8.285  1.00  0.00     0.108 A 
HETATM    4  C8  UNK     1      12.020   5.840   8.983  1.00  0.00     0.037 A 
HETATM    5  C9  UNK     1      10.706   5.939   8.365  1.00  0.00    -0.001 A 
HETATM    6  C10 UNK     1      13.045   6.597   6.877  1.00  0.00     0.304 A 
HETATM    7  C11 UNK     1      10.615   6.359   7.042  1.00  0.00     0.089 A 
HETATM    8  C12 UNK     1       9.532   5.628   9.056  1.00  0.00     0.014 A 
HETATM    9  C13 UNK     1       9.389   6.475   6.392  1.00  0.00     0.038 A 
HETATM   10  C14 UNK     1       8.294   5.739   8.417  1.00  0.00     0.001 A 
HETATM   11  C15 UNK     1       8.223   6.162   7.087  1.00  0.00     0.003 A 
ENDROOT
BRANCH   3  12
HETATM   12  C5  UNK     1      14.404   6.016   9.000  1.00  0.00     0.260 C 
HETATM   13  N1  UNK     1      14.966   7.168   9.542  1.00  0.00    -0.344 N 
HETATM   14  C1  UNK     1      14.405   8.523   9.467  1.00  0.00     0.156 C 
HETATM   15  C2  UNK     1      16.155   7.049  10.388  1.00  0.00     0.156 C 
HETATM   16  C3  UNK     1      15.486   9.568   9.181  1.00  0.00     0.291 C 
HETATM   17  N2  UNK     1      16.601   9.457  10.130  1.00  0.00     0.087 N 
HETATM   18  C4  UNK     1      17.197   8.116  10.057  1.00  0.00     0.291 C 
HETATM   19  C6  UNK     1      17.608  10.482   9.863  1.00  0.00     0.310 C 
HETATM   20  O1  UNK     1      14.900   4.890   9.079  1.00  0.00    -0.267 OA
ENDBRANCH   3  12
TORSDOF 1
ENDMDL
MODEL 3
REMARK VINA RESULT:      -7.5     26.144     27.810
REMARK  1 active torsions:
REMARK  status: ('A' for Active; 'I' for Inactive)
REMARK       I    between atoms: C5_10  and  N1_4 
REMARK    1  A    between atoms: C5_10  and  C7_12 
ROOT
HETATM    1  O2  UNK     1      18.803   1.253  31.652  1.00  0.00    -0.274 OA
HETATM    2  O3  UNK     1      17.761   1.918  33.573  1.00  0.00    -0.259 OA
HETATM    3  C7  UNK     1      18.413  -0.357  33.449  1.00  0.00     0.108 A 
HETATM    4  C8  UNK     1      18.989  -1.332  32.738  1.00  0.00     0.037 A 
HETATM    5  C9  UNK     1      19.518  -1.057  31.410  1.00  0.00    -0.001 A 
HETATM    6  C10 UNK     1      18.288   1.021  32.924  1.00  0.00     0.304 A 
HETATM    7  C11 UNK     1      19.412   0.231  30.898  1.00  0.00     0.089 A 
HETATM    8  C12 UNK     1      20.127  -2.045  30.632  1.00  0.00     0.014 A 
HETATM    9  C13 UNK     1      19.896   0.560  29.634  1.00  0.00     0.038 A 
HETATM   10  C14 UNK     1      20.620  -1.729  29.362  1.00  0.00     0.001 A 
HETATM   11  C15 UNK     1      20.504  -0.429  28.865  1.00  0.00     0.003 A 
ENDROOT
BRANCH   3  12
HETATM   12  C5  UNK     1      17.908  -0.735  34.785  1.00  0.00     0.260 C 
HETATM   13  N1  UNK     1      18.805  -1.315  35.677  1.00  0.00    -0.344 N 
HETATM   14  C1  UNK     1      20.222  -1.600  35.417  1.00  0.00     0.156 C 
HETATM   15  C2  UNK     1      18.380  -1.558  37.057  1.00  0.00     0.156 C 
HETATM   16  C3  UNK     1      20.635  -2.967  35.970  1.00  0.00     0.291 C 
HETATM   17  N2  UNK     1      20.269  -3.101  37.386  1.00  0.00     0.087 N 
HETATM   18  C4  UNK     1      18.820  -2.933  37.554  1.00  0.00     0.291 C 
HETATM   19  C6  UNK     1      20.700  -4.398  37.907  1.00  0.00     0.310 C 
HETATM   20  O1  UNK     1      16.722  -0.507  35.033  1.00  0.00    -0.267 OA
ENDBRANCH   3  12
TORSDOF 1
ENDMDL
MODEL 4
REMARK VINA RESULT:      -7.4     30.989     32.569
REMARK  1 active torsions:
REMARK  status: ('A' for Active; 'I' for Inactive)
REMARK       I    between atoms: C5_10  and  N1_4 
REMARK    1  A    between atoms: C5_10  and  C7_12 
ROOT
HETATM    1  O2  UNK     1      19.097  -7.015  37.872  1.00  0.00    -0.274 OA
HETATM    2  O3  UNK     1      17.831  -5.777  36.428  1.00  0.00    -0.259 OA
HETATM    3  C7  UNK     1      20.070  -5.071  36.753  1.00  0.00     0.108 A 
HETATM    4  C8  UNK     1      21.243  -5.273  37.362  1.00  0.00     0.037 A 
HETATM    5  C9  UNK     1      21.409  -6.387  38.284  1.00  0.00    -0.001 A 
HETATM    6  C10 UNK     1      18.908  -5.958  36.986  1.00  0.00     0.304 A 
HETATM    7  C11 UNK     1      20.330  -7.233  38.518  1.00  0.00     0.089 A 
HETATM    8  C12 UNK     1      22.615  -6.635  38.944  1.00  0.00     0.014 A 
HETATM    9  C13 UNK     1      20.422  -8.316  39.388  1.00  0.00     0.038 A 
HETATM   10  C14 UNK     1      22.724  -7.719  39.819  1.00  0.00     0.001 A 
HETATM   11  C15 UNK     1      21.628  -8.558  40.041  1.00  0.00     0.003 A 
ENDROOT
BRANCH   3  12
HETATM   12  C5  UNK     1      20.001  -3.915  35.836  1.00  0.00     0.260 C 
HETATM   13  N1  UNK     1      19.560  -2.701  36.356  1.00  0.00    -0.344 N 
HETATM   14  C1  UNK     1      19.143  -2.453  37.742  1.00  0.00     0.156 C 
HETATM   15  C2  UNK     1      19.627  -1.503  35.518  1.00  0.00     0.156 C 
HETATM   16  C3  UNK     1      17.895  -1.570  37.807  1.00  0.00     0.291 C 
HETATM   17  N2  UNK     1      18.071  -0.338  37.028  1.00  0.00     0.087 N 
HETATM   18  C4  UNK     1      18.357  -0.662  35.625  1.00  0.00     0.291 C 
HETATM   19  C6  UNK     1      16.883   0.509  37.129  1.00  0.00     0.310 C 
HETATM   20  O1  UNK     1      20.345  -4.093  34.666  1.00  0.00    -0.267 OA
ENDBRANCH   3  12
TORSDOF 1
ENDMDL
MODEL 5
REMARK VINA RESULT:      -7.4     23.810     25.624
REMARK  1 active torsions:
REMARK  status: ('A' for Active; 'I' for Inactive)
REMARK       I    between atoms: C5_10  and  N1_4 
REMARK    1  A    between atoms: C5_10  and  C7_12 
ROOT
HETATM    1  O2  UNK     1      18.717   7.091  34.137  1.00  0.00    -0.274 OA
HETATM    2  O3  UNK     1      17.296   7.963  35.699  1.00  0.00    -0.259 OA
HETATM    3  C7  UNK     1      16.486   7.842  33.476  1.00  0.00     0.108 A 
HETATM    4  C8  UNK     1      16.717   7.498  32.204  1.00  0.00     0.037 A 
HETATM    5  C9  UNK     1      17.996   6.917  31.822  1.00  0.00    -0.001 A 
HETATM    6  C10 UNK     1      17.505   7.649  34.532  1.00  0.00     0.304 A 
HETATM    7  C11 UNK     1      18.967   6.726  32.800  1.00  0.00     0.089 A 
HETATM    8  C12 UNK     1      18.281   6.543  30.507  1.00  0.00     0.014 A 
HETATM    9  C13 UNK     1      20.210   6.175  32.501  1.00  0.00     0.038 A 
HETATM   10  C14 UNK     1      19.525   5.988  30.191  1.00  0.00     0.001 A 
HETATM   11  C15 UNK     1      20.487   5.804  31.187  1.00  0.00     0.003 A 
ENDROOT
BRANCH   3  12
HETATM   12  C5  UNK     1      15.159   8.424  33.763  1.00  0.00     0.260 C 
HETATM   13  N1  UNK     1      15.080   9.803  33.936  1.00  0.00    -0.344 N 
HETATM   14  C1  UNK     1      16.201  10.750  33.868  1.00  0.00     0.156 C 
HETATM   15  C2  UNK     1      13.763  10.429  34.067  1.00  0.00     0.156 C 
HETATM   16  C3  UNK     1      16.115  11.808  34.971  1.00  0.00     0.291 C 
HETATM   17  N2  UNK     1      14.802  12.466  34.977  1.00  0.00     0.087 N 
HETATM   18  C4  UNK     1      13.738  11.474  35.180  1.00  0.00     0.291 C 
HETATM   19  C6  UNK     1      14.749  13.496  36.015  1.00  0.00     0.310 C 
HETATM   20  O1  UNK     1      14.199   7.653  33.827  1.00  0.00    -0.267 OA
ENDBRANCH   3  12
TORSDOF 1
ENDMDL
MODEL 6
REMARK VINA RESULT:      -7.3     22.767     24.771
REMARK  1 active torsions:
REMARK  status: ('A' for Active; 'I' for Inactive)
REMARK       I    between atoms: C5_10  and  N1_4 
REMARK    1  A    between atoms: C5_10  and  C7_12 
ROOT
HETATM    1  O2  UNK     1      20.208   6.667  32.655  1.00  0.00    -0.274 OA
HETATM    2  O3  UNK     1      21.204   5.643  30.872  1.00  0.00    -0.259 OA
HETATM    3  C7  UNK     1      18.877   5.285  31.140  1.00  0.00     0.108 A 
HETATM    4  C8  UNK     1      17.769   5.525  31.850  1.00  0.00     0.037 A 
HETATM    5  C9  UNK     1      17.825   6.373  33.032  1.00  0.00    -0.001 A 
HETATM    6  C10 UNK     1      20.186   5.861  31.521  1.00  0.00     0.304 A 
HETATM    7  C11 UNK     1      19.045   6.924  33.407  1.00  0.00     0.089 A 
HETATM    8  C12 UNK     1      16.693   6.651  33.803  1.00  0.00     0.014 A 
HETATM    9  C13 UNK     1      19.166   7.743  34.527  1.00  0.00     0.038 A 
HETATM   10  C14 UNK     1      16.799   7.472  34.929  1.00  0.00     0.001 A 
HETATM   11  C15 UNK     1      18.034   8.017  35.290  1.00  0.00     0.003 A 
ENDROOT
BRANCH   3  12
HETATM   12  C5  UNK     1      18.718   4.413  29.958  1.00  0.00     0.260 C 
HETATM   13  N1  UNK     1      18.631   3.040  30.172  1.00  0.00    -0.344 N 
HETATM   14  C1  UNK     1      18.689   2.362  31.473  1.00  0.00     0.156 C 
HETATM   15  C2  UNK     1      18.318   2.163  29.043  1.00  0.00     0.156 C 
HETATM   16  C3  UNK     1      19.540   1.091  31.410  1.00  0.00     0.291 C 
HETATM   17  N2  UNK     1      19.104   0.210  30.318  1.00  0.00     0.087 N 
HETATM   18  C4  UNK     1      19.196   0.914  29.032  1.00  0.00     0.291 C 
HETATM   19  C6  UNK     1      19.906  -1.013  30.293  1.00  0.00     0.310 C 
HETATM   20  O1  UNK     1      18.666   4.955  28.852  1.00  0.00    -0.267 OA
ENDBRANCH   3  12
TORSDOF 1
ENDMDL
MODEL 7
REMARK VINA RESULT:      -7.3     23.663     25.552
REMARK  1 active torsions:
REMARK  status: ('A' for Active; 'I' for Inactive)
REMARK       I    between atoms: C5_10  and  N1_4 
REMARK    1  A    between atoms: C5_10  and  C7_12 
ROOT
HETATM    1  O2  UNK     1      17.399   6.938  30.932  1.00  0.00    -0.274 OA
HETATM    2  O3  UNK     1      15.229   7.642  31.065  1.00  0.00    -0.259 OA
HETATM    3  C7  UNK     1      16.481   7.668  33.077  1.00  0.00     0.108 A 
HETATM    4  C8  UNK     1      17.647   7.431  33.688  1.00  0.00     0.037 A 
HETATM    5  C9  UNK     1      18.781   6.921  32.932  1.00  0.00    -0.001 A 
HETATM    6  C10 UNK     1      16.297   7.425  31.629  1.00  0.00     0.304 A 
HETATM    7  C11 UNK     1      18.630   6.687  31.569  1.00  0.00     0.089 A 
HETATM    8  C12 UNK     1      20.016   6.659  33.528  1.00  0.00     0.014 A 
HETATM    9  C13 UNK     1      19.675   6.200  30.788  1.00  0.00     0.038 A 
HETATM   10  C14 UNK     1      21.076   6.171  32.757  1.00  0.00     0.001 A 
HETATM   11  C15 UNK     1      20.904   5.942  31.390  1.00  0.00     0.003 A 
ENDROOT
BRANCH   3  12
HETATM   12  C5  UNK     1      15.390   8.184  33.930  1.00  0.00     0.260 C 
HETATM   13  N1  UNK     1      15.346   9.555  34.167  1.00  0.00    -0.344 N 
HETATM   14  C1  UNK     1      16.293  10.553  33.654  1.00  0.00     0.156 C 
HETATM   15  C2  UNK     1      14.195  10.117  34.876  1.00  0.00     0.156 C 
HETATM   16  C3  UNK     1      16.657  11.588  34.721  1.00  0.00     0.291 C 
HETATM   17  N2  UNK     1      15.455  12.185  35.318  1.00  0.00     0.087 N 
HETATM   18  C4  UNK     1      14.619  11.142  35.926  1.00  0.00     0.291 C 
HETATM   19  C6  UNK     1      15.821  13.195  36.311  1.00  0.00     0.310 C 
HETATM   20  O1  UNK     1      14.580   7.368  34.375  1.00  0.00    -0.267 OA
ENDBRANCH   3  12
TORSDOF 1
ENDMDL
MODEL 8
REMARK VINA RESULT:      -7.2      2.186      6.301
REMARK  1 active torsions:
REMARK  status: ('A' for Active; 'I' for Inactive)
REMARK       I    between atoms: C5_10  and  N1_4 
REMARK    1  A    between atoms: C5_10  and  C7_12 
ROOT
HETATM    1  O2  UNK     1      14.374  10.187  11.428  1.00  0.00    -0.274 OA
HETATM    2  O3  UNK     1      12.777   8.557  11.523  1.00  0.00    -0.259 OA
HETATM    3  C7  UNK     1      14.735   8.056  10.287  1.00  0.00     0.108 A 
HETATM    4  C8  UNK     1      15.933   8.461   9.850  1.00  0.00     0.037 A 
HETATM    5  C9  UNK     1      16.427   9.788  10.188  1.00  0.00    -0.001 A 
HETATM    6  C10 UNK     1      13.875   8.925  11.120  1.00  0.00     0.304 A 
HETATM    7  C11 UNK     1      15.634  10.621  10.971  1.00  0.00     0.089 A 
HETATM    8  C12 UNK     1      17.670  10.253   9.754  1.00  0.00     0.014 A 
HETATM    9  C13 UNK     1      16.048  11.901  11.330  1.00  0.00     0.038 A 
HETATM   10  C14 UNK     1      18.100  11.536  10.107  1.00  0.00     0.001 A 
HETATM   11  C15 UNK     1      17.289  12.358  10.894  1.00  0.00     0.003 A 
ENDROOT
BRANCH   3  12
HETATM   12  C5  UNK     1      14.323   6.694   9.890  1.00  0.00     0.260 C 
HETATM   13  N1  UNK     1      13.580   6.556   8.721  1.00  0.00    -0.344 N 
HETATM   14  C1  UNK     1      13.152   7.646   7.834  1.00  0.00     0.156 C 
HETATM   15  C2  UNK     1      13.289   5.213   8.217  1.00  0.00     0.156 C 
HETATM   16  C3  UNK     1      11.711   7.453   7.356  1.00  0.00     0.291 C 
HETATM   17  N2  UNK     1      11.517   6.121   6.769  1.00  0.00     0.087 N 
HETATM   18  C4  UNK     1      11.839   5.081   7.755  1.00  0.00     0.291 C 
HETATM   19  C6  UNK     1      10.145   5.965   6.288  1.00  0.00     0.310 C 
HETATM   20  O1  UNK     1      14.668   5.759  10.616  1.00  0.00    -0.267 OA
ENDBRANCH   3  12
TORSDOF 1
ENDMDL
MODEL 9
REMARK VINA RESULT:      -7.2      2.983      7.023
REMARK  1 active torsions:
REMARK  status: ('A' for Active; 'I' for Inactive)
REMARK       I    between atoms: C5_10  and  N1_4 
REMARK    1  A    between atoms: C5_10  and  C7_12 
ROOT
HETATM    1  O2  UNK     1      14.671   5.516   9.130  1.00  0.00    -0.274 OA
HETATM    2  O3  UNK     1      13.012   4.255   8.194  1.00  0.00    -0.259 OA
HETATM    3  C7  UNK     1      12.844   6.603   7.923  1.00  0.00     0.108 A 
HETATM    4  C8  UNK     1      13.368   7.810   8.161  1.00  0.00     0.037 A 
HETATM    5  C9  UNK     1      14.606   7.937   8.916  1.00  0.00    -0.001 A 
HETATM    6  C10 UNK     1      13.490   5.364   8.411  1.00  0.00     0.304 A 
HETATM    7  C11 UNK     1      15.229   6.785   9.383  1.00  0.00     0.089 A 
HETATM    8  C12 UNK     1      15.189   9.177   9.189  1.00  0.00     0.014 A 
HETATM    9  C13 UNK     1      16.415   6.836  10.112  1.00  0.00     0.038 A 
HETATM   10  C14 UNK     1      16.380   9.245   9.918  1.00  0.00     0.001 A 
HETATM   11  C15 UNK     1      16.991   8.076  10.379  1.00  0.00     0.003 A 
ENDROOT
BRANCH   3  12
HETATM   12  C5  UNK     1      11.586   6.579   7.148  1.00  0.00     0.260 C 
HETATM   13  N1  UNK     1      10.396   6.406   7.849  1.00  0.00    -0.344 N 
HETATM   14  C1  UNK     1      10.264   6.234   9.301  1.00  0.00     0.156 C 
HETATM   15  C2  UNK     1       9.126   6.532   7.134  1.00  0.00     0.156 C 
HETATM   16  C3  UNK     1       9.236   5.155   9.652  1.00  0.00     0.291 C 
HETATM   17  N2  UNK     1       7.953   5.402   8.980  1.00  0.00     0.087 N 
HETATM   18  C4  UNK     1       8.141   5.432   7.524  1.00  0.00     0.291 C 
HETATM   19  C6  UNK     1       6.974   4.382   9.352  1.00  0.00     0.310 C 
HETATM   20  O1  UNK     1      11.666   6.721   5.926  1.00  0.00    -0.267 OA
ENDBRANCH   3  12
TORSDOF 1
ENDMDL
MODEL 10
REMARK VINA RESULT:      -7.2     22.622     24.221
REMARK  1 active torsions:
REMARK  status: ('A' for Active; 'I' for Inactive)
REMARK       I    between atoms: C5_10  and  N1_4 
REMARK    1  A    between atoms: C5_10  and  C7_12 
ROOT
HETATM    1  O2  UNK     1      18.671   0.454  32.184  1.00  0.00    -0.274 OA
HETATM    2  O3  UNK     1      17.651   2.480  32.455  1.00  0.00    -0.259 OA
HETATM    3  C7  UNK     1      18.817   2.141  30.420  1.00  0.00     0.108 A 
HETATM    4  C8  UNK     1      19.554   1.323  29.661  1.00  0.00     0.037 A 
HETATM    5  C9  UNK     1      19.897  -0.009  30.136  1.00  0.00    -0.001 A 
HETATM    6  C10 UNK     1      18.328   1.733  31.756  1.00  0.00     0.304 A 
HETATM    7  C11 UNK     1      19.446  -0.413  31.389  1.00  0.00     0.089 A 
HETATM    8  C12 UNK     1      20.664  -0.896  29.378  1.00  0.00     0.014 A 
HETATM    9  C13 UNK     1      19.740  -1.674  31.903  1.00  0.00     0.038 A 
HETATM   10  C14 UNK     1      20.966  -2.166  29.879  1.00  0.00     0.001 A 
HETATM   11  C15 UNK     1      20.504  -2.553  31.140  1.00  0.00     0.003 A 
ENDROOT
BRANCH   3  12
HETATM   12  C5  UNK     1      18.522   3.471  29.850  1.00  0.00     0.260 C 
HETATM   13  N1  UNK     1      18.881   4.590  30.596  1.00  0.00    -0.344 N 
HETATM   14  C1  UNK     1      19.527   4.581  31.915  1.00  0.00     0.156 C 
HETATM   15  C2  UNK     1      18.746   5.918  29.995  1.00  0.00     0.156 C 
HETATM   16  C3  UNK     1      18.922   5.634  32.847  1.00  0.00     0.291 C 
HETATM   17  N2  UNK     1      18.913   6.961  32.219  1.00  0.00     0.087 N 
HETATM   18  C4  UNK     1      18.140   6.925  30.971  1.00  0.00     0.291 C 
HETATM   19  C6  UNK     1      18.363   7.960  33.135  1.00  0.00     0.310 C 
HETATM   20  O1  UNK     1      17.980   3.510  28.743  1.00  0.00    -0.267 OA
ENDBRANCH   3  12
TORSDOF 1
ENDMDL
