MODEL 1
REMARK VINA RESULT:      -8.8      0.000      0.000
REMARK  5 active torsions:
REMARK  status: ('A' for Active; 'I' for Inactive)
REMARK    1  A    between atoms: C10_17  and  O2_3 
REMARK    2  A    between atoms: C11_18  and  O3_4 
REMARK    3  A    between atoms: C1_8  and  N1_7 
REMARK       I    between atoms: C9_16  and  N1_7 
REMARK    4  A    between atoms: C1_8  and  C2_9 
REMARK    5  A    between atoms: C4_11  and  C9_16 
ROOT
HETATM    1  O4  UNK     1      20.338  -1.449  35.447  1.00  0.00    -0.267 OA
HETATM    2  N1  UNK     1      19.886  -3.676  34.928  1.00  0.00    -0.352 N 
HETATM    3  C9  UNK     1      20.150  -2.351  34.632  1.00  0.00     0.258 C 
HETATM    4  H3  UNK     1      19.788  -4.356  34.180  1.00  0.00     0.163 HD
ENDROOT
BRANCH   3   5
HETATM    5  C4  UNK     1      20.192  -2.085  33.190  1.00  0.00     0.108 A 
HETATM    6  C13 UNK     1      20.841  -3.015  32.238  1.00  0.00     0.304 A 
HETATM    7  O1  UNK     1      20.816  -2.652  30.894  1.00  0.00    -0.274 OA
HETATM    8  O5  UNK     1      21.375  -4.054  32.610  1.00  0.00    -0.259 OA
HETATM    9  C7  UNK     1      20.205  -1.461  30.457  1.00  0.00     0.089 A 
HETATM   10  C15 UNK     1      20.231  -1.183  29.092  1.00  0.00     0.040 A 
HETATM   11  C3  UNK     1      19.602  -0.600  31.369  1.00  0.00     0.001 A 
HETATM   12  C17 UNK     1      19.635  -0.011  28.630  1.00  0.00     0.026 A 
HETATM   13  C16 UNK     1      19.025   0.865  29.530  1.00  0.00     0.035 A 
HETATM   14  C14 UNK     1      19.007   0.572  30.897  1.00  0.00     0.038 A 
HETATM   15 Cl1  UNK     1      18.291   2.312  28.954  1.00  0.00    -0.084 Cl
HETATM   16  C6  UNK     1      19.610  -0.952  32.781  1.00  0.00     0.037 A 
ENDBRANCH   3   5
BRANCH   2  17
HETATM   17  C1  UNK     1      19.798  -4.180  36.280  1.00  0.00     0.161 C 
BRANCH  17  18
HETATM   18  C2  UNK     1      20.338  -5.577  36.395  1.00  0.00    -0.038 A 
HETATM   19  C5  UNK     1      21.018  -5.959  37.545  1.00  0.00     0.048 A 
HETATM   20  C10 UNK     1      21.518  -7.257  37.651  1.00  0.00     0.102 A 
HETATM   21  C11 UNK     1      21.334  -8.163  36.608  1.00  0.00     0.101 A 
HETATM   22  C12 UNK     1      20.649  -7.771  35.456  1.00  0.00     0.040 A 
HETATM   23  C8  UNK     1      20.149  -6.474  35.350  1.00  0.00     0.012 A 
BRANCH  20  24
HETATM   24  O2  UNK     1      22.183  -7.628  38.782  1.00  0.00    -0.353 OA
HETATM   25  C18 UNK     1      23.346  -6.878  39.125  1.00  0.00     0.210 C 
ENDBRANCH  20  24
BRANCH  21  26
HETATM   26  O3  UNK     1      21.817  -9.433  36.700  1.00  0.00    -0.353 OA
HETATM   27  C19 UNK     1      20.875 -10.467  36.980  1.00  0.00     0.210 C 
ENDBRANCH  21  26
ENDBRANCH  17  18
ENDBRANCH   2  17
TORSDOF 5
ENDMDL
MODEL 2
REMARK VINA RESULT:      -8.8      5.301     10.498
REMARK  5 active torsions:
REMARK  status: ('A' for Active; 'I' for Inactive)
REMARK    1  A    between atoms: C10_17  and  O2_3 
REMARK    2  A    between atoms: C11_18  and  O3_4 
REMARK    3  A    between atoms: C1_8  and  N1_7 
REMARK       I    between atoms: C9_16  and  N1_7 
REMARK    4  A    between atoms: C1_8  and  C2_9 
REMARK    5  A    between atoms: C4_11  and  C9_16 
ROOT
HETATM    1  O4  UNK     1      17.458   1.937  29.298  1.00  0.00    -0.267 OA
HETATM    2  N1  UNK     1      19.268   2.989  30.325  1.00  0.00    -0.352 N 
HETATM    3  C9  UNK     1      18.525   1.899  29.909  1.00  0.00     0.258 C 
HETATM    4  H3  UNK     1      20.161   2.851  30.787  1.00  0.00     0.163 HD
ENDROOT
BRANCH   3   5
HETATM    5  C4  UNK     1      19.140   0.616  30.272  1.00  0.00     0.108 A 
HETATM    6  C13 UNK     1      19.770  -0.265  29.265  1.00  0.00     0.304 A 
HETATM    7  O1  UNK     1      20.320  -1.456  29.732  1.00  0.00    -0.274 OA
HETATM    8  O5  UNK     1      19.810   0.033  28.076  1.00  0.00    -0.259 OA
HETATM    9  C7  UNK     1      20.280  -1.808  31.095  1.00  0.00     0.089 A 
HETATM   10  C15 UNK     1      20.856  -3.021  31.468  1.00  0.00     0.040 A 
HETATM   11  C3  UNK     1      19.681  -0.965  32.026  1.00  0.00     0.001 A 
HETATM   12  C17 UNK     1      20.831  -3.397  32.810  1.00  0.00     0.026 A 
HETATM   13  C16 UNK     1      20.234  -2.563  33.758  1.00  0.00     0.035 A 
HETATM   14  C14 UNK     1      19.660  -1.349  33.369  1.00  0.00     0.038 A 
HETATM   15 Cl1  UNK     1      20.206  -3.033  35.414  1.00  0.00    -0.084 Cl
HETATM   16  C6  UNK     1      19.098   0.287  31.569  1.00  0.00     0.037 A 
ENDBRANCH   3   5
BRANCH   2  17
HETATM   17  C1  UNK     1      18.866   4.356  30.080  1.00  0.00     0.161 C 
BRANCH  17  18
HETATM   18  C2  UNK     1      19.012   5.212  31.306  1.00  0.00    -0.038 A 
HETATM   19  C5  UNK     1      17.930   5.381  32.161  1.00  0.00     0.048 A 
HETATM   20  C10 UNK     1      18.068   6.175  33.299  1.00  0.00     0.102 A 
HETATM   21  C11 UNK     1      19.286   6.795  33.574  1.00  0.00     0.101 A 
HETATM   22  C12 UNK     1      20.368   6.620  32.710  1.00  0.00     0.040 A 
HETATM   23  C8  UNK     1      20.230   5.825  31.572  1.00  0.00     0.012 A 
BRANCH  20  24
HETATM   24  O2  UNK     1      17.004   6.336  34.136  1.00  0.00    -0.353 OA
HETATM   25  C18 UNK     1      16.020   7.296  33.756  1.00  0.00     0.210 C 
ENDBRANCH  20  24
BRANCH  21  26
HETATM   26  O3  UNK     1      19.432   7.572  34.683  1.00  0.00    -0.353 OA
HETATM   27  C19 UNK     1      19.764   8.943  34.474  1.00  0.00     0.210 C 
ENDBRANCH  21  26
ENDBRANCH  17  18
ENDBRANCH   2  17
TORSDOF 5
ENDMDL
MODEL 3
REMARK VINA RESULT:      -8.7      9.222     12.816
REMARK  5 active torsions:
REMARK  status: ('A' for Active; 'I' for Inactive)
REMARK    1  A    between atoms: C10_17  and  O2_3 
REMARK    2  A    between atoms: C11_18  and  O3_4 
REMARK    3  A    between atoms: C1_8  and  N1_7 
REMARK       I    between atoms: C9_16  and  N1_7 
REMARK    4  A    between atoms: C1_8  and  C2_9 
REMARK    5  A    between atoms: C4_11  and  C9_16 
ROOT
HETATM    1  O4  UNK     1      17.274   6.958  34.858  1.00  0.00    -0.267 OA
HETATM    2  N1  UNK     1      18.136   7.671  32.813  1.00  0.00    -0.352 N 
HETATM    3  C9  UNK     1      17.232   7.675  33.861  1.00  0.00     0.258 C 
HETATM    4  H3  UNK     1      18.037   8.336  32.052  1.00  0.00     0.163 HD
ENDROOT
BRANCH   3   5
HETATM    5  C4  UNK     1      16.157   8.658  33.684  1.00  0.00     0.108 A 
HETATM    6  C13 UNK     1      15.574   8.953  32.356  1.00  0.00     0.304 A 
HETATM    7  O1  UNK     1      14.559   9.906  32.316  1.00  0.00    -0.274 OA
HETATM    8  O5  UNK     1      15.962   8.390  31.338  1.00  0.00    -0.259 OA
HETATM    9  C7  UNK     1      14.107  10.558  33.479  1.00  0.00     0.089 A 
HETATM   10  C15 UNK     1      13.087  11.497  33.340  1.00  0.00     0.040 A 
HETATM   11  C3  UNK     1      14.670  10.267  34.718  1.00  0.00     0.001 A 
HETATM   12  C17 UNK     1      12.619  12.160  34.473  1.00  0.00     0.026 A 
HETATM   13  C16 UNK     1      13.172  11.880  35.724  1.00  0.00     0.035 A 
HETATM   14  C14 UNK     1      14.195  10.935  35.848  1.00  0.00     0.038 A 
HETATM   15 Cl1  UNK     1      12.590  12.702  37.121  1.00  0.00    -0.084 Cl
HETATM   16  C6  UNK     1      15.732   9.275  34.792  1.00  0.00     0.037 A 
ENDBRANCH   3   5
BRANCH   2  17
HETATM   17  C1  UNK     1      19.281   6.791  32.764  1.00  0.00     0.161 C 
BRANCH  17  18
HETATM   18  C2  UNK     1      18.965   5.495  32.073  1.00  0.00    -0.038 A 
HETATM   19  C5  UNK     1      18.388   4.455  32.791  1.00  0.00     0.048 A 
HETATM   20  C10 UNK     1      18.094   3.253  32.148  1.00  0.00     0.102 A 
HETATM   21  C11 UNK     1      18.379   3.099  30.792  1.00  0.00     0.101 A 
HETATM   22  C12 UNK     1      18.959   4.148  30.078  1.00  0.00     0.040 A 
HETATM   23  C8  UNK     1      19.253   5.351  30.721  1.00  0.00     0.012 A 
BRANCH  20  24
HETATM   24  O2  UNK     1      17.526   2.237  32.856  1.00  0.00    -0.353 OA
HETATM   25  C18 UNK     1      18.267   1.723  33.962  1.00  0.00     0.210 C 
ENDBRANCH  20  24
BRANCH  21  26
HETATM   26  O3  UNK     1      18.096   1.930  30.153  1.00  0.00    -0.353 OA
HETATM   27  C19 UNK     1      17.842   2.001  28.752  1.00  0.00     0.210 C 
ENDBRANCH  21  26
ENDBRANCH  17  18
ENDBRANCH   2  17
TORSDOF 5
ENDMDL
MODEL 4
REMARK VINA RESULT:      -8.5      6.506      9.990
REMARK  5 active torsions:
REMARK  status: ('A' for Active; 'I' for Inactive)
REMARK    1  A    between atoms: C10_17  and  O2_3 
REMARK    2  A    between atoms: C11_18  and  O3_4 
REMARK    3  A    between atoms: C1_8  and  N1_7 
REMARK       I    between atoms: C9_16  and  N1_7 
REMARK    4  A    between atoms: C1_8  and  C2_9 
REMARK    5  A    between atoms: C4_11  and  C9_16 
ROOT
HETATM    1  O4  UNK     1      20.081   5.955  29.685  1.00  0.00    -0.267 OA
HETATM    2  N1  UNK     1      18.446   4.448  30.385  1.00  0.00    -0.352 N 
HETATM    3  C9  UNK     1      19.161   5.630  30.434  1.00  0.00     0.258 C 
HETATM    4  H3  UNK     1      17.672   4.292  31.024  1.00  0.00     0.163 HD
ENDROOT
BRANCH   3   5
HETATM    5  C4  UNK     1      18.715   6.523  31.510  1.00  0.00     0.108 A 
HETATM    6  C13 UNK     1      19.553   6.802  32.697  1.00  0.00     0.304 A 
HETATM    7  O1  UNK     1      19.019   7.666  33.650  1.00  0.00    -0.274 OA
HETATM    8  O5  UNK     1      20.663   6.302  32.840  1.00  0.00    -0.259 OA
HETATM    9  C7  UNK     1      17.745   8.247  33.496  1.00  0.00     0.089 A 
HETATM   10  C15 UNK     1      17.296   9.098  34.504  1.00  0.00     0.040 A 
HETATM   11  C3  UNK     1      16.973   7.970  32.373  1.00  0.00     0.001 A 
HETATM   12  C17 UNK     1      16.039   9.687  34.379  1.00  0.00     0.026 A 
HETATM   13  C16 UNK     1      15.250   9.420  33.258  1.00  0.00     0.035 A 
HETATM   14  C14 UNK     1      15.714   8.564  32.256  1.00  0.00     0.038 A 
HETATM   15 Cl1  UNK     1      13.697  10.151  33.110  1.00  0.00    -0.084 Cl
HETATM   16  C6  UNK     1      17.503   7.071  31.358  1.00  0.00     0.037 A 
ENDBRANCH   3   5
BRANCH   2  17
HETATM   17  C1  UNK     1      18.702   3.412  29.409  1.00  0.00     0.161 C 
BRANCH  17  18
HETATM   18  C2  UNK     1      18.985   2.087  30.057  1.00  0.00    -0.038 A 
HETATM   19  C5  UNK     1      18.743   1.919  31.415  1.00  0.00     0.048 A 
HETATM   20  C10 UNK     1      19.005   0.688  32.015  1.00  0.00     0.102 A 
HETATM   21  C11 UNK     1      19.507  -0.367  31.254  1.00  0.00     0.101 A 
HETATM   22  C12 UNK     1      19.747  -0.190  29.890  1.00  0.00     0.040 A 
HETATM   23  C8  UNK     1      19.484   1.041  29.290  1.00  0.00     0.012 A 
BRANCH  20  24
HETATM   24  O2  UNK     1      18.764   0.527  33.347  1.00  0.00    -0.353 OA
HETATM   25  C18 UNK     1      18.076   1.584  34.013  1.00  0.00     0.210 C 
ENDBRANCH  20  24
BRANCH  21  26
HETATM   26  O3  UNK     1      19.766  -1.574  31.829  1.00  0.00    -0.353 OA
HETATM   27  C19 UNK     1      20.591  -2.478  31.096  1.00  0.00     0.210 C 
ENDBRANCH  21  26
ENDBRANCH  17  18
ENDBRANCH   2  17
TORSDOF 5
ENDMDL
MODEL 5
REMARK VINA RESULT:      -8.5      6.670     10.084
REMARK  5 active torsions:
REMARK  status: ('A' for Active; 'I' for Inactive)
REMARK    1  A    between atoms: C10_17  and  O2_3 
REMARK    2  A    between atoms: C11_18  and  O3_4 
REMARK    3  A    between atoms: C1_8  and  N1_7 
REMARK       I    between atoms: C9_16  and  N1_7 
REMARK    4  A    between atoms: C1_8  and  C2_9 
REMARK    5  A    between atoms: C4_11  and  C9_16 
ROOT
HETATM    1  O4  UNK     1      25.844  -9.051  37.783  1.00  0.00    -0.267 OA
HETATM    2  N1  UNK     1      24.663  -7.523  39.089  1.00  0.00    -0.352 N 
HETATM    3  C9  UNK     1      25.768  -7.990  38.401  1.00  0.00     0.258 C 
HETATM    4  H3  UNK     1      24.687  -6.610  39.533  1.00  0.00     0.163 HD
ENDROOT
BRANCH   3   5
HETATM    5  C4  UNK     1      26.912  -7.072  38.466  1.00  0.00     0.108 A 
HETATM    6  C13 UNK     1      26.741  -5.621  38.702  1.00  0.00     0.304 A 
HETATM    7  O1  UNK     1      27.902  -4.854  38.743  1.00  0.00    -0.274 OA
HETATM    8  O5  UNK     1      25.635  -5.115  38.857  1.00  0.00    -0.259 OA
HETATM    9  C7  UNK     1      29.177  -5.426  38.567  1.00  0.00     0.089 A 
HETATM   10  C15 UNK     1      30.281  -4.577  38.623  1.00  0.00     0.040 A 
HETATM   11  C3  UNK     1      29.315  -6.792  38.344  1.00  0.00     0.001 A 
HETATM   12  C17 UNK     1      31.555  -5.113  38.452  1.00  0.00     0.026 A 
HETATM   13  C16 UNK     1      31.713  -6.483  38.227  1.00  0.00     0.035 A 
HETATM   14  C14 UNK     1      30.596  -7.322  38.173  1.00  0.00     0.038 A 
HETATM   15 Cl1  UNK     1      33.290  -7.140  38.016  1.00  0.00    -0.084 Cl
HETATM   16  C6  UNK     1      28.120  -7.621  38.298  1.00  0.00     0.037 A 
ENDBRANCH   3   5
BRANCH   2  17
HETATM   17  C1  UNK     1      23.416  -8.251  39.166  1.00  0.00     0.161 C 
BRANCH  17  18
HETATM   18  C2  UNK     1      22.488  -7.896  38.040  1.00  0.00    -0.038 A 
HETATM   19  C5  UNK     1      22.364  -8.754  36.955  1.00  0.00     0.048 A 
HETATM   20  C10 UNK     1      21.500  -8.425  35.910  1.00  0.00     0.102 A 
HETATM   21  C11 UNK     1      20.767  -7.240  35.959  1.00  0.00     0.101 A 
HETATM   22  C12 UNK     1      20.898  -6.383  37.053  1.00  0.00     0.040 A 
HETATM   23  C8  UNK     1      21.761  -6.713  38.097  1.00  0.00     0.012 A 
BRANCH  20  24
HETATM   24  O2  UNK     1      21.380  -9.271  34.848  1.00  0.00    -0.353 OA
HETATM   25  C18 UNK     1      21.843 -10.608  35.029  1.00  0.00     0.210 C 
ENDBRANCH  20  24
BRANCH  21  26
HETATM   26  O3  UNK     1      19.920  -6.908  34.945  1.00  0.00    -0.353 OA
HETATM   27  C19 UNK     1      18.525  -7.088  35.180  1.00  0.00     0.210 C 
ENDBRANCH  21  26
ENDBRANCH  17  18
ENDBRANCH   2  17
TORSDOF 5
ENDMDL
MODEL 6
REMARK VINA RESULT:      -8.4      4.185      9.344
REMARK  5 active torsions:
REMARK  status: ('A' for Active; 'I' for Inactive)
REMARK    1  A    between atoms: C10_17  and  O2_3 
REMARK    2  A    between atoms: C11_18  and  O3_4 
REMARK    3  A    between atoms: C1_8  and  N1_7 
REMARK       I    between atoms: C9_16  and  N1_7 
REMARK    4  A    between atoms: C1_8  and  C2_9 
REMARK    5  A    between atoms: C4_11  and  C9_16 
ROOT
HETATM    1  O4  UNK     1      21.970  -4.614  37.565  1.00  0.00    -0.267 OA
HETATM    2  N1  UNK     1      19.753  -4.206  36.971  1.00  0.00    -0.352 N 
HETATM    3  C9  UNK     1      20.848  -5.004  37.245  1.00  0.00     0.258 C 
HETATM    4  H3  UNK     1      18.854  -4.628  36.758  1.00  0.00     0.163 HD
ENDROOT
BRANCH   3   5
HETATM    5  C4  UNK     1      20.556  -6.437  37.121  1.00  0.00     0.108 A 
HETATM    6  C13 UNK     1      20.514  -7.119  35.808  1.00  0.00     0.304 A 
HETATM    7  O1  UNK     1      20.226  -8.481  35.820  1.00  0.00    -0.274 OA
HETATM    8  O5  UNK     1      20.722  -6.519  34.759  1.00  0.00    -0.259 OA
HETATM    9  C7  UNK     1      19.985  -9.180  37.020  1.00  0.00     0.089 A 
HETATM   10  C15 UNK     1      19.704 -10.541  36.931  1.00  0.00     0.040 A 
HETATM   11  C3  UNK     1      20.028  -8.519  38.243  1.00  0.00     0.001 A 
HETATM   12  C17 UNK     1      19.462 -11.259  38.101  1.00  0.00     0.026 A 
HETATM   13  C16 UNK     1      19.501 -10.612  39.338  1.00  0.00     0.035 A 
HETATM   14  C14 UNK     1      19.783  -9.245  39.411  1.00  0.00     0.038 A 
HETATM   15 Cl1  UNK     1      19.199 -11.503  40.780  1.00  0.00    -0.084 Cl
HETATM   16  C6  UNK     1      20.328  -7.095  38.264  1.00  0.00     0.037 A 
ENDBRANCH   3   5
BRANCH   2  17
HETATM   17  C1  UNK     1      19.795  -2.762  37.030  1.00  0.00     0.161 C 
BRANCH  17  18
HETATM   18  C2  UNK     1      19.455  -2.136  35.708  1.00  0.00    -0.038 A 
HETATM   19  C5  UNK     1      18.456  -1.172  35.639  1.00  0.00     0.048 A 
HETATM   20  C10 UNK     1      18.143  -0.591  34.411  1.00  0.00     0.102 A 
HETATM   21  C11 UNK     1      18.829  -0.976  33.261  1.00  0.00     0.101 A 
HETATM   22  C12 UNK     1      19.831  -1.945  33.338  1.00  0.00     0.040 A 
HETATM   23  C8  UNK     1      20.145  -2.526  34.566  1.00  0.00     0.012 A 
BRANCH  20  24
HETATM   24  O2  UNK     1      17.164   0.356  34.349  1.00  0.00    -0.353 OA
HETATM   25  C18 UNK     1      15.927   0.053  34.993  1.00  0.00     0.210 C 
ENDBRANCH  20  24
BRANCH  21  26
HETATM   26  O3  UNK     1      18.532  -0.415  32.056  1.00  0.00    -0.353 OA
HETATM   27  C19 UNK     1      19.627  -0.107  31.196  1.00  0.00     0.210 C 
ENDBRANCH  21  26
ENDBRANCH  17  18
ENDBRANCH   2  17
TORSDOF 5
ENDMDL
MODEL 7
REMARK VINA RESULT:      -8.4      6.182     11.607
REMARK  5 active torsions:
REMARK  status: ('A' for Active; 'I' for Inactive)
REMARK    1  A    between atoms: C10_17  and  O2_3 
REMARK    2  A    between atoms: C11_18  and  O3_4 
REMARK    3  A    between atoms: C1_8  and  N1_7 
REMARK       I    between atoms: C9_16  and  N1_7 
REMARK    4  A    between atoms: C1_8  and  C2_9 
REMARK    5  A    between atoms: C4_11  and  C9_16 
ROOT
HETATM    1  O4  UNK     1      17.076   2.988  30.824  1.00  0.00    -0.267 OA
HETATM    2  N1  UNK     1      19.309   3.620  31.050  1.00  0.00    -0.352 N 
HETATM    3  C9  UNK     1      18.218   2.790  31.236  1.00  0.00     0.258 C 
HETATM    4  H3  UNK     1      20.224   3.346  31.394  1.00  0.00     0.163 HD
ENDROOT
BRANCH   3   5
HETATM    5  C4  UNK     1      18.543   1.584  32.006  1.00  0.00     0.108 A 
HETATM    6  C13 UNK     1      19.246   0.431  31.400  1.00  0.00     0.304 A 
HETATM    7  O1  UNK     1      19.498  -0.656  32.234  1.00  0.00    -0.274 OA
HETATM    8  O5  UNK     1      19.592   0.428  30.224  1.00  0.00    -0.259 OA
HETATM    9  C7  UNK     1      19.105  -0.662  33.586  1.00  0.00     0.089 A 
HETATM   10  C15 UNK     1      19.400  -1.795  34.341  1.00  0.00     0.040 A 
HETATM   11  C3  UNK     1      18.444   0.433  34.136  1.00  0.00     0.001 A 
HETATM   12  C17 UNK     1      19.024  -1.830  35.682  1.00  0.00     0.026 A 
HETATM   13  C16 UNK     1      18.359  -0.741  36.251  1.00  0.00     0.035 A 
HETATM   14  C14 UNK     1      18.070   0.389  35.480  1.00  0.00     0.038 A 
HETATM   15 Cl1  UNK     1      17.896  -0.791  37.908  1.00  0.00    -0.084 Cl
HETATM   16  C6  UNK     1      18.167   1.584  33.291  1.00  0.00     0.037 A 
ENDBRANCH   3   5
BRANCH   2  17
HETATM   17  C1  UNK     1      19.236   4.866  30.320  1.00  0.00     0.161 C 
BRANCH  17  18
HETATM   18  C2  UNK     1      18.786   6.003  31.193  1.00  0.00    -0.038 A 
HETATM   19  C5  UNK     1      17.681   6.759  30.823  1.00  0.00     0.048 A 
HETATM   20  C10 UNK     1      17.263   7.814  31.634  1.00  0.00     0.102 A 
HETATM   21  C11 UNK     1      17.954   8.105  32.810  1.00  0.00     0.101 A 
HETATM   22  C12 UNK     1      19.063   7.341  33.174  1.00  0.00     0.040 A 
HETATM   23  C8  UNK     1      19.480   6.285  32.363  1.00  0.00     0.012 A 
BRANCH  20  24
HETATM   24  O2  UNK     1      16.177   8.551  31.268  1.00  0.00    -0.353 OA
HETATM   25  C18 UNK     1      14.998   8.404  32.057  1.00  0.00     0.210 C 
ENDBRANCH  20  24
BRANCH  21  26
HETATM   26  O3  UNK     1      17.555   9.132  33.611  1.00  0.00    -0.353 OA
HETATM   27  C19 UNK     1      18.523  10.137  33.906  1.00  0.00     0.210 C 
ENDBRANCH  21  26
ENDBRANCH  17  18
ENDBRANCH   2  17
TORSDOF 5
ENDMDL
MODEL 8
REMARK VINA RESULT:      -8.3     15.168     19.923
REMARK  5 active torsions:
REMARK  status: ('A' for Active; 'I' for Inactive)
REMARK    1  A    between atoms: C10_17  and  O2_3 
REMARK    2  A    between atoms: C11_18  and  O3_4 
REMARK    3  A    between atoms: C1_8  and  N1_7 
REMARK       I    between atoms: C9_16  and  N1_7 
REMARK    4  A    between atoms: C1_8  and  C2_9 
REMARK    5  A    between atoms: C4_11  and  C9_16 
ROOT
HETATM    1  O4  UNK     1      17.152  -2.629  16.084  1.00  0.00    -0.267 OA
HETATM    2  N1  UNK     1      19.054  -1.332  16.453  1.00  0.00    -0.352 N 
HETATM    3  C9  UNK     1      18.222  -2.151  15.712  1.00  0.00     0.258 C 
HETATM    4  H3  UNK     1      19.899  -0.953  16.038  1.00  0.00     0.163 HD
ENDROOT
BRANCH   3   5
HETATM    5  C4  UNK     1      18.741  -2.424  14.366  1.00  0.00     0.108 A 
HETATM    6  C13 UNK     1      19.356  -1.368  13.533  1.00  0.00     0.304 A 
HETATM    7  O1  UNK     1      19.812  -1.750  12.274  1.00  0.00    -0.274 OA
HETATM    8  O5  UNK     1      19.464  -0.211  13.926  1.00  0.00    -0.259 OA
HETATM    9  C7  UNK     1      19.694  -3.076  11.812  1.00  0.00     0.089 A 
HETATM   10  C15 UNK     1      20.178  -3.363  10.537  1.00  0.00     0.040 A 
HETATM   11  C3  UNK     1      19.111  -4.054  12.611  1.00  0.00     0.001 A 
HETATM   12  C17 UNK     1      20.075  -4.665  10.053  1.00  0.00     0.026 A 
HETATM   13  C16 UNK     1      19.492  -5.660  10.841  1.00  0.00     0.035 A 
HETATM   14  C14 UNK     1      19.011  -5.356  12.119  1.00  0.00     0.038 A 
HETATM   15 Cl1  UNK     1      19.368  -7.268  10.238  1.00  0.00    -0.084 Cl
HETATM   16  C6  UNK     1      18.626  -3.685  13.933  1.00  0.00     0.037 A 
ENDBRANCH   3   5
BRANCH   2  17
HETATM   17  C1  UNK     1      18.754  -0.922  17.807  1.00  0.00     0.161 C 
BRANCH  17  18
HETATM   18  C2  UNK     1      19.075   0.526  18.039  1.00  0.00    -0.038 A 
HETATM   19  C5  UNK     1      19.394   0.965  19.318  1.00  0.00     0.048 A 
HETATM   20  C10 UNK     1      19.693   2.310  19.532  1.00  0.00     0.102 A 
HETATM   21  C11 UNK     1      19.670   3.208  18.465  1.00  0.00     0.101 A 
HETATM   22  C12 UNK     1      19.348   2.760  17.184  1.00  0.00     0.040 A 
HETATM   23  C8  UNK     1      19.050   1.414  16.970  1.00  0.00     0.012 A 
BRANCH  20  24
HETATM   24  O2  UNK     1      20.009   2.735  20.788  1.00  0.00    -0.353 OA
HETATM   25  C18 UNK     1      19.656   1.875  21.870  1.00  0.00     0.210 C 
ENDBRANCH  20  24
BRANCH  21  26
HETATM   26  O3  UNK     1      19.960   4.524  18.662  1.00  0.00    -0.353 OA
HETATM   27  C19 UNK     1      21.255   4.969  18.263  1.00  0.00     0.210 C 
ENDBRANCH  21  26
ENDBRANCH  17  18
ENDBRANCH   2  17
TORSDOF 5
ENDMDL
MODEL 9
REMARK VINA RESULT:      -8.3      9.164     12.722
REMARK  5 active torsions:
REMARK  status: ('A' for Active; 'I' for Inactive)
REMARK    1  A    between atoms: C10_17  and  O2_3 
REMARK    2  A    between atoms: C11_18  and  O3_4 
REMARK    3  A    between atoms: C1_8  and  N1_7 
REMARK       I    between atoms: C9_16  and  N1_7 
REMARK    4  A    between atoms: C1_8  and  C2_9 
REMARK    5  A    between atoms: C4_11  and  C9_16 
ROOT
HETATM    1  O4  UNK     1      16.194   8.234  30.884  1.00  0.00    -0.267 OA
HETATM    2  N1  UNK     1      17.646   7.366  32.487  1.00  0.00    -0.352 N 
HETATM    3  C9  UNK     1      16.600   8.153  32.041  1.00  0.00     0.258 C 
HETATM    4  H3  UNK     1      17.877   7.336  33.475  1.00  0.00     0.163 HD
ENDROOT
BRANCH   3   5
HETATM    5  C4  UNK     1      15.972   8.930  33.117  1.00  0.00     0.108 A 
HETATM    6  C13 UNK     1      16.452   8.866  34.515  1.00  0.00     0.304 A 
HETATM    7  O1  UNK     1      15.774   9.649  35.445  1.00  0.00    -0.274 OA
HETATM    8  O5  UNK     1      17.400   8.161  34.844  1.00  0.00    -0.259 OA
HETATM    9  C7  UNK     1      14.684  10.463  35.078  1.00  0.00     0.089 A 
HETATM   10  C15 UNK     1      14.068  11.211  36.080  1.00  0.00     0.040 A 
HETATM   11  C3  UNK     1      14.248  10.507  33.758  1.00  0.00     0.001 A 
HETATM   12  C17 UNK     1      12.987  12.025  35.747  1.00  0.00     0.026 A 
HETATM   13  C16 UNK     1      12.535  12.081  34.427  1.00  0.00     0.035 A 
HETATM   14  C14 UNK     1      13.163  11.325  33.433  1.00  0.00     0.038 A 
HETATM   15 Cl1  UNK     1      11.199  13.088  34.021  1.00  0.00    -0.084 Cl
HETATM   16  C6  UNK     1      14.937   9.700  32.762  1.00  0.00     0.037 A 
ENDBRANCH   3   5
BRANCH   2  17
HETATM   17  C1  UNK     1      18.417   6.511  31.613  1.00  0.00     0.161 C 
BRANCH  17  18
HETATM   18  C2  UNK     1      18.350   5.071  32.033  1.00  0.00    -0.038 A 
HETATM   19  C5  UNK     1      18.367   4.070  31.070  1.00  0.00     0.048 A 
HETATM   20  C10 UNK     1      18.307   2.733  31.462  1.00  0.00     0.102 A 
HETATM   21  C11 UNK     1      18.228   2.406  32.815  1.00  0.00     0.101 A 
HETATM   22  C12 UNK     1      18.211   3.417  33.777  1.00  0.00     0.040 A 
HETATM   23  C8  UNK     1      18.273   4.754  33.385  1.00  0.00     0.012 A 
BRANCH  20  24
HETATM   24  O2  UNK     1      18.326   1.755  30.513  1.00  0.00    -0.353 OA
HETATM   25  C18 UNK     1      17.952   2.130  29.188  1.00  0.00     0.210 C 
ENDBRANCH  20  24
BRANCH  21  26
HETATM   26  O3  UNK     1      18.169   1.104  33.210  1.00  0.00    -0.353 OA
HETATM   27  C19 UNK     1      18.042   0.855  34.608  1.00  0.00     0.210 C 
ENDBRANCH  21  26
ENDBRANCH  17  18
ENDBRANCH   2  17
TORSDOF 5
ENDMDL
MODEL 10
REMARK VINA RESULT:      -8.3      4.144      8.880
REMARK  5 active torsions:
REMARK  status: ('A' for Active; 'I' for Inactive)
REMARK    1  A    between atoms: C10_17  and  O2_3 
REMARK    2  A    between atoms: C11_18  and  O3_4 
REMARK    3  A    between atoms: C1_8  and  N1_7 
REMARK       I    between atoms: C9_16  and  N1_7 
REMARK    4  A    between atoms: C1_8  and  C2_9 
REMARK    5  A    between atoms: C4_11  and  C9_16 
ROOT
HETATM    1  O4  UNK     1      20.208  -2.633  37.897  1.00  0.00    -0.267 OA
HETATM    2  N1  UNK     1      18.201  -2.759  36.719  1.00  0.00    -0.352 N 
HETATM    3  C9  UNK     1      19.449  -3.204  37.116  1.00  0.00     0.258 C 
HETATM    4  H3  UNK     1      17.629  -3.327  36.100  1.00  0.00     0.163 HD
ENDROOT
BRANCH   3   5
HETATM    5  C4  UNK     1      19.822  -4.483  36.501  1.00  0.00     0.108 A 
HETATM    6  C13 UNK     1      20.252  -4.579  35.088  1.00  0.00     0.304 A 
HETATM    7  O1  UNK     1      20.580  -5.848  34.619  1.00  0.00    -0.274 OA
HETATM    8  O5  UNK     1      20.319  -3.593  34.362  1.00  0.00    -0.259 OA
HETATM    9  C7  UNK     1      20.507  -6.987  35.445  1.00  0.00     0.089 A 
HETATM   10  C15 UNK     1      20.854  -8.215  34.886  1.00  0.00     0.040 A 
HETATM   11  C3  UNK     1      20.098  -6.875  36.770  1.00  0.00     0.001 A 
HETATM   12  C17 UNK     1      20.791  -9.360  35.678  1.00  0.00     0.026 A 
HETATM   13  C16 UNK     1      20.383  -9.266  37.010  1.00  0.00     0.035 A 
HETATM   14  C14 UNK     1      20.037  -8.027  37.556  1.00  0.00     0.038 A 
HETATM   15 Cl1  UNK     1      20.306 -10.684  37.984  1.00  0.00    -0.084 Cl
HETATM   16  C6  UNK     1      19.749  -5.561  37.290  1.00  0.00     0.037 A 
ENDBRANCH   3   5
BRANCH   2  17
HETATM   17  C1  UNK     1      17.616  -1.525  37.193  1.00  0.00     0.161 C 
BRANCH  17  18
HETATM   18  C2  UNK     1      17.743  -0.419  36.184  1.00  0.00    -0.038 A 
HETATM   19  C5  UNK     1      18.084  -0.721  34.872  1.00  0.00     0.048 A 
HETATM   20  C10 UNK     1      18.201   0.307  33.936  1.00  0.00     0.102 A 
HETATM   21  C11 UNK     1      17.976   1.628  34.319  1.00  0.00     0.101 A 
HETATM   22  C12 UNK     1      17.635   1.923  35.640  1.00  0.00     0.040 A 
HETATM   23  C8  UNK     1      17.517   0.895  36.575  1.00  0.00     0.012 A 
BRANCH  20  24
HETATM   24  O2  UNK     1      18.533   0.006  32.649  1.00  0.00    -0.353 OA
HETATM   25  C18 UNK     1      18.779  -1.366  32.347  1.00  0.00     0.210 C 
ENDBRANCH  20  24
BRANCH  21  26
HETATM   26  O3  UNK     1      18.087   2.640  33.414  1.00  0.00    -0.353 OA
HETATM   27  C19 UNK     1      18.308   3.951  33.931  1.00  0.00     0.210 C 
ENDBRANCH  21  26
ENDBRANCH  17  18
ENDBRANCH   2  17
TORSDOF 5
ENDMDL
