MODEL 1
REMARK VINA RESULT:      -8.6      0.000      0.000
REMARK  2 active torsions:
REMARK  status: ('A' for Active; 'I' for Inactive)
REMARK    1  A    between atoms: C8_15  and  N1_6 
REMARK    2  A    between atoms: C1_8  and  C4_11 
ROOT
HETATM    1  O1  UNK     1      13.063   9.557   9.783  1.00  0.00    -0.291 OA
HETATM    2  O2  UNK     1      14.337   5.572   9.829  1.00  0.00    -0.274 OA
HETATM    3  O3  UNK     1      12.168   4.874   9.785  1.00  0.00    -0.259 OA
HETATM    4  N2  UNK     1       8.262   9.700  10.141  1.00  0.00    -0.191 NA
HETATM    5  C1  UNK     1      11.046   7.520   9.622  1.00  0.00     0.113 C 
HETATM    6  C2  UNK     1      12.530   7.223   9.721  1.00  0.00     0.066 A 
HETATM    7  C3  UNK     1      13.424   8.221   9.782  1.00  0.00     0.104 A 
HETATM    8  C5  UNK     1      10.738   8.999   9.841  1.00  0.00     0.086 C 
HETATM    9  C6  UNK     1      14.858   7.949   9.848  1.00  0.00     0.033 A 
HETATM   10  C7  UNK     1      12.968   5.804   9.781  1.00  0.00     0.298 A 
HETATM   11  C8  UNK     1      11.723   9.923   9.902  1.00  0.00     0.159 C 
HETATM   12  C9  UNK     1      15.276   6.621   9.865  1.00  0.00     0.092 A 
HETATM   13  C12 UNK     1      15.836   8.949   9.892  1.00  0.00     0.017 A 
HETATM   14  C13 UNK     1      16.624   6.269   9.921  1.00  0.00     0.038 A 
HETATM   15  C16 UNK     1      17.193   8.612   9.949  1.00  0.00     0.001 A 
HETATM   16  C17 UNK     1       9.370   9.386  10.007  1.00  0.00     0.100 C 
HETATM   17  C18 UNK     1      17.585   7.274   9.963  1.00  0.00     0.003 A 
ENDROOT
BRANCH   5  18
HETATM   18  C4  UNK     1      10.508   7.074   8.294  1.00  0.00     0.016 A 
HETATM   19  C10 UNK     1       9.320   6.355   8.200  1.00  0.00     0.044 A 
HETATM   20 Cl1  UNK     1       8.401   5.941   9.601  1.00  0.00    -0.084 Cl
HETATM   21  C14 UNK     1       8.848   5.956   6.949  1.00  0.00     0.024 A 
HETATM   22  C19 UNK     1       9.568   6.277   5.798  1.00  0.00     0.005 A 
HETATM   23  C15 UNK     1      10.758   6.997   5.898  1.00  0.00     0.043 A 
HETATM   24  C11 UNK     1      11.230   7.395   7.148  1.00  0.00     0.125 A 
HETATM   25  F1  UNK     1      12.374   8.088   7.232  1.00  0.00    -0.205 F 
ENDBRANCH   5  18
BRANCH  11  26
HETATM   26  N1  UNK     1      11.535  11.265  10.080  1.00  0.00    -0.379 N 
HETATM   27  H7  UNK     1      11.578  11.644  11.018  1.00  0.00     0.158 HD
HETATM   28  H8  UNK     1      11.358  11.876   9.293  1.00  0.00     0.158 HD
ENDBRANCH  11  26
TORSDOF 2
ENDMDL
MODEL 2
REMARK VINA RESULT:      -8.3     35.527     36.848
REMARK  2 active torsions:
REMARK  status: ('A' for Active; 'I' for Inactive)
REMARK    1  A    between atoms: C8_15  and  N1_6 
REMARK    2  A    between atoms: C1_8  and  C4_11 
ROOT
HETATM    1  O1  UNK     1      29.218  -5.888  38.941  1.00  0.00    -0.291 OA
HETATM    2  O2  UNK     1      28.914  -9.122  36.305  1.00  0.00    -0.274 OA
HETATM    3  O3  UNK     1      30.210  -8.016  34.792  1.00  0.00    -0.259 OA
HETATM    4  N2  UNK     1      31.526  -2.265  36.762  1.00  0.00    -0.191 NA
HETATM    5  C1  UNK     1      30.673  -5.724  36.472  1.00  0.00     0.113 C 
HETATM    6  C2  UNK     1      29.813  -6.911  36.859  1.00  0.00     0.066 A 
HETATM    7  C3  UNK     1      29.165  -6.931  38.035  1.00  0.00     0.104 A 
HETATM    8  C5  UNK     1      30.499  -4.548  37.429  1.00  0.00     0.086 C 
HETATM    9  C6  UNK     1      28.357  -8.082  38.433  1.00  0.00     0.033 A 
HETATM   10  C7  UNK     1      29.677  -8.035  35.897  1.00  0.00     0.298 A 
HETATM   11  C8  UNK     1      29.811  -4.677  38.586  1.00  0.00     0.159 C 
HETATM   12  C9  UNK     1      28.259  -9.154  37.551  1.00  0.00     0.092 A 
HETATM   13  C12 UNK     1      27.679  -8.167  39.654  1.00  0.00     0.017 A 
HETATM   14  C13 UNK     1      27.514 -10.295  37.851  1.00  0.00     0.038 A 
HETATM   15  C16 UNK     1      26.928  -9.304  39.970  1.00  0.00     0.001 A 
HETATM   16  C17 UNK     1      31.067  -3.287  37.060  1.00  0.00     0.100 C 
HETATM   17  C18 UNK     1      26.846 -10.366  39.070  1.00  0.00     0.003 A 
ENDROOT
BRANCH   5  18
HETATM   18  C4  UNK     1      32.118  -6.122  36.402  1.00  0.00     0.016 A 
HETATM   19  C10 UNK     1      32.858  -5.958  35.235  1.00  0.00     0.044 A 
HETATM   20 Cl1  UNK     1      32.157  -5.287  33.808  1.00  0.00    -0.084 Cl
HETATM   21  C14 UNK     1      34.199  -6.339  35.206  1.00  0.00     0.024 A 
HETATM   22  C19 UNK     1      34.795  -6.883  36.344  1.00  0.00     0.005 A 
HETATM   23  C15 UNK     1      34.049  -7.045  37.511  1.00  0.00     0.043 A 
HETATM   24  C11 UNK     1      32.708  -6.665  37.540  1.00  0.00     0.125 A 
HETATM   25  F1  UNK     1      32.001  -6.824  38.668  1.00  0.00    -0.205 F 
ENDBRANCH   5  18
BRANCH  11  26
HETATM   26  N1  UNK     1      29.620  -3.682  39.505  1.00  0.00    -0.379 N 
HETATM   27  H7  UNK     1      28.702  -3.265  39.590  1.00  0.00     0.158 HD
HETATM   28  H8  UNK     1      30.379  -3.366  40.096  1.00  0.00     0.158 HD
ENDBRANCH  11  26
TORSDOF 2
ENDMDL
MODEL 3
REMARK VINA RESULT:      -8.1     34.564     36.173
REMARK  2 active torsions:
REMARK  status: ('A' for Active; 'I' for Inactive)
REMARK    1  A    between atoms: C8_15  and  N1_6 
REMARK    2  A    between atoms: C1_8  and  C4_11 
ROOT
HETATM    1  O1  UNK     1      25.627  -9.304  38.645  1.00  0.00    -0.291 OA
HETATM    2  O2  UNK     1      24.944  -5.184  38.895  1.00  0.00    -0.274 OA
HETATM    3  O3  UNK     1      27.190  -4.804  38.835  1.00  0.00    -0.259 OA
HETATM    4  N2  UNK     1      30.362 -10.153  38.891  1.00  0.00    -0.191 NA
HETATM    5  C1  UNK     1      27.915  -7.573  38.530  1.00  0.00     0.113 C 
HETATM    6  C2  UNK     1      26.492  -7.071  38.675  1.00  0.00     0.066 A 
HETATM    7  C3  UNK     1      25.463  -7.932  38.711  1.00  0.00     0.104 A 
HETATM    8  C5  UNK     1      28.009  -9.089  38.677  1.00  0.00     0.086 C 
HETATM    9  C6  UNK     1      24.085  -7.459  38.820  1.00  0.00     0.033 A 
HETATM   10  C7  UNK     1      26.264  -5.608  38.807  1.00  0.00     0.298 A 
HETATM   11  C8  UNK     1      26.902  -9.864  38.718  1.00  0.00     0.159 C 
HETATM   12  C9  UNK     1      23.864  -6.087  38.905  1.00  0.00     0.092 A 
HETATM   13  C12 UNK     1      22.973  -8.309  38.841  1.00  0.00     0.017 A 
HETATM   14  C13 UNK     1      22.582  -5.548  39.006  1.00  0.00     0.038 A 
HETATM   15  C16 UNK     1      21.681  -7.784  38.942  1.00  0.00     0.001 A 
HETATM   16  C17 UNK     1      29.310  -9.676  38.795  1.00  0.00     0.100 C 
HETATM   17  C18 UNK     1      21.486  -6.405  39.024  1.00  0.00     0.003 A 
ENDROOT
BRANCH   5  18
HETATM   18  C4  UNK     1      28.492  -7.147  37.212  1.00  0.00     0.016 A 
HETATM   19  C10 UNK     1      29.627  -6.344  37.145  1.00  0.00     0.044 A 
HETATM   20 Cl1  UNK     1      30.433  -5.799  38.570  1.00  0.00    -0.084 Cl
HETATM   21  C14 UNK     1      30.136  -5.967  35.903  1.00  0.00     0.024 A 
HETATM   22  C19 UNK     1      29.508  -6.393  34.733  1.00  0.00     0.005 A 
HETATM   23  C15 UNK     1      28.371  -7.197  34.805  1.00  0.00     0.043 A 
HETATM   24  C11 UNK     1      27.861  -7.574  36.047  1.00  0.00     0.125 A 
HETATM   25  F1  UNK     1      26.769  -8.348  36.105  1.00  0.00    -0.205 F 
ENDBRANCH   5  18
BRANCH  11  26
HETATM   26  N1  UNK     1      26.897 -11.227  38.833  1.00  0.00    -0.379 N 
HETATM   27  H7  UNK     1      27.749 -11.737  38.636  1.00  0.00     0.158 HD
HETATM   28  H8  UNK     1      26.060 -11.723  39.113  1.00  0.00     0.158 HD
ENDBRANCH  11  26
TORSDOF 2
ENDMDL
MODEL 4
REMARK VINA RESULT:      -8.0     32.545     35.087
REMARK  2 active torsions:
REMARK  status: ('A' for Active; 'I' for Inactive)
REMARK    1  A    between atoms: C8_15  and  N1_6 
REMARK    2  A    between atoms: C1_8  and  C4_11 
ROOT
HETATM    1  O1  UNK     1      30.067  -5.764  34.249  1.00  0.00    -0.291 OA
HETATM    2  O2  UNK     1      28.663  -9.469  32.906  1.00  0.00    -0.274 OA
HETATM    3  O3  UNK     1      29.469 -10.462  34.793  1.00  0.00    -0.259 OA
HETATM    4  N2  UNK     1      32.609  -6.391  38.292  1.00  0.00    -0.191 NA
HETATM    5  C1  UNK     1      30.414  -8.020  35.990  1.00  0.00     0.113 C 
HETATM    6  C2  UNK     1      29.755  -8.108  34.627  1.00  0.00     0.066 A 
HETATM    7  C3  UNK     1      29.613  -7.013  33.864  1.00  0.00     0.104 A 
HETATM    8  C5  UNK     1      31.063  -6.660  36.230  1.00  0.00     0.086 C 
HETATM    9  C6  UNK     1      28.953  -7.078  32.562  1.00  0.00     0.033 A 
HETATM   10  C7  UNK     1      29.299  -9.436  34.142  1.00  0.00     0.298 A 
HETATM   11  C8  UNK     1      30.863  -5.624  35.385  1.00  0.00     0.159 C 
HETATM   12  C9  UNK     1      28.489  -8.314  32.120  1.00  0.00     0.092 A 
HETATM   13  C12 UNK     1      28.759  -5.965  31.735  1.00  0.00     0.017 A 
HETATM   14  C13 UNK     1      27.843  -8.468  30.894  1.00  0.00     0.038 A 
HETATM   15  C16 UNK     1      28.113  -6.103  30.502  1.00  0.00     0.001 A 
HETATM   16  C17 UNK     1      31.917  -6.512  37.369  1.00  0.00     0.100 C 
HETATM   17  C18 UNK     1      27.656  -7.353  30.083  1.00  0.00     0.003 A 
ENDROOT
BRANCH   5  18
HETATM   18  C4  UNK     1      29.419  -8.315  37.074  1.00  0.00     0.016 A 
HETATM   19  C10 UNK     1      29.663  -9.295  38.031  1.00  0.00     0.044 A 
HETATM   20 Cl1  UNK     1      31.119 -10.223  38.025  1.00  0.00    -0.084 Cl
HETATM   21  C14 UNK     1      28.717  -9.543  39.026  1.00  0.00     0.024 A 
HETATM   22  C19 UNK     1      27.531  -8.809  39.058  1.00  0.00     0.005 A 
HETATM   23  C15 UNK     1      27.292  -7.827  38.097  1.00  0.00     0.043 A 
HETATM   24  C11 UNK     1      28.238  -7.580  37.102  1.00  0.00     0.125 A 
HETATM   25  F1  UNK     1      27.998  -6.633  36.185  1.00  0.00    -0.205 F 
ENDBRANCH   5  18
BRANCH  11  26
HETATM   26  N1  UNK     1      31.394  -4.372  35.533  1.00  0.00    -0.379 N 
HETATM   27  H7  UNK     1      32.010  -4.192  36.316  1.00  0.00     0.158 HD
HETATM   28  H8  UNK     1      31.181  -3.635  34.873  1.00  0.00     0.158 HD
ENDBRANCH  11  26
TORSDOF 2
ENDMDL
MODEL 5
REMARK VINA RESULT:      -8.0     33.093     35.738
REMARK  2 active torsions:
REMARK  status: ('A' for Active; 'I' for Inactive)
REMARK    1  A    between atoms: C8_15  and  N1_6 
REMARK    2  A    between atoms: C1_8  and  C4_11 
ROOT
HETATM    1  O1  UNK     1      27.970  -6.970  35.315  1.00  0.00    -0.291 OA
HETATM    2  O2  UNK     1      30.356  -9.390  37.755  1.00  0.00    -0.274 OA
HETATM    3  O3  UNK     1      32.118  -9.086  36.340  1.00  0.00    -0.259 OA
HETATM    4  N2  UNK     1      30.418  -5.814  31.332  1.00  0.00    -0.191 NA
HETATM    5  C1  UNK     1      30.724  -7.292  34.571  1.00  0.00     0.113 C 
HETATM    6  C2  UNK     1      30.103  -7.948  35.790  1.00  0.00     0.066 A 
HETATM    7  C3  UNK     1      28.811  -7.749  36.090  1.00  0.00     0.104 A 
HETATM    8  C5  UNK     1      29.678  -6.634  33.675  1.00  0.00     0.086 C 
HETATM    9  C6  UNK     1      28.208  -8.351  37.277  1.00  0.00     0.033 A 
HETATM   10  C7  UNK     1      30.950  -8.840  36.624  1.00  0.00     0.298 A 
HETATM   11  C8  UNK     1      28.393  -6.498  34.074  1.00  0.00     0.159 C 
HETATM   12  C9  UNK     1      29.007  -9.156  38.084  1.00  0.00     0.092 A 
HETATM   13  C12 UNK     1      26.873  -8.161  37.650  1.00  0.00     0.017 A 
HETATM   14  C13 UNK     1      28.518  -9.766  39.239  1.00  0.00     0.038 A 
HETATM   15  C16 UNK     1      26.367  -8.766  38.805  1.00  0.00     0.001 A 
HETATM   16  C17 UNK     1      30.088  -6.181  32.380  1.00  0.00     0.100 C 
HETATM   17  C18 UNK     1      27.188  -9.567  39.598  1.00  0.00     0.003 A 
ENDROOT
BRANCH   5  18
HETATM   18  C4  UNK     1      31.755  -6.284  34.985  1.00  0.00     0.016 A 
HETATM   19  C10 UNK     1      33.056  -6.338  34.494  1.00  0.00     0.044 A 
HETATM   20 Cl1  UNK     1      33.554  -7.563  33.385  1.00  0.00    -0.084 Cl
HETATM   21  C14 UNK     1      33.990  -5.384  34.900  1.00  0.00     0.024 A 
HETATM   22  C19 UNK     1      33.618  -4.381  35.795  1.00  0.00     0.005 A 
HETATM   23  C15 UNK     1      32.313  -4.331  36.283  1.00  0.00     0.043 A 
HETATM   24  C11 UNK     1      31.380  -5.285  35.878  1.00  0.00     0.125 A 
HETATM   25  F1  UNK     1      30.128  -5.226  36.353  1.00  0.00    -0.205 F 
ENDBRANCH   5  18
BRANCH  11  26
HETATM   26  N1  UNK     1      27.399  -5.910  33.342  1.00  0.00    -0.379 N 
HETATM   27  H7  UNK     1      27.360  -4.899  33.294  1.00  0.00     0.158 HD
HETATM   28  H8  UNK     1      26.713  -6.469  32.850  1.00  0.00     0.158 HD
ENDBRANCH  11  26
TORSDOF 2
ENDMDL
MODEL 6
REMARK VINA RESULT:      -7.8     32.257     34.969
REMARK  2 active torsions:
REMARK  status: ('A' for Active; 'I' for Inactive)
REMARK    1  A    between atoms: C8_15  and  N1_6 
REMARK    2  A    between atoms: C1_8  and  C4_11 
ROOT
HETATM    1  O1  UNK     1      28.279  -7.861  34.756  1.00  0.00    -0.291 OA
HETATM    2  O2  UNK     1      30.757  -5.864  32.041  1.00  0.00    -0.274 OA
HETATM    3  O3  UNK     1      31.652  -4.646  33.747  1.00  0.00    -0.259 OA
HETATM    4  N2  UNK     1      28.779  -5.888  39.122  1.00  0.00    -0.191 NA
HETATM    5  C1  UNK     1      30.149  -5.960  35.821  1.00  0.00     0.113 C 
HETATM    6  C2  UNK     1      30.020  -6.270  34.342  1.00  0.00     0.066 A 
HETATM    7  C3  UNK     1      29.133  -7.178  33.908  1.00  0.00     0.104 A 
HETATM    8  C5  UNK     1      29.033  -6.600  36.643  1.00  0.00     0.086 C 
HETATM    9  C6  UNK     1      29.019  -7.506  32.489  1.00  0.00     0.033 A 
HETATM   10  C7  UNK     1      30.875  -5.523  33.383  1.00  0.00     0.298 A 
HETATM   11  C8  UNK     1      28.181  -7.497  36.098  1.00  0.00     0.159 C 
HETATM   12  C9  UNK     1      29.845  -6.837  31.591  1.00  0.00     0.092 A 
HETATM   13  C12 UNK     1      28.128  -8.459  31.983  1.00  0.00     0.017 A 
HETATM   14  C13 UNK     1      29.809  -7.092  30.219  1.00  0.00     0.038 A 
HETATM   15  C16 UNK     1      28.079  -8.726  30.610  1.00  0.00     0.001 A 
HETATM   16  C17 UNK     1      28.893  -6.206  38.013  1.00  0.00     0.100 C 
HETATM   17  C18 UNK     1      28.918  -8.042  29.731  1.00  0.00     0.003 A 
ENDROOT
BRANCH   5  18
HETATM   18  C4  UNK     1      31.487  -6.404  36.336  1.00  0.00     0.016 A 
HETATM   19  C10 UNK     1      32.386  -5.496  36.887  1.00  0.00     0.044 A 
HETATM   20 Cl1  UNK     1      32.013  -3.815  37.009  1.00  0.00    -0.084 Cl
HETATM   21  C14 UNK     1      33.622  -5.942  37.356  1.00  0.00     0.024 A 
HETATM   22  C19 UNK     1      33.952  -7.294  37.273  1.00  0.00     0.005 A 
HETATM   23  C15 UNK     1      33.047  -8.200  36.721  1.00  0.00     0.043 A 
HETATM   24  C11 UNK     1      31.812  -7.754  36.251  1.00  0.00     0.125 A 
HETATM   25  F1  UNK     1      30.950  -8.634  35.723  1.00  0.00    -0.205 F 
ENDBRANCH   5  18
BRANCH  11  26
HETATM   26  N1  UNK     1      27.166  -8.126  36.765  1.00  0.00    -0.379 N 
HETATM   27  H7  UNK     1      26.289  -7.637  36.894  1.00  0.00     0.158 HD
HETATM   28  H8  UNK     1      27.282  -9.066  37.123  1.00  0.00     0.158 HD
ENDBRANCH  11  26
TORSDOF 2
ENDMDL
MODEL 7
REMARK VINA RESULT:      -7.8     31.955     34.448
REMARK  2 active torsions:
REMARK  status: ('A' for Active; 'I' for Inactive)
REMARK    1  A    between atoms: C8_15  and  N1_6 
REMARK    2  A    between atoms: C1_8  and  C4_11 
ROOT
HETATM    1  O1  UNK     1      28.527  -7.927  36.149  1.00  0.00    -0.291 OA
HETATM    2  O2  UNK     1      31.345  -4.835  36.081  1.00  0.00    -0.274 OA
HETATM    3  O3  UNK     1      32.229  -5.678  34.156  1.00  0.00    -0.259 OA
HETATM    4  N2  UNK     1      29.493 -11.043  32.606  1.00  0.00    -0.191 NA
HETATM    5  C1  UNK     1      30.322  -7.821  33.911  1.00  0.00     0.113 C 
HETATM    6  C2  UNK     1      30.347  -6.823  35.052  1.00  0.00     0.066 A 
HETATM    7  C3  UNK     1      29.473  -6.920  36.065  1.00  0.00     0.104 A 
HETATM    8  C5  UNK     1      29.397  -9.001  34.197  1.00  0.00     0.086 C 
HETATM    9  C6  UNK     1      29.467  -5.948  37.156  1.00  0.00     0.033 A 
HETATM   10  C7  UNK     1      31.381  -5.755  35.039  1.00  0.00     0.298 A 
HETATM   11  C8  UNK     1      28.562  -9.000  35.260  1.00  0.00     0.159 C 
HETATM   12  C9  UNK     1      30.408  -4.922  37.128  1.00  0.00     0.092 A 
HETATM   13  C12 UNK     1      28.565  -5.988  38.225  1.00  0.00     0.017 A 
HETATM   14  C13 UNK     1      30.471  -3.947  38.124  1.00  0.00     0.038 A 
HETATM   15  C16 UNK     1      28.616  -5.018  39.232  1.00  0.00     0.001 A 
HETATM   16  C17 UNK     1      29.450 -10.129  33.317  1.00  0.00     0.100 C 
HETATM   17  C18 UNK     1      29.567  -3.999  39.180  1.00  0.00     0.003 A 
ENDROOT
BRANCH   5  18
HETATM   18  C4  UNK     1      29.919  -7.148  32.632  1.00  0.00     0.016 A 
HETATM   19  C10 UNK     1      30.748  -7.163  31.514  1.00  0.00     0.044 A 
HETATM   20 Cl1  UNK     1      32.280  -7.957  31.537  1.00  0.00    -0.084 Cl
HETATM   21  C14 UNK     1      30.341  -6.527  30.342  1.00  0.00     0.024 A 
HETATM   22  C19 UNK     1      29.107  -5.878  30.292  1.00  0.00     0.005 A 
HETATM   23  C15 UNK     1      28.281  -5.866  31.415  1.00  0.00     0.043 A 
HETATM   24  C11 UNK     1      28.687  -6.501  32.588  1.00  0.00     0.125 A 
HETATM   25  F1  UNK     1      27.884  -6.484  33.660  1.00  0.00    -0.205 F 
ENDBRANCH   5  18
BRANCH  11  26
HETATM   26  N1  UNK     1      27.692 -10.006  35.580  1.00  0.00    -0.379 N 
HETATM   27  H7  UNK     1      26.703  -9.797  35.636  1.00  0.00     0.158 HD
HETATM   28  H8  UNK     1      28.024 -10.946  35.756  1.00  0.00     0.158 HD
ENDBRANCH  11  26
TORSDOF 2
ENDMDL
MODEL 8
REMARK VINA RESULT:      -7.8     33.800     35.750
REMARK  2 active torsions:
REMARK  status: ('A' for Active; 'I' for Inactive)
REMARK    1  A    between atoms: C8_15  and  N1_6 
REMARK    2  A    between atoms: C1_8  and  C4_11 
ROOT
HETATM    1  O1  UNK     1      30.665  -6.629  38.090  1.00  0.00    -0.291 OA
HETATM    2  O2  UNK     1      27.217  -7.517  35.891  1.00  0.00    -0.274 OA
HETATM    3  O3  UNK     1      28.099  -6.460  34.074  1.00  0.00    -0.259 OA
HETATM    4  N2  UNK     1      33.543  -3.795  35.467  1.00  0.00    -0.191 NA
HETATM    5  C1  UNK     1      30.615  -5.839  35.330  1.00  0.00     0.113 C 
HETATM    6  C2  UNK     1      29.467  -6.553  36.018  1.00  0.00     0.066 A 
HETATM    7  C3  UNK     1      29.556  -6.906  37.309  1.00  0.00     0.104 A 
HETATM    8  C5  UNK     1      31.691  -5.395  36.317  1.00  0.00     0.086 C 
HETATM    9  C6  UNK     1      28.470  -7.621  37.975  1.00  0.00     0.033 A 
HETATM   10  C7  UNK     1      28.230  -6.824  35.239  1.00  0.00     0.298 A 
HETATM   11  C8  UNK     1      31.676  -5.801  37.607  1.00  0.00     0.159 C 
HETATM   12  C9  UNK     1      27.325  -7.912  37.239  1.00  0.00     0.092 A 
HETATM   13  C12 UNK     1      28.518  -8.032  39.312  1.00  0.00     0.017 A 
HETATM   14  C13 UNK     1      26.242  -8.595  37.791  1.00  0.00     0.038 A 
HETATM   15  C16 UNK     1      27.439  -8.718  39.881  1.00  0.00     0.001 A 
HETATM   16  C17 UNK     1      32.714  -4.511  35.847  1.00  0.00     0.100 C 
HETATM   17  C18 UNK     1      26.304  -8.999  39.121  1.00  0.00     0.003 A 
ENDROOT
BRANCH   5  18
HETATM   18  C4  UNK     1      31.217  -6.712  34.269  1.00  0.00     0.016 A 
HETATM   19  C10 UNK     1      31.216  -6.329  32.931  1.00  0.00     0.044 A 
HETATM   20 Cl1  UNK     1      30.525  -4.831  32.421  1.00  0.00    -0.084 Cl
HETATM   21  C14 UNK     1      31.784  -7.165  31.970  1.00  0.00     0.024 A 
HETATM   22  C19 UNK     1      32.352  -8.381  32.352  1.00  0.00     0.005 A 
HETATM   23  C15 UNK     1      32.350  -8.760  33.694  1.00  0.00     0.043 A 
HETATM   24  C11 UNK     1      31.781  -7.924  34.654  1.00  0.00     0.125 A 
HETATM   25  F1  UNK     1      31.787  -8.299  35.941  1.00  0.00    -0.205 F 
ENDBRANCH   5  18
BRANCH  11  26
HETATM   26  N1  UNK     1      32.607  -5.464  38.550  1.00  0.00    -0.379 N 
HETATM   27  H7  UNK     1      33.589  -5.516  38.308  1.00  0.00     0.158 HD
HETATM   28  H8  UNK     1      32.326  -5.163  39.475  1.00  0.00     0.158 HD
ENDBRANCH  11  26
TORSDOF 2
ENDMDL
MODEL 9
REMARK VINA RESULT:      -7.7     31.785     34.198
REMARK  2 active torsions:
REMARK  status: ('A' for Active; 'I' for Inactive)
REMARK    1  A    between atoms: C8_15  and  N1_6 
REMARK    2  A    between atoms: C1_8  and  C4_11 
ROOT
HETATM    1  O1  UNK     1      29.701  -6.114  36.284  1.00  0.00    -0.291 OA
HETATM    2  O2  UNK     1      32.854  -6.422  33.551  1.00  0.00    -0.274 OA
HETATM    3  O3  UNK     1      31.926  -8.317  32.688  1.00  0.00    -0.259 OA
HETATM    4  N2  UNK     1      26.891 -10.009  35.923  1.00  0.00    -0.191 NA
HETATM    5  C1  UNK     1      29.594  -8.256  34.376  1.00  0.00     0.113 C 
HETATM    6  C2  UNK     1      30.723  -7.246  34.438  1.00  0.00     0.066 A 
HETATM    7  C3  UNK     1      30.709  -6.260  35.348  1.00  0.00     0.104 A 
HETATM    8  C5  UNK     1      28.650  -8.140  35.569  1.00  0.00     0.086 C 
HETATM    9  C6  UNK     1      31.776  -5.263  35.399  1.00  0.00     0.033 A 
HETATM   10  C7  UNK     1      31.860  -7.391  33.491  1.00  0.00     0.298 A 
HETATM   11  C8  UNK     1      28.734  -7.107  36.437  1.00  0.00     0.159 C 
HETATM   12  C9  UNK     1      32.823  -5.371  34.488  1.00  0.00     0.092 A 
HETATM   13  C12 UNK     1      31.802  -4.202  36.311  1.00  0.00     0.017 A 
HETATM   14  C13 UNK     1      33.880  -4.461  34.461  1.00  0.00     0.038 A 
HETATM   15  C16 UNK     1      32.855  -3.280  36.298  1.00  0.00     0.001 A 
HETATM   16  C17 UNK     1      27.679  -9.174  35.764  1.00  0.00     0.100 C 
HETATM   17  C18 UNK     1      33.891  -3.411  35.374  1.00  0.00     0.003 A 
ENDROOT
BRANCH   5  18
HETATM   18  C4  UNK     1      28.826  -8.108  33.095  1.00  0.00     0.016 A 
HETATM   19  C10 UNK     1      28.752  -9.147  32.173  1.00  0.00     0.044 A 
HETATM   20 Cl1  UNK     1      29.534 -10.661  32.451  1.00  0.00    -0.084 Cl
HETATM   21  C14 UNK     1      28.029  -8.976  30.992  1.00  0.00     0.024 A 
HETATM   22  C19 UNK     1      27.384  -7.765  30.739  1.00  0.00     0.005 A 
HETATM   23  C15 UNK     1      27.462  -6.727  31.667  1.00  0.00     0.043 A 
HETATM   24  C11 UNK     1      28.185  -6.898  32.847  1.00  0.00     0.125 A 
HETATM   25  F1  UNK     1      28.252  -5.894  33.732  1.00  0.00    -0.205 F 
ENDBRANCH   5  18
BRANCH  11  26
HETATM   26  N1  UNK     1      27.921  -6.919  37.520  1.00  0.00    -0.379 N 
HETATM   27  H7  UNK     1      28.018  -6.069  38.062  1.00  0.00     0.158 HD
HETATM   28  H8  UNK     1      27.230  -7.612  37.780  1.00  0.00     0.158 HD
ENDBRANCH  11  26
TORSDOF 2
ENDMDL
MODEL 10
REMARK VINA RESULT:      -7.6     32.260     34.877
REMARK  2 active torsions:
REMARK  status: ('A' for Active; 'I' for Inactive)
REMARK    1  A    between atoms: C8_15  and  N1_6 
REMARK    2  A    between atoms: C1_8  and  C4_11 
ROOT
HETATM    1  O1  UNK     1      32.766  -9.319  34.409  1.00  0.00    -0.291 OA
HETATM    2  O2  UNK     1      31.119  -5.526  35.039  1.00  0.00    -0.274 OA
HETATM    3  O3  UNK     1      30.950  -5.221  32.787  1.00  0.00    -0.259 OA
HETATM    4  N2  UNK     1      33.487  -9.982  29.693  1.00  0.00    -0.191 NA
HETATM    5  C1  UNK     1      31.942  -7.833  32.095  1.00  0.00     0.113 C 
HETATM    6  C2  UNK     1      31.810  -7.315  33.514  1.00  0.00     0.066 A 
HETATM    7  C3  UNK     1      32.204  -8.064  34.555  1.00  0.00     0.104 A 
HETATM    8  C5  UNK     1      32.758  -9.121  32.025  1.00  0.00     0.086 C 
HETATM    9  C6  UNK     1      32.055  -7.588  35.928  1.00  0.00     0.033 A 
HETATM   10  C7  UNK     1      31.263  -5.949  33.723  1.00  0.00     0.298 A 
HETATM   11  C8  UNK     1      33.116  -9.791  33.144  1.00  0.00     0.159 C 
HETATM   12  C9  UNK     1      31.507  -6.324  36.131  1.00  0.00     0.092 A 
HETATM   13  C12 UNK     1      32.428  -8.334  37.052  1.00  0.00     0.017 A 
HETATM   14  C13 UNK     1      31.322  -5.793  37.408  1.00  0.00     0.038 A 
HETATM   15  C16 UNK     1      32.250  -7.815  38.339  1.00  0.00     0.001 A 
HETATM   16  C17 UNK     1      33.160  -9.596  30.736  1.00  0.00     0.100 C 
HETATM   17  C18 UNK     1      31.698  -6.547  38.516  1.00  0.00     0.003 A 
ENDROOT
BRANCH   5  18
HETATM   18  C4  UNK     1      30.588  -8.048  31.485  1.00  0.00     0.016 A 
HETATM   19  C10 UNK     1      30.231  -7.442  30.284  1.00  0.00     0.044 A 
HETATM   20 Cl1  UNK     1      31.325  -6.413  29.432  1.00  0.00    -0.084 Cl
HETATM   21  C14 UNK     1      28.964  -7.663  29.745  1.00  0.00     0.024 A 
HETATM   22  C19 UNK     1      28.059  -8.490  30.410  1.00  0.00     0.005 A 
HETATM   23  C15 UNK     1      28.421  -9.095  31.613  1.00  0.00     0.043 A 
HETATM   24  C11 UNK     1      29.688  -8.873  32.152  1.00  0.00     0.125 A 
HETATM   25  F1  UNK     1      30.025  -9.462  33.308  1.00  0.00    -0.205 F 
ENDBRANCH   5  18
BRANCH  11  26
HETATM   26  N1  UNK     1      33.832 -10.955  33.171  1.00  0.00    -0.379 N 
HETATM   27  H7  UNK     1      34.403 -11.159  33.982  1.00  0.00     0.158 HD
HETATM   28  H8  UNK     1      33.792 -11.609  32.399  1.00  0.00     0.158 HD
ENDBRANCH  11  26
TORSDOF 2
ENDMDL
