MODEL 1
REMARK VINA RESULT:      -8.0      0.000      0.000
REMARK  2 active torsions:
REMARK  status: ('A' for Active; 'I' for Inactive)
REMARK    1  A    between atoms: C8_14  and  N1_5 
REMARK    2  A    between atoms: C1_7  and  C4_10 
ROOT
HETATM    1  O1  UNK     1      30.503  -5.231  37.087  1.00  0.00    -0.291 OA
HETATM    2  O2  UNK     1      30.633  -9.410  37.236  1.00  0.00    -0.274 OA
HETATM    3  O3  UNK     1      32.435  -9.406  35.839  1.00  0.00    -0.259 OA
HETATM    4  N2  UNK     1      34.336  -3.604  34.667  1.00  0.00    -0.191 NA
HETATM    5  C1  UNK     1      32.479  -6.553  35.469  1.00  0.00     0.110 C 
HETATM    6  C2  UNK     1      31.495  -7.287  36.367  1.00  0.00     0.066 A 
HETATM    7  C3  UNK     1      30.587  -6.611  37.087  1.00  0.00     0.104 A 
HETATM    8  C5  UNK     1      32.456  -5.043  35.722  1.00  0.00     0.086 C 
HETATM    9  C6  UNK     1      29.614  -7.309  37.923  1.00  0.00     0.033 A 
HETATM   10  C7  UNK     1      31.579  -8.769  36.442  1.00  0.00     0.298 A 
HETATM   11  C8  UNK     1      31.498  -4.467  36.481  1.00  0.00     0.159 C 
HETATM   12  C9  UNK     1      29.663  -8.700  37.969  1.00  0.00     0.092 A 
HETATM   13  C12 UNK     1      28.632  -6.659  38.679  1.00  0.00     0.017 A 
HETATM   14  C13 UNK     1      28.771  -9.449  38.736  1.00  0.00     0.038 A 
HETATM   15  C16 UNK     1      27.731  -7.395  39.455  1.00  0.00     0.001 A 
HETATM   16  C17 UNK     1      33.494  -4.249  35.139  1.00  0.00     0.100 C 
HETATM   17  C18 UNK     1      27.801  -8.788  39.483  1.00  0.00     0.003 A 
ENDROOT
BRANCH   5  18
HETATM   18  C4  UNK     1      32.195  -6.842  34.024  1.00  0.00    -0.027 A 
HETATM   19  C10 UNK     1      33.176  -7.339  33.171  1.00  0.00     0.018 A 
HETATM   20 Br1  UNK     1      34.941  -7.685  33.774  1.00  0.00    -0.051 Br
HETATM   21  C14 UNK     1      32.868  -7.593  31.834  1.00  0.00     0.019 A 
HETATM   22  C19 UNK     1      31.580  -7.349  31.356  1.00  0.00     0.001 A 
HETATM   23  C15 UNK     1      30.601  -6.852  32.215  1.00  0.00     0.001 A 
HETATM   24  C11 UNK     1      30.908  -6.598  33.552  1.00  0.00     0.009 A 
ENDBRANCH   5  18
BRANCH  11  25
HETATM   25  N1  UNK     1      31.394  -3.127  36.737  1.00  0.00    -0.379 N 
HETATM   26  H10 UNK     1      32.189  -2.512  36.618  1.00  0.00     0.158 HD
HETATM   27  H9  UNK     1      30.505  -2.756  37.046  1.00  0.00     0.158 HD
ENDBRANCH  11  25
TORSDOF 2
ENDMDL
MODEL 2
REMARK VINA RESULT:      -7.7      2.722      3.485
REMARK  2 active torsions:
REMARK  status: ('A' for Active; 'I' for Inactive)
REMARK    1  A    between atoms: C8_14  and  N1_5 
REMARK    2  A    between atoms: C1_7  and  C4_10 
ROOT
HETATM    1  O1  UNK     1      30.626  -5.956  35.310  1.00  0.00    -0.291 OA
HETATM    2  O2  UNK     1      28.064  -9.016  36.565  1.00  0.00    -0.274 OA
HETATM    3  O3  UNK     1      28.410 -10.117  34.598  1.00  0.00    -0.259 OA
HETATM    4  N2  UNK     1      32.688  -7.216  31.143  1.00  0.00    -0.191 NA
HETATM    5  C1  UNK     1      30.103  -8.091  33.454  1.00  0.00     0.110 C 
HETATM    6  C2  UNK     1      29.506  -8.022  34.851  1.00  0.00     0.066 A 
HETATM    7  C3  UNK     1      29.779  -6.991  35.665  1.00  0.00     0.104 A 
HETATM    8  C5  UNK     1      31.195  -7.037  33.254  1.00  0.00     0.086 C 
HETATM    9  C6  UNK     1      29.181  -6.897  36.994  1.00  0.00     0.033 A 
HETATM   10  C7  UNK     1      28.630  -9.136  35.300  1.00  0.00     0.298 A 
HETATM   11  C8  UNK     1      31.394  -6.044  34.151  1.00  0.00     0.159 C 
HETATM   12  C9  UNK     1      28.330  -7.919  37.406  1.00  0.00     0.092 A 
HETATM   13  C12 UNK     1      29.413  -5.836  37.877  1.00  0.00     0.017 A 
HETATM   14  C13 UNK     1      27.711  -7.910  38.656  1.00  0.00     0.038 A 
HETATM   15  C16 UNK     1      28.802  -5.813  39.134  1.00  0.00     0.001 A 
HETATM   16  C17 UNK     1      32.019  -7.136  32.089  1.00  0.00     0.100 C 
HETATM   17  C18 UNK     1      27.952  -6.848  39.523  1.00  0.00     0.003 A 
ENDROOT
BRANCH   5  18
HETATM   18  C4  UNK     1      29.034  -7.934  32.414  1.00  0.00    -0.027 A 
HETATM   19  C10 UNK     1      28.873  -8.860  31.386  1.00  0.00     0.018 A 
HETATM   20 Br1  UNK     1      29.993 -10.383  31.230  1.00  0.00    -0.051 Br
HETATM   21  C14 UNK     1      27.865  -8.675  30.439  1.00  0.00     0.019 A 
HETATM   22  C19 UNK     1      27.023  -7.566  30.523  1.00  0.00     0.001 A 
HETATM   23  C15 UNK     1      27.189  -6.642  31.554  1.00  0.00     0.001 A 
HETATM   24  C11 UNK     1      28.196  -6.826  32.502  1.00  0.00     0.009 A 
ENDBRANCH   5  18
BRANCH  11  25
HETATM   25  N1  UNK     1      32.331  -5.054  34.036  1.00  0.00    -0.379 N 
HETATM   26  H10 UNK     1      32.865  -4.939  33.184  1.00  0.00     0.158 HD
HETATM   27  H9  UNK     1      32.483  -4.432  34.820  1.00  0.00     0.158 HD
ENDBRANCH  11  25
TORSDOF 2
ENDMDL
MODEL 3
REMARK VINA RESULT:      -7.7      2.776      5.595
REMARK  2 active torsions:
REMARK  status: ('A' for Active; 'I' for Inactive)
REMARK    1  A    between atoms: C8_14  and  N1_5 
REMARK    2  A    between atoms: C1_7  and  C4_10 
ROOT
HETATM    1  O1  UNK     1      31.425  -5.263  34.148  1.00  0.00    -0.291 OA
HETATM    2  O2  UNK     1      27.582  -6.864  33.734  1.00  0.00    -0.274 OA
HETATM    3  O3  UNK     1      27.477  -7.200  35.987  1.00  0.00    -0.259 OA
HETATM    4  N2  UNK     1      32.483  -4.851  38.828  1.00  0.00    -0.191 NA
HETATM    5  C1  UNK     1      30.145  -6.263  36.521  1.00  0.00     0.110 C 
HETATM    6  C2  UNK     1      29.502  -6.283  35.143  1.00  0.00     0.066 A 
HETATM    7  C3  UNK     1      30.159  -5.813  34.072  1.00  0.00     0.104 A 
HETATM    8  C5  UNK     1      31.429  -5.431  36.532  1.00  0.00     0.086 C 
HETATM    9  C6  UNK     1      29.564  -5.862  32.739  1.00  0.00     0.033 A 
HETATM   10  C7  UNK     1      28.120  -6.817  35.017  1.00  0.00     0.298 A 
HETATM   11  C8  UNK     1      32.000  -4.994  35.387  1.00  0.00     0.159 C 
HETATM   12  C9  UNK     1      28.284  -6.395  32.608  1.00  0.00     0.092 A 
HETATM   13  C12 UNK     1      30.210  -5.406  31.583  1.00  0.00     0.017 A 
HETATM   14  C13 UNK     1      27.641  -6.486  31.374  1.00  0.00     0.038 A 
HETATM   15  C16 UNK     1      29.578  -5.488  30.339  1.00  0.00     0.001 A 
HETATM   16  C17 UNK     1      32.011  -5.111  37.800  1.00  0.00     0.100 C 
HETATM   17  C18 UNK     1      28.296  -6.028  30.234  1.00  0.00     0.003 A 
ENDROOT
BRANCH   5  18
HETATM   18  C4  UNK     1      30.427  -7.659  36.994  1.00  0.00    -0.027 A 
HETATM   19  C10 UNK     1      29.814  -8.184  38.129  1.00  0.00     0.018 A 
HETATM   20 Br1  UNK     1      28.582  -7.173  39.156  1.00  0.00    -0.051 Br
HETATM   21  C14 UNK     1      30.106  -9.487  38.533  1.00  0.00     0.019 A 
HETATM   22  C19 UNK     1      31.008 -10.260  37.801  1.00  0.00     0.001 A 
HETATM   23  C15 UNK     1      31.619  -9.729  36.665  1.00  0.00     0.001 A 
HETATM   24  C11 UNK     1      31.328  -8.426  36.260  1.00  0.00     0.009 A 
ENDBRANCH   5  18
BRANCH  11  25
HETATM   25  N1  UNK     1      33.156  -4.265  35.311  1.00  0.00    -0.379 N 
HETATM   26  H10 UNK     1      34.038  -4.709  35.092  1.00  0.00     0.158 HD
HETATM   27  H9  UNK     1      33.115  -3.267  35.474  1.00  0.00     0.158 HD
ENDBRANCH  11  25
TORSDOF 2
ENDMDL
MODEL 4
REMARK VINA RESULT:      -7.7      3.260      6.095
REMARK  2 active torsions:
REMARK  status: ('A' for Active; 'I' for Inactive)
REMARK    1  A    between atoms: C8_14  and  N1_5 
REMARK    2  A    between atoms: C1_7  and  C4_10 
ROOT
HETATM    1  O1  UNK     1      28.229  -8.310  34.514  1.00  0.00    -0.291 OA
HETATM    2  O2  UNK     1      30.935  -5.806  32.537  1.00  0.00    -0.274 OA
HETATM    3  O3  UNK     1      32.399  -6.012  34.272  1.00  0.00    -0.259 OA
HETATM    4  N2  UNK     1      30.308 -10.083  38.481  1.00  0.00    -0.191 NA
HETATM    5  C1  UNK     1      30.667  -7.647  35.889  1.00  0.00     0.110 C 
HETATM    6  C2  UNK     1      30.320  -7.142  34.496  1.00  0.00     0.066 A 
HETATM    7  C3  UNK     1      29.158  -7.478  33.915  1.00  0.00     0.104 A 
HETATM    8  C5  UNK     1      29.695  -8.733  36.355  1.00  0.00     0.086 C 
HETATM    9  C6  UNK     1      28.798  -6.969  32.594  1.00  0.00     0.033 A 
HETATM   10  C7  UNK     1      31.307  -6.287  33.788  1.00  0.00     0.298 A 
HETATM   11  C8  UNK     1      28.555  -8.999  35.680  1.00  0.00     0.159 C 
HETATM   12  C9  UNK     1      29.703  -6.137  31.941  1.00  0.00     0.092 A 
HETATM   13  C12 UNK     1      27.593  -7.269  31.949  1.00  0.00     0.017 A 
HETATM   14  C13 UNK     1      29.442  -5.602  30.680  1.00  0.00     0.038 A 
HETATM   15  C16 UNK     1      27.316  -6.741  30.683  1.00  0.00     0.001 A 
HETATM   16  C17 UNK     1      30.034  -9.478  37.529  1.00  0.00     0.100 C 
HETATM   17  C18 UNK     1      28.239  -5.908  30.051  1.00  0.00     0.003 A 
ENDROOT
BRANCH   5  18
HETATM   18  C4  UNK     1      30.690  -6.513  36.871  1.00  0.00    -0.027 A 
HETATM   19  C10 UNK     1      31.807  -6.251  37.660  1.00  0.00     0.018 A 
HETATM   20 Br1  UNK     1      33.378  -7.308  37.548  1.00  0.00    -0.051 Br
HETATM   21  C14 UNK     1      31.784  -5.187  38.562  1.00  0.00     0.019 A 
HETATM   22  C19 UNK     1      30.646  -4.389  38.670  1.00  0.00     0.001 A 
HETATM   23  C15 UNK     1      29.529  -4.655  37.878  1.00  0.00     0.001 A 
HETATM   24  C11 UNK     1      29.551  -5.719  36.976  1.00  0.00     0.009 A 
ENDBRANCH   5  18
BRANCH  11  25
HETATM   25  N1  UNK     1      27.626  -9.937  36.042  1.00  0.00    -0.379 N 
HETATM   26  H10 UNK     1      27.755 -10.913  35.811  1.00  0.00     0.158 HD
HETATM   27  H9  UNK     1      26.803  -9.638  36.550  1.00  0.00     0.158 HD
ENDBRANCH  11  25
TORSDOF 2
ENDMDL
MODEL 5
REMARK VINA RESULT:      -7.5      2.319      3.139
REMARK  2 active torsions:
REMARK  status: ('A' for Active; 'I' for Inactive)
REMARK    1  A    between atoms: C8_14  and  N1_5 
REMARK    2  A    between atoms: C1_7  and  C4_10 
ROOT
HETATM    1  O1  UNK     1      32.293  -5.133  35.542  1.00  0.00    -0.291 OA
HETATM    2  O2  UNK     1      28.724  -7.174  36.313  1.00  0.00    -0.274 OA
HETATM    3  O3  UNK     1      29.085  -8.500  34.494  1.00  0.00    -0.259 OA
HETATM    4  N2  UNK     1      34.627  -7.314  31.937  1.00  0.00    -0.191 NA
HETATM    5  C1  UNK     1      31.506  -7.175  33.676  1.00  0.00     0.110 C 
HETATM    6  C2  UNK     1      30.702  -6.808  34.915  1.00  0.00     0.066 A 
HETATM    7  C3  UNK     1      31.118  -5.835  35.739  1.00  0.00     0.104 A 
HETATM    8  C5  UNK     1      32.886  -6.513  33.682  1.00  0.00     0.086 C 
HETATM    9  C6  UNK     1      30.335  -5.450  36.910  1.00  0.00     0.033 A 
HETATM   10  C7  UNK     1      29.457  -7.569  35.199  1.00  0.00     0.298 A 
HETATM   11  C8  UNK     1      33.204  -5.548  34.573  1.00  0.00     0.159 C 
HETATM   12  C9  UNK     1      29.148  -6.133  37.162  1.00  0.00     0.092 A 
HETATM   13  C12 UNK     1      30.708  -4.430  37.793  1.00  0.00     0.017 A 
HETATM   14  C13 UNK     1      28.334  -5.830  38.253  1.00  0.00     0.038 A 
HETATM   15  C16 UNK     1      29.904  -4.114  38.892  1.00  0.00     0.001 A 
HETATM   16  C17 UNK     1      33.847  -6.956  32.718  1.00  0.00     0.100 C 
HETATM   17  C18 UNK     1      28.719  -4.813  39.122  1.00  0.00     0.003 A 
ENDROOT
BRANCH   5  18
HETATM   18  C4  UNK     1      30.757  -6.804  32.430  1.00  0.00    -0.027 A 
HETATM   19  C10 UNK     1      30.538  -7.723  31.407  1.00  0.00     0.018 A 
HETATM   20 Br1  UNK     1      31.172  -9.507  31.517  1.00  0.00    -0.051 Br
HETATM   21  C14 UNK     1      29.837  -7.335  30.265  1.00  0.00     0.019 A 
HETATM   22  C19 UNK     1      29.357  -6.030  30.151  1.00  0.00     0.001 A 
HETATM   23  C15 UNK     1      29.578  -5.114  31.179  1.00  0.00     0.001 A 
HETATM   24  C11 UNK     1      30.279  -5.501  32.321  1.00  0.00     0.009 A 
ENDBRANCH   5  18
BRANCH  11  25
HETATM   25  N1  UNK     1      34.404  -4.893  34.631  1.00  0.00    -0.379 N 
HETATM   26  H10 UNK     1      35.267  -5.400  34.778  1.00  0.00     0.158 HD
HETATM   27  H9  UNK     1      34.417  -3.887  34.521  1.00  0.00     0.158 HD
ENDBRANCH  11  25
TORSDOF 2
ENDMDL
MODEL 6
REMARK VINA RESULT:      -7.5      2.767      6.073
REMARK  2 active torsions:
REMARK  status: ('A' for Active; 'I' for Inactive)
REMARK    1  A    between atoms: C8_14  and  N1_5 
REMARK    2  A    between atoms: C1_7  and  C4_10 
ROOT
HETATM    1  O1  UNK     1      31.863  -5.825  36.058  1.00  0.00    -0.291 OA
HETATM    2  O2  UNK     1      28.998  -7.449  33.478  1.00  0.00    -0.274 OA
HETATM    3  O3  UNK     1      27.368  -7.024  35.015  1.00  0.00    -0.259 OA
HETATM    4  N2  UNK     1      29.653  -3.900  39.880  1.00  0.00    -0.191 NA
HETATM    5  C1  UNK     1      29.155  -5.980  37.015  1.00  0.00     0.110 C 
HETATM    6  C2  UNK     1      29.590  -6.449  35.635  1.00  0.00     0.066 A 
HETATM    7  C3  UNK     1      30.874  -6.362  35.254  1.00  0.00     0.104 A 
HETATM    8  C5  UNK     1      30.264  -5.198  37.722  1.00  0.00     0.086 C 
HETATM    9  C6  UNK     1      31.308  -6.844  33.946  1.00  0.00     0.033 A 
HETATM   10  C7  UNK     1      28.556  -6.986  34.713  1.00  0.00     0.298 A 
HETATM   11  C8  UNK     1      31.526  -5.166  37.238  1.00  0.00     0.159 C 
HETATM   12  C9  UNK     1      30.350  -7.383  33.091  1.00  0.00     0.092 A 
HETATM   13  C12 UNK     1      32.635  -6.798  33.503  1.00  0.00     0.017 A 
HETATM   14  C13 UNK     1      30.674  -7.871  31.826  1.00  0.00     0.038 A 
HETATM   15  C16 UNK     1      32.977  -7.282  32.236  1.00  0.00     0.001 A 
HETATM   16  C17 UNK     1      29.926  -4.481  38.914  1.00  0.00     0.100 C 
HETATM   17  C18 UNK     1      31.998  -7.818  31.400  1.00  0.00     0.003 A 
ENDROOT
BRANCH   5  18
HETATM   18  C4  UNK     1      28.722  -7.144  37.857  1.00  0.00    -0.027 A 
HETATM   19  C10 UNK     1      27.545  -7.110  38.601  1.00  0.00     0.018 A 
HETATM   20 Br1  UNK     1      26.408  -5.593  38.603  1.00  0.00    -0.051 Br
HETATM   21  C14 UNK     1      27.182  -8.215  39.372  1.00  0.00     0.019 A 
HETATM   22  C19 UNK     1      27.995  -9.348  39.394  1.00  0.00     0.001 A 
HETATM   23  C15 UNK     1      29.172  -9.376  38.647  1.00  0.00     0.001 A 
HETATM   24  C11 UNK     1      29.537  -8.272  37.877  1.00  0.00     0.009 A 
ENDBRANCH   5  18
BRANCH  11  25
HETATM   25  N1  UNK     1      32.577  -4.510  37.820  1.00  0.00    -0.379 N 
HETATM   26  H10 UNK     1      33.499  -4.534  37.405  1.00  0.00     0.158 HD
HETATM   27  H9  UNK     1      32.417  -3.993  38.676  1.00  0.00     0.158 HD
ENDBRANCH  11  25
TORSDOF 2
ENDMDL
MODEL 7
REMARK VINA RESULT:      -7.5      3.829      6.063
REMARK  2 active torsions:
REMARK  status: ('A' for Active; 'I' for Inactive)
REMARK    1  A    between atoms: C8_14  and  N1_5 
REMARK    2  A    between atoms: C1_7  and  C4_10 
ROOT
HETATM    1  O1  UNK     1      31.751  -8.856  31.022  1.00  0.00    -0.291 OA
HETATM    2  O2  UNK     1      29.410  -5.741  32.544  1.00  0.00    -0.274 OA
HETATM    3  O3  UNK     1      31.231  -4.896  33.625  1.00  0.00    -0.259 OA
HETATM    4  N2  UNK     1      36.365  -8.087  32.172  1.00  0.00    -0.191 NA
HETATM    5  C1  UNK     1      33.020  -7.000  32.816  1.00  0.00     0.110 C 
HETATM    6  C2  UNK     1      31.561  -6.904  32.396  1.00  0.00     0.066 A 
HETATM    7  C3  UNK     1      31.025  -7.811  31.565  1.00  0.00     0.104 A 
HETATM    8  C5  UNK     1      33.780  -8.036  31.985  1.00  0.00     0.086 C 
HETATM    9  C6  UNK     1      29.617  -7.749  31.186  1.00  0.00     0.033 A 
HETATM   10  C7  UNK     1      30.752  -5.769  32.911  1.00  0.00     0.298 A 
HETATM   11  C8  UNK     1      33.136  -8.896  31.164  1.00  0.00     0.159 C 
HETATM   12  C9  UNK     1      28.842  -6.709  31.695  1.00  0.00     0.092 A 
HETATM   13  C12 UNK     1      28.998  -8.678  30.340  1.00  0.00     0.017 A 
HETATM   14  C13 UNK     1      27.489  -6.574  31.389  1.00  0.00     0.038 A 
HETATM   15  C16 UNK     1      27.642  -8.556  30.023  1.00  0.00     0.001 A 
HETATM   16  C17 UNK     1      35.207  -8.064  32.088  1.00  0.00     0.100 C 
HETATM   17  C18 UNK     1      26.888  -7.505  30.548  1.00  0.00     0.003 A 
ENDROOT
BRANCH   5  18
HETATM   18  C4  UNK     1      33.129  -7.324  34.277  1.00  0.00    -0.027 A 
HETATM   19  C10 UNK     1      33.847  -6.515  35.154  1.00  0.00     0.018 A 
HETATM   20 Br1  UNK     1      34.735  -4.947  34.564  1.00  0.00    -0.051 Br
HETATM   21  C14 UNK     1      33.923  -6.855  36.505  1.00  0.00     0.019 A 
HETATM   22  C19 UNK     1      33.282  -8.002  36.973  1.00  0.00     0.001 A 
HETATM   23  C15 UNK     1      32.564  -8.809  36.090  1.00  0.00     0.001 A 
HETATM   24  C11 UNK     1      32.488  -8.470  34.740  1.00  0.00     0.009 A 
ENDBRANCH   5  18
BRANCH  11  25
HETATM   25  N1  UNK     1      33.738  -9.863  30.406  1.00  0.00    -0.379 N 
HETATM   26  H10 UNK     1      33.761 -10.826  30.713  1.00  0.00     0.158 HD
HETATM   27  H9  UNK     1      34.161  -9.599  29.524  1.00  0.00     0.158 HD
ENDBRANCH  11  25
TORSDOF 2
ENDMDL
MODEL 8
REMARK VINA RESULT:      -7.5      3.896      5.517
REMARK  2 active torsions:
REMARK  status: ('A' for Active; 'I' for Inactive)
REMARK    1  A    between atoms: C8_14  and  N1_5 
REMARK    2  A    between atoms: C1_7  and  C4_10 
ROOT
HETATM    1  O1  UNK     1      34.387  -6.811  32.338  1.00  0.00    -0.291 OA
HETATM    2  O2  UNK     1      31.862  -7.959  35.470  1.00  0.00    -0.274 OA
HETATM    3  O3  UNK     1      30.477  -8.988  33.980  1.00  0.00    -0.259 OA
HETATM    4  N2  UNK     1      32.872  -8.846  28.245  1.00  0.00    -0.191 NA
HETATM    5  C1  UNK     1      31.974  -8.214  31.647  1.00  0.00     0.110 C 
HETATM    6  C2  UNK     1      32.374  -7.877  33.075  1.00  0.00     0.066 A 
HETATM    7  C3  UNK     1      33.508  -7.207  33.330  1.00  0.00     0.104 A 
HETATM    8  C5  UNK     1      33.114  -7.944  30.662  1.00  0.00     0.086 C 
HETATM    9  C6  UNK     1      33.883  -6.847  34.695  1.00  0.00     0.033 A 
HETATM   10  C7  UNK     1      31.489  -8.327  34.181  1.00  0.00     0.298 A 
HETATM   11  C8  UNK     1      34.225  -7.269  31.033  1.00  0.00     0.159 C 
HETATM   12  C9  UNK     1      33.039  -7.232  35.733  1.00  0.00     0.092 A 
HETATM   13  C12 UNK     1      35.042  -6.132  35.019  1.00  0.00     0.017 A 
HETATM   14  C13 UNK     1      33.314  -6.928  37.065  1.00  0.00     0.038 A 
HETATM   15  C16 UNK     1      35.334  -5.820  36.350  1.00  0.00     0.001 A 
HETATM   16  C17 UNK     1      32.980  -8.442  29.327  1.00  0.00     0.100 C 
HETATM   17  C18 UNK     1      34.471  -6.217  37.372  1.00  0.00     0.003 A 
ENDROOT
BRANCH   5  18
HETATM   18  C4  UNK     1      30.749  -7.446  31.246  1.00  0.00    -0.027 A 
HETATM   19  C10 UNK     1      29.649  -8.073  30.665  1.00  0.00     0.018 A 
HETATM   20 Br1  UNK     1      29.623  -9.942  30.341  1.00  0.00    -0.051 Br
HETATM   21  C14 UNK     1      28.531  -7.320  30.307  1.00  0.00     0.019 A 
HETATM   22  C19 UNK     1      28.516  -5.944  30.531  1.00  0.00     0.001 A 
HETATM   23  C15 UNK     1      29.619  -5.320  31.113  1.00  0.00     0.001 A 
HETATM   24  C11 UNK     1      30.738  -6.072  31.472  1.00  0.00     0.009 A 
ENDBRANCH   5  18
BRANCH  11  25
HETATM   25  N1  UNK     1      35.276  -6.969  30.210  1.00  0.00    -0.379 N 
HETATM   26  H10 UNK     1      36.229  -7.018  30.546  1.00  0.00     0.158 HD
HETATM   27  H9  UNK     1      35.086  -6.699  29.254  1.00  0.00     0.158 HD
ENDBRANCH  11  25
TORSDOF 2
ENDMDL
MODEL 9
REMARK VINA RESULT:      -7.4      3.976      7.050
REMARK  2 active torsions:
REMARK  status: ('A' for Active; 'I' for Inactive)
REMARK    1  A    between atoms: C8_14  and  N1_5 
REMARK    2  A    between atoms: C1_7  and  C4_10 
ROOT
HETATM    1  O1  UNK     1      30.481 -10.591  33.595  1.00  0.00    -0.291 OA
HETATM    2  O2  UNK     1      28.150  -7.559  31.898  1.00  0.00    -0.274 OA
HETATM    3  O3  UNK     1      28.004  -6.531  33.928  1.00  0.00    -0.259 OA
HETATM    4  N2  UNK     1      31.504  -9.445  38.159  1.00  0.00    -0.191 NA
HETATM    5  C1  UNK     1      29.473  -8.552  35.356  1.00  0.00     0.110 C 
HETATM    6  C2  UNK     1      29.208  -8.580  33.858  1.00  0.00     0.066 A 
HETATM    7  C3  UNK     1      29.696  -9.569  33.093  1.00  0.00     0.104 A 
HETATM    8  C5  UNK     1      30.532  -9.581  35.761  1.00  0.00     0.086 C 
HETATM    9  C6  UNK     1      29.416  -9.624  31.661  1.00  0.00     0.033 A 
HETATM   10  C7  UNK     1      28.414  -7.475  33.261  1.00  0.00     0.298 A 
HETATM   11  C8  UNK     1      30.965 -10.529  34.899  1.00  0.00     0.159 C 
HETATM   12  C9  UNK     1      28.640  -8.612  31.102  1.00  0.00     0.092 A 
HETATM   13  C12 UNK     1      29.880 -10.641  30.818  1.00  0.00     0.017 A 
HETATM   14  C13 UNK     1      28.319  -8.587  29.745  1.00  0.00     0.038 A 
HETATM   15  C16 UNK     1      29.568 -10.630  29.455  1.00  0.00     0.001 A 
HETATM   16  C17 UNK     1      31.069  -9.506  37.085  1.00  0.00     0.100 C 
HETATM   17  C18 UNK     1      28.788  -9.604  28.920  1.00  0.00     0.003 A 
ENDROOT
BRANCH   5  18
HETATM   18  C4  UNK     1      28.204  -8.783  36.122  1.00  0.00    -0.027 A 
HETATM   19  C10 UNK     1      27.771  -7.895  37.103  1.00  0.00     0.018 A 
HETATM   20 Br1  UNK     1      28.752  -6.332  37.539  1.00  0.00    -0.051 Br
HETATM   21  C14 UNK     1      26.584  -8.149  37.792  1.00  0.00     0.019 A 
HETATM   22  C19 UNK     1      25.837  -9.290  37.497  1.00  0.00     0.001 A 
HETATM   23  C15 UNK     1      26.276 -10.176  36.514  1.00  0.00     0.001 A 
HETATM   24  C11 UNK     1      27.461  -9.922  35.824  1.00  0.00     0.009 A 
ENDBRANCH   5  18
BRANCH  11  25
HETATM   25  N1  UNK     1      31.889 -11.495  35.189  1.00  0.00    -0.379 N 
HETATM   26  H10 UNK     1      32.260 -11.596  36.125  1.00  0.00     0.158 HD
HETATM   27  H9  UNK     1      32.197 -12.114  34.450  1.00  0.00     0.158 HD
ENDBRANCH  11  25
TORSDOF 2
ENDMDL
MODEL 10
REMARK VINA RESULT:      -7.4     33.714     35.791
REMARK  2 active torsions:
REMARK  status: ('A' for Active; 'I' for Inactive)
REMARK    1  A    between atoms: C8_14  and  N1_5 
REMARK    2  A    between atoms: C1_7  and  C4_10 
ROOT
HETATM    1  O1  UNK     1      11.064   8.963  10.118  1.00  0.00    -0.291 OA
HETATM    2  O2  UNK     1      12.762   6.065   7.623  1.00  0.00    -0.274 OA
HETATM    3  O3  UNK     1      14.762   6.314   8.690  1.00  0.00    -0.259 OA
HETATM    4  N2  UNK     1      14.245  10.199  13.516  1.00  0.00    -0.191 NA
HETATM    5  C1  UNK     1      13.870   8.420  10.438  1.00  0.00     0.110 C 
HETATM    6  C2  UNK     1      12.984   7.712   9.424  1.00  0.00     0.066 A 
HETATM    7  C3  UNK     1      11.683   8.022   9.315  1.00  0.00     0.104 A 
HETATM    8  C5  UNK     1      13.047   9.257  11.420  1.00  0.00     0.086 C 
HETATM    9  C6  UNK     1      10.833   7.376   8.319  1.00  0.00     0.033 A 
HETATM   10  C7  UNK     1      13.590   6.656   8.572  1.00  0.00     0.298 A 
HETATM   11  C8  UNK     1      11.732   9.494  11.219  1.00  0.00     0.159 C 
HETATM   12  C9  UNK     1      11.403   6.412   7.492  1.00  0.00     0.092 A 
HETATM   13  C12 UNK     1       9.476   7.673   8.146  1.00  0.00     0.017 A 
HETATM   14  C13 UNK     1      10.669   5.746   6.511  1.00  0.00     0.038 A 
HETATM   15  C16 UNK     1       8.725   7.014   7.168  1.00  0.00     0.001 A 
HETATM   16  C17 UNK     1      13.709   9.777  12.578  1.00  0.00     0.100 C 
HETATM   17  C18 UNK     1       9.321   6.053   6.352  1.00  0.00     0.003 A 
ENDROOT
BRANCH   5  18
HETATM   18  C4  UNK     1      14.884   9.281   9.745  1.00  0.00    -0.027 A 
HETATM   19  C10 UNK     1      16.252   9.077   9.911  1.00  0.00     0.018 A 
HETATM   20 Br1  UNK     1      16.928   7.699  11.024  1.00  0.00    -0.051 Br
HETATM   21  C14 UNK     1      17.161   9.902   9.247  1.00  0.00     0.019 A 
HETATM   22  C19 UNK     1      16.699  10.927   8.421  1.00  0.00     0.001 A 
HETATM   23  C15 UNK     1      15.328  11.126   8.257  1.00  0.00     0.001 A 
HETATM   24  C11 UNK     1      14.419  10.301   8.920  1.00  0.00     0.009 A 
ENDBRANCH   5  18
BRANCH  11  25
HETATM   25  N1  UNK     1      10.933  10.247  12.035  1.00  0.00    -0.379 N 
HETATM   26  H10 UNK     1      11.317  10.735  12.834  1.00  0.00     0.158 HD
HETATM   27  H9  UNK     1       9.945  10.313  11.826  1.00  0.00     0.158 HD
ENDBRANCH  11  25
TORSDOF 2
ENDMDL
