MODEL 1
REMARK VINA RESULT:      -9.1      0.000      0.000
REMARK  2 active torsions:
REMARK  status: ('A' for Active; 'I' for Inactive)
REMARK    1  A    between atoms: C12_17  and  O3_3 
REMARK    2  A    between atoms: C1_6  and  C3_8 
ROOT
HETATM    1  O1  UNK     1      18.321   1.406  33.026  1.00  0.00    -0.275 OA
HETATM    2  O5  UNK     1      18.090   1.414  35.299  1.00  0.00    -0.260 OA
HETATM    3  C1  UNK     1      18.278   4.252  33.118  1.00  0.00    -0.001 A 
HETATM    4  C2  UNK     1      18.430   3.537  31.835  1.00  0.00     0.009 A 
HETATM    5  C4  UNK     1      18.443   2.140  31.833  1.00  0.00     0.093 A 
HETATM    6  C7  UNK     1      18.568   4.184  30.599  1.00  0.00     0.018 A 
HETATM    7  C8  UNK     1      18.170   3.512  34.233  1.00  0.00     0.096 A 
HETATM    8  C11 UNK     1      18.582   1.395  30.659  1.00  0.00     0.075 A 
HETATM    9  C12 UNK     1      18.713   2.058  29.445  1.00  0.00     0.070 A 
HETATM   10  C13 UNK     1      18.707   3.451  29.414  1.00  0.00     0.038 A 
HETATM   11  C14 UNK     1      18.190   2.039  34.250  1.00  0.00     0.289 A 
ENDROOT
BRANCH   3  12
HETATM   12  C3  UNK     1      18.233   5.694  33.255  1.00  0.00     0.052 A 
HETATM   13  C10 UNK     1      16.997   6.421  32.853  1.00  0.00     0.299 A 
HETATM   14  O2  UNK     1      17.002   7.807  33.003  1.00  0.00    -0.274 OA
HETATM   15  O4  UNK     1      16.011   5.841  32.411  1.00  0.00    -0.259 OA
HETATM   16  C9  UNK     1      18.115   8.501  33.508  1.00  0.00     0.089 A 
HETATM   17  C16 UNK     1      18.022   9.887  33.620  1.00  0.00     0.038 A 
HETATM   18  C5  UNK     1      19.263   7.813  33.881  1.00  0.00    -0.001 A 
HETATM   19  C18 UNK     1      19.110  10.600  34.118  1.00  0.00     0.003 A 
HETATM   20  C17 UNK     1      20.272   9.925  34.498  1.00  0.00     0.001 A 
HETATM   21  C15 UNK     1      20.350   8.534  34.380  1.00  0.00     0.014 A 
HETATM   22  C6  UNK     1      19.289   6.367  33.737  1.00  0.00     0.032 A 
ENDBRANCH   3  12
BRANCH   9  23
HETATM   23  O3  UNK     1      18.850   1.350  28.291  1.00  0.00    -0.356 OA
HETATM   24  C19 UNK     1      19.208  -0.025  28.411  1.00  0.00     0.210 C 
ENDBRANCH   9  23
TORSDOF 2
ENDMDL
MODEL 2
REMARK VINA RESULT:      -8.9      1.163      3.602
REMARK  2 active torsions:
REMARK  status: ('A' for Active; 'I' for Inactive)
REMARK    1  A    between atoms: C12_17  and  O3_3 
REMARK    2  A    between atoms: C1_6  and  C3_8 
ROOT
HETATM    1  O1  UNK     1      18.394   1.591  31.531  1.00  0.00    -0.275 OA
HETATM    2  O5  UNK     1      18.389   2.391  29.391  1.00  0.00    -0.260 OA
HETATM    3  C1  UNK     1      18.289   4.293  32.428  1.00  0.00    -0.001 A 
HETATM    4  C2  UNK     1      18.305   3.174  33.392  1.00  0.00     0.009 A 
HETATM    5  C4  UNK     1      18.360   1.863  32.911  1.00  0.00     0.093 A 
HETATM    6  C7  UNK     1      18.262   3.348  34.782  1.00  0.00     0.018 A 
HETATM    7  C8  UNK     1      18.318   3.988  31.121  1.00  0.00     0.096 A 
HETATM    8  C11 UNK     1      18.379   0.755  33.762  1.00  0.00     0.075 A 
HETATM    9  C12 UNK     1      18.340   0.952  35.137  1.00  0.00     0.070 A 
HETATM   10  C13 UNK     1      18.282   2.247  35.647  1.00  0.00     0.038 A 
HETATM   11  C14 UNK     1      18.368   2.612  30.597  1.00  0.00     0.289 A 
ENDROOT
BRANCH   3  12
HETATM   12  C3  UNK     1      18.249   5.694  32.796  1.00  0.00     0.052 A 
HETATM   13  C10 UNK     1      16.972   6.445  32.649  1.00  0.00     0.299 A 
HETATM   14  O2  UNK     1      16.983   7.790  33.015  1.00  0.00    -0.274 OA
HETATM   15  O4  UNK     1      15.947   5.918  32.229  1.00  0.00    -0.259 OA
HETATM   16  C9  UNK     1      18.141   8.423  33.502  1.00  0.00     0.089 A 
HETATM   17  C16 UNK     1      18.051   9.772  33.841  1.00  0.00     0.038 A 
HETATM   18  C5  UNK     1      19.328   7.713  33.635  1.00  0.00    -0.001 A 
HETATM   19  C18 UNK     1      19.183  10.424  34.326  1.00  0.00     0.003 A 
HETATM   20  C17 UNK     1      20.384   9.725  34.467  1.00  0.00     0.001 A 
HETATM   21  C15 UNK     1      20.458   8.373  34.122  1.00  0.00     0.014 A 
HETATM   22  C6  UNK     1      19.347   6.309  33.262  1.00  0.00     0.032 A 
ENDBRANCH   3  12
BRANCH   9  23
HETATM   23  O3  UNK     1      18.357  -0.115  35.981  1.00  0.00    -0.356 OA
HETATM   24  C19 UNK     1      17.700   0.041  37.238  1.00  0.00     0.210 C 
ENDBRANCH   9  23
TORSDOF 2
ENDMDL
MODEL 3
REMARK VINA RESULT:      -8.7     22.657     25.309
REMARK  2 active torsions:
REMARK  status: ('A' for Active; 'I' for Inactive)
REMARK    1  A    between atoms: C12_17  and  O3_3 
REMARK    2  A    between atoms: C1_6  and  C3_8 
ROOT
HETATM    1  O1  UNK     1      17.780   8.978   9.817  1.00  0.00    -0.275 OA
HETATM    2  O5  UNK     1      17.973   6.925  10.799  1.00  0.00    -0.260 OA
HETATM    3  C1  UNK     1      15.070   8.325   9.229  1.00  0.00    -0.001 A 
HETATM    4  C2  UNK     1      15.636   9.633   8.842  1.00  0.00     0.009 A 
HETATM    5  C4  UNK     1      16.970   9.913   9.146  1.00  0.00     0.093 A 
HETATM    6  C7  UNK     1      14.904  10.629   8.181  1.00  0.00     0.018 A 
HETATM    7  C8  UNK     1      15.877   7.464   9.872  1.00  0.00     0.096 A 
HETATM    8  C11 UNK     1      17.575  11.127   8.810  1.00  0.00     0.075 A 
HETATM    9  C12 UNK     1      16.830  12.098   8.152  1.00  0.00     0.070 A 
HETATM   10  C13 UNK     1      15.496  11.850   7.838  1.00  0.00     0.038 A 
HETATM   11  C14 UNK     1      17.283   7.747  10.207  1.00  0.00     0.289 A 
ENDROOT
BRANCH   3  12
HETATM   12  C3  UNK     1      13.709   7.905   8.960  1.00  0.00     0.052 A 
HETATM   13  C10 UNK     1      12.695   7.996  10.046  1.00  0.00     0.299 A 
HETATM   14  O2  UNK     1      11.401   7.580   9.739  1.00  0.00    -0.274 OA
HETATM   15  O4  UNK     1      12.970   8.417  11.165  1.00  0.00    -0.259 OA
HETATM   16  C9  UNK     1      11.053   7.095   8.466  1.00  0.00     0.089 A 
HETATM   17  C16 UNK     1       9.732   6.703   8.258  1.00  0.00     0.038 A 
HETATM   18  C5  UNK     1      12.007   7.015   7.459  1.00  0.00    -0.001 A 
HETATM   19  C18 UNK     1       9.360   6.219   7.005  1.00  0.00     0.003 A 
HETATM   20  C17 UNK     1      10.306   6.132   5.982  1.00  0.00     0.001 A 
HETATM   21  C15 UNK     1      11.627   6.528   6.206  1.00  0.00     0.014 A 
HETATM   22  C6  UNK     1      13.366   7.441   7.748  1.00  0.00     0.032 A 
ENDBRANCH   3  12
BRANCH   9  23
HETATM   23  O3  UNK     1      17.401  13.288   7.818  1.00  0.00    -0.356 OA
HETATM   24  C19 UNK     1      17.919  13.410   6.494  1.00  0.00     0.210 C 
ENDBRANCH   9  23
TORSDOF 2
ENDMDL
MODEL 4
REMARK VINA RESULT:      -8.5      1.749      3.932
REMARK  2 active torsions:
REMARK  status: ('A' for Active; 'I' for Inactive)
REMARK    1  A    between atoms: C12_17  and  O3_3 
REMARK    2  A    between atoms: C1_6  and  C3_8 
ROOT
HETATM    1  O1  UNK     1      18.461   1.438  30.596  1.00  0.00    -0.275 OA
HETATM    2  O5  UNK     1      18.394   2.452  28.550  1.00  0.00    -0.260 OA
HETATM    3  C1  UNK     1      18.265   4.027  31.767  1.00  0.00    -0.001 A 
HETATM    4  C2  UNK     1      18.339   2.817  32.610  1.00  0.00     0.009 A 
HETATM    5  C4  UNK     1      18.437   1.566  31.997  1.00  0.00     0.093 A 
HETATM    6  C7  UNK     1      18.310   2.846  34.012  1.00  0.00     0.018 A 
HETATM    7  C8  UNK     1      18.287   3.859  30.435  1.00  0.00     0.096 A 
HETATM    8  C11 UNK     1      18.511   0.378  32.729  1.00  0.00     0.075 A 
HETATM    9  C12 UNK     1      18.486   0.431  34.117  1.00  0.00     0.070 A 
HETATM   10  C13 UNK     1      18.385   1.664  34.759  1.00  0.00     0.038 A 
HETATM   11  C14 UNK     1      18.382   2.547  29.772  1.00  0.00     0.289 A 
ENDROOT
BRANCH   3  12
HETATM   12  C3  UNK     1      18.177   5.381  32.278  1.00  0.00     0.052 A 
HETATM   13  C10 UNK     1      19.418   6.200  32.375  1.00  0.00     0.299 A 
HETATM   14  O2  UNK     1      19.283   7.495  32.872  1.00  0.00    -0.274 OA
HETATM   15  O4  UNK     1      20.515   5.770  32.034  1.00  0.00    -0.259 OA
HETATM   16  C9  UNK     1      18.039   8.018  33.269  1.00  0.00     0.089 A 
HETATM   17  C16 UNK     1      18.008   9.324  33.753  1.00  0.00     0.038 A 
HETATM   18  C5  UNK     1      16.888   7.246  33.174  1.00  0.00    -0.001 A 
HETATM   19  C18 UNK     1      16.789   9.868  34.153  1.00  0.00     0.003 A 
HETATM   20  C17 UNK     1      15.622   9.106  34.064  1.00  0.00     0.001 A 
HETATM   21  C15 UNK     1      15.670   7.797  33.576  1.00  0.00     0.014 A 
HETATM   22  C6  UNK     1      16.996   5.891  32.659  1.00  0.00     0.032 A 
ENDBRANCH   3  12
BRANCH   9  23
HETATM   23  O3  UNK     1      18.556  -0.715  34.847  1.00  0.00    -0.356 OA
HETATM   24  C19 UNK     1      17.607  -0.874  35.900  1.00  0.00     0.210 C 
ENDBRANCH   9  23
TORSDOF 2
ENDMDL
MODEL 5
REMARK VINA RESULT:      -8.5      7.412     11.922
REMARK  2 active torsions:
REMARK  status: ('A' for Active; 'I' for Inactive)
REMARK    1  A    between atoms: C12_17  and  O3_3 
REMARK    2  A    between atoms: C1_6  and  C3_8 
ROOT
HETATM    1  O1  UNK     1      19.547  -1.181  34.445  1.00  0.00    -0.275 OA
HETATM    2  O5  UNK     1      20.643  -2.322  32.797  1.00  0.00    -0.260 OA
HETATM    3  C1  UNK     1      19.899  -3.463  36.113  1.00  0.00    -0.001 A 
HETATM    4  C2  UNK     1      19.214  -2.255  36.615  1.00  0.00     0.009 A 
HETATM    5  C4  UNK     1      19.059  -1.158  35.765  1.00  0.00     0.093 A 
HETATM    6  C7  UNK     1      18.705  -2.137  37.917  1.00  0.00     0.018 A 
HETATM    7  C8  UNK     1      20.353  -3.440  34.849  1.00  0.00     0.096 A 
HETATM    8  C11 UNK     1      18.422   0.018  36.169  1.00  0.00     0.075 A 
HETATM    9  C12 UNK     1      17.922   0.111  37.462  1.00  0.00     0.070 A 
HETATM   10  C13 UNK     1      18.064  -0.965  38.335  1.00  0.00     0.038 A 
HETATM   11  C14 UNK     1      20.205  -2.289  33.942  1.00  0.00     0.289 A 
ENDROOT
BRANCH   3  12
HETATM   12  C3  UNK     1      20.109  -4.670  36.887  1.00  0.00     0.052 A 
HETATM   13  C10 UNK     1      19.021  -5.685  36.955  1.00  0.00     0.299 A 
HETATM   14  O2  UNK     1      19.270  -6.829  37.711  1.00  0.00    -0.274 OA
HETATM   15  O4  UNK     1      17.950  -5.537  36.375  1.00  0.00    -0.259 OA
HETATM   16  C9  UNK     1      20.488  -7.030  38.385  1.00  0.00     0.089 A 
HETATM   17  C16 UNK     1      20.640  -8.206  39.116  1.00  0.00     0.038 A 
HETATM   18  C5  UNK     1      21.496  -6.077  38.315  1.00  0.00    -0.001 A 
HETATM   19  C18 UNK     1      21.837  -8.431  39.793  1.00  0.00     0.003 A 
HETATM   20  C17 UNK     1      22.861  -7.484  39.733  1.00  0.00     0.001 A 
HETATM   21  C15 UNK     1      22.693  -6.309  38.996  1.00  0.00     0.014 A 
HETATM   22  C6  UNK     1      21.267  -4.873  37.533  1.00  0.00     0.032 A 
ENDBRANCH   3  12
BRANCH   9  23
HETATM   23  O3  UNK     1      17.299   1.248  37.875  1.00  0.00    -0.356 OA
HETATM   24  C19 UNK     1      16.118   1.633  37.173  1.00  0.00     0.210 C 
ENDBRANCH   9  23
TORSDOF 2
ENDMDL
MODEL 6
REMARK VINA RESULT:      -8.2      2.325      7.226
REMARK  2 active torsions:
REMARK  status: ('A' for Active; 'I' for Inactive)
REMARK    1  A    between atoms: C12_17  and  O3_3 
REMARK    2  A    between atoms: C1_6  and  C3_8 
ROOT
HETATM    1  O1  UNK     1      18.213   9.573  34.154  1.00  0.00    -0.275 OA
HETATM    2  O5  UNK     1      20.433   9.341  34.638  1.00  0.00    -0.260 OA
HETATM    3  C1  UNK     1      18.311   6.987  32.963  1.00  0.00    -0.001 A 
HETATM    4  C2  UNK     1      17.051   7.757  33.003  1.00  0.00     0.009 A 
HETATM    5  C4  UNK     1      17.045   9.022  33.593  1.00  0.00     0.093 A 
HETATM    6  C7  UNK     1      15.838   7.285  32.480  1.00  0.00     0.018 A 
HETATM    7  C8  UNK     1      19.400   7.548  33.514  1.00  0.00     0.096 A 
HETATM    8  C11 UNK     1      15.893   9.808  33.667  1.00  0.00     0.075 A 
HETATM    9  C12 UNK     1      14.703   9.322  33.139  1.00  0.00     0.070 A 
HETATM   10  C13 UNK     1      14.675   8.062  32.546  1.00  0.00     0.038 A 
HETATM   11  C14 UNK     1      19.409   8.878  34.147  1.00  0.00     0.289 A 
ENDROOT
BRANCH   3  12
HETATM   12  C3  UNK     1      18.454   5.674  32.367  1.00  0.00     0.052 A 
HETATM   13  C10 UNK     1      18.766   5.568  30.914  1.00  0.00     0.299 A 
HETATM   14  O2  UNK     1      18.893   4.284  30.387  1.00  0.00    -0.274 OA
HETATM   15  O4  UNK     1      18.909   6.556  30.202  1.00  0.00    -0.259 OA
HETATM   16  C9  UNK     1      18.737   3.131  31.178  1.00  0.00     0.089 A 
HETATM   17  C16 UNK     1      18.883   1.893  30.557  1.00  0.00     0.038 A 
HETATM   18  C5  UNK     1      18.446   3.242  32.532  1.00  0.00    -0.001 A 
HETATM   19  C18 UNK     1      18.734   0.734  31.317  1.00  0.00     0.003 A 
HETATM   20  C17 UNK     1      18.442   0.826  32.680  1.00  0.00     0.001 A 
HETATM   21  C15 UNK     1      18.298   2.076  33.288  1.00  0.00     0.014 A 
HETATM   22  C6  UNK     1      18.308   4.567  33.112  1.00  0.00     0.032 A 
ENDBRANCH   3  12
BRANCH   9  23
HETATM   23  O3  UNK     1      13.570  10.073  33.202  1.00  0.00    -0.356 OA
HETATM   24  C19 UNK     1      13.638  11.398  32.680  1.00  0.00     0.210 C 
ENDBRANCH   9  23
TORSDOF 2
ENDMDL
MODEL 7
REMARK VINA RESULT:      -8.2     23.420     25.663
REMARK  2 active torsions:
REMARK  status: ('A' for Active; 'I' for Inactive)
REMARK    1  A    between atoms: C12_17  and  O3_3 
REMARK    2  A    between atoms: C1_6  and  C3_8 
ROOT
HETATM    1  O1  UNK     1      10.807   6.329   6.037  1.00  0.00    -0.275 OA
HETATM    2  O5  UNK     1       8.929   6.790   4.821  1.00  0.00    -0.260 OA
HETATM    3  C1  UNK     1       9.107   5.787   8.257  1.00  0.00    -0.001 A 
HETATM    4  C2  UNK     1      10.574   5.654   8.374  1.00  0.00     0.009 A 
HETATM    5  C4  UNK     1      11.372   5.933   7.263  1.00  0.00     0.093 A 
HETATM    6  C7  UNK     1      11.225   5.255   9.550  1.00  0.00     0.018 A 
HETATM    7  C8  UNK     1       8.610   6.163   7.068  1.00  0.00     0.096 A 
HETATM    8  C11 UNK     1      12.765   5.831   7.298  1.00  0.00     0.075 A 
HETATM    9  C12 UNK     1      13.389   5.437   8.476  1.00  0.00     0.070 A 
HETATM   10  C13 UNK     1      12.620   5.149   9.601  1.00  0.00     0.038 A 
HETATM   11  C14 UNK     1       9.437   6.453   5.884  1.00  0.00     0.289 A 
ENDROOT
BRANCH   3  12
HETATM   12  C3  UNK     1       8.171   5.544   9.337  1.00  0.00     0.052 A 
HETATM   13  C10 UNK     1       7.839   6.655  10.271  1.00  0.00     0.299 A 
HETATM   14  O2  UNK     1       6.935   6.373  11.293  1.00  0.00    -0.274 OA
HETATM   15  O4  UNK     1       8.329   7.774  10.158  1.00  0.00    -0.259 OA
HETATM   16  C9  UNK     1       6.354   5.102  11.449  1.00  0.00     0.089 A 
HETATM   17  C16 UNK     1       5.461   4.919  12.502  1.00  0.00     0.038 A 
HETATM   18  C5  UNK     1       6.670   4.072  10.571  1.00  0.00    -0.001 A 
HETATM   19  C18 UNK     1       4.871   3.670  12.680  1.00  0.00     0.003 A 
HETATM   20  C17 UNK     1       5.177   2.623  11.807  1.00  0.00     0.001 A 
HETATM   21  C15 UNK     1       6.075   2.822  10.754  1.00  0.00     0.014 A 
HETATM   22  C6  UNK     1       7.610   4.335   9.495  1.00  0.00     0.032 A 
ENDBRANCH   3  12
BRANCH   9  23
HETATM   23  O3  UNK     1      14.744   5.331   8.529  1.00  0.00    -0.356 OA
HETATM   24  C19 UNK     1      15.320   4.998   9.791  1.00  0.00     0.210 C 
ENDBRANCH   9  23
TORSDOF 2
ENDMDL
MODEL 8
REMARK VINA RESULT:      -8.1     22.290     23.877
REMARK  2 active torsions:
REMARK  status: ('A' for Active; 'I' for Inactive)
REMARK    1  A    between atoms: C12_17  and  O3_3 
REMARK    2  A    between atoms: C1_6  and  C3_8 
ROOT
HETATM    1  O1  UNK     1      14.092   4.542   8.726  1.00  0.00    -0.275 OA
HETATM    2  O5  UNK     1      15.928   3.840   9.890  1.00  0.00    -0.260 OA
HETATM    3  C1  UNK     1      14.718   7.197   9.548  1.00  0.00    -0.001 A 
HETATM    4  C2  UNK     1      13.550   6.925   8.687  1.00  0.00     0.009 A 
HETATM    5  C4  UNK     1      13.275   5.609   8.308  1.00  0.00     0.093 A 
HETATM    6  C7  UNK     1      12.687   7.924   8.213  1.00  0.00     0.018 A 
HETATM    7  C8  UNK     1      15.473   6.150   9.920  1.00  0.00     0.096 A 
HETATM    8  C11 UNK     1      12.189   5.275   7.496  1.00  0.00     0.075 A 
HETATM    9  C12 UNK     1      11.345   6.281   7.042  1.00  0.00     0.070 A 
HETATM   10  C13 UNK     1      11.594   7.605   7.399  1.00  0.00     0.038 A 
HETATM   11  C14 UNK     1      15.203   4.757   9.523  1.00  0.00     0.289 A 
ENDROOT
BRANCH   3  12
HETATM   12  C3  UNK     1      15.102   8.511  10.023  1.00  0.00     0.052 A 
HETATM   13  C10 UNK     1      14.298   9.155  11.099  1.00  0.00     0.299 A 
HETATM   14  O2  UNK     1      14.705  10.419  11.522  1.00  0.00    -0.274 OA
HETATM   15  O4  UNK     1      13.320   8.611  11.601  1.00  0.00    -0.259 OA
HETATM   16  C9  UNK     1      15.822  11.070  10.968  1.00  0.00     0.089 A 
HETATM   17  C16 UNK     1      16.149  12.332  11.458  1.00  0.00     0.038 A 
HETATM   18  C5  UNK     1      16.566  10.460   9.965  1.00  0.00    -0.001 A 
HETATM   19  C18 UNK     1      17.251  13.000  10.927  1.00  0.00     0.003 A 
HETATM   20  C17 UNK     1      18.010  12.401   9.919  1.00  0.00     0.001 A 
HETATM   21  C15 UNK     1      17.669  11.134   9.438  1.00  0.00     0.014 A 
HETATM   22  C6  UNK     1      16.166   9.141   9.503  1.00  0.00     0.032 A 
ENDBRANCH   3  12
BRANCH   9  23
HETATM   23  O3  UNK     1      10.282   5.977   6.250  1.00  0.00    -0.356 OA
HETATM   24  C19 UNK     1       8.982   6.152   6.810  1.00  0.00     0.210 C 
ENDBRANCH   9  23
TORSDOF 2
ENDMDL
MODEL 9
REMARK VINA RESULT:      -8.1     22.871     25.187
REMARK  2 active torsions:
REMARK  status: ('A' for Active; 'I' for Inactive)
REMARK    1  A    between atoms: C12_17  and  O3_3 
REMARK    2  A    between atoms: C1_6  and  C3_8 
ROOT
HETATM    1  O1  UNK     1      16.482   6.055   9.992  1.00  0.00    -0.275 OA
HETATM    2  O5  UNK     1      16.105   3.805   9.879  1.00  0.00    -0.260 OA
HETATM    3  C1  UNK     1      13.897   6.438   8.857  1.00  0.00    -0.001 A 
HETATM    4  C2  UNK     1      14.747   7.591   9.215  1.00  0.00     0.009 A 
HETATM    5  C4  UNK     1      16.010   7.361   9.766  1.00  0.00     0.093 A 
HETATM    6  C7  UNK     1      14.357   8.927   9.037  1.00  0.00     0.018 A 
HETATM    7  C8  UNK     1      14.385   5.209   9.094  1.00  0.00     0.096 A 
HETATM    8  C11 UNK     1      16.869   8.401  10.128  1.00  0.00     0.075 A 
HETATM    9  C12 UNK     1      16.463   9.716   9.938  1.00  0.00     0.070 A 
HETATM   10  C13 UNK     1      15.208   9.979   9.394  1.00  0.00     0.038 A 
HETATM   11  C14 UNK     1      15.711   4.949   9.682  1.00  0.00     0.289 A 
ENDROOT
BRANCH   3  12
HETATM   12  C3  UNK     1      12.578   6.541   8.266  1.00  0.00     0.052 A 
HETATM   13  C10 UNK     1      12.451   6.578   6.782  1.00  0.00     0.299 A 
HETATM   14  O2  UNK     1      11.163   6.678   6.260  1.00  0.00    -0.274 OA
HETATM   15  O4  UNK     1      13.426   6.523   6.040  1.00  0.00    -0.259 OA
HETATM   16  C9  UNK     1      10.025   6.741   7.084  1.00  0.00     0.089 A 
HETATM   17  C16 UNK     1       8.780   6.840   6.466  1.00  0.00     0.038 A 
HETATM   18  C5  UNK     1      10.154   6.705   8.467  1.00  0.00    -0.001 A 
HETATM   19  C18 UNK     1       7.635   6.905   7.258  1.00  0.00     0.003 A 
HETATM   20  C17 UNK     1       7.747   6.869   8.650  1.00  0.00     0.001 A 
HETATM   21  C15 UNK     1       9.003   6.769   9.255  1.00  0.00     0.014 A 
HETATM   22  C6  UNK     1      11.485   6.601   9.041  1.00  0.00     0.032 A 
ENDBRANCH   3  12
BRANCH   9  23
HETATM   23  O3  UNK     1      17.286  10.743  10.285  1.00  0.00    -0.356 OA
HETATM   24  C19 UNK     1      17.202  11.934   9.505  1.00  0.00     0.210 C 
ENDBRANCH   9  23
TORSDOF 2
ENDMDL
MODEL 10
REMARK VINA RESULT:      -8.1     15.997     19.615
REMARK  2 active torsions:
REMARK  status: ('A' for Active; 'I' for Inactive)
REMARK    1  A    between atoms: C12_17  and  O3_3 
REMARK    2  A    between atoms: C1_6  and  C3_8 
ROOT
HETATM    1  O1  UNK     1      35.853  -7.203  30.649  1.00  0.00    -0.275 OA
HETATM    2  O5  UNK     1      35.810  -7.657  28.410  1.00  0.00    -0.260 OA
HETATM    3  C1  UNK     1      33.039  -7.642  30.684  1.00  0.00    -0.001 A 
HETATM    4  C2  UNK     1      33.768  -7.294  31.920  1.00  0.00     0.009 A 
HETATM    5  C4  UNK     1      35.148  -7.083  31.860  1.00  0.00     0.093 A 
HETATM    6  C7  UNK     1      33.152  -7.163  33.173  1.00  0.00     0.018 A 
HETATM    7  C8  UNK     1      33.753  -7.751  29.551  1.00  0.00     0.096 A 
HETATM    8  C11 UNK     1      35.904  -6.750  32.986  1.00  0.00     0.075 A 
HETATM    9  C12 UNK     1      35.270  -6.622  34.217  1.00  0.00     0.070 A 
HETATM   10  C13 UNK     1      33.896  -6.828  34.310  1.00  0.00     0.038 A 
HETATM   11  C14 UNK     1      35.209  -7.541  29.472  1.00  0.00     0.289 A 
ENDROOT
BRANCH   3  12
HETATM   12  C3  UNK     1      31.610  -7.870  30.609  1.00  0.00     0.052 A 
HETATM   13  C10 UNK     1      31.094  -9.266  30.673  1.00  0.00     0.299 A 
HETATM   14  O2  UNK     1      29.713  -9.433  30.596  1.00  0.00    -0.274 OA
HETATM   15  O4  UNK     1      31.839 -10.233  30.791  1.00  0.00    -0.259 OA
HETATM   16  C9  UNK     1      28.833  -8.345  30.463  1.00  0.00     0.089 A 
HETATM   17  C16 UNK     1      27.468  -8.616  30.394  1.00  0.00     0.038 A 
HETATM   18  C5  UNK     1      29.324  -7.046  30.404  1.00  0.00    -0.001 A 
HETATM   19  C18 UNK     1      26.574  -7.556  30.262  1.00  0.00     0.003 A 
HETATM   20  C17 UNK     1      27.050  -6.245  30.202  1.00  0.00     0.001 A 
HETATM   21  C15 UNK     1      28.422  -5.988  30.272  1.00  0.00     0.014 A 
HETATM   22  C6  UNK     1      30.761  -6.838  30.482  1.00  0.00     0.032 A 
ENDBRANCH   3  12
BRANCH   9  23
HETATM   23  O3  UNK     1      35.989  -6.298  35.326  1.00  0.00    -0.356 OA
HETATM   24  C19 UNK     1      35.265  -5.792  36.445  1.00  0.00     0.210 C 
ENDBRANCH   9  23
TORSDOF 2
ENDMDL
