MODEL 1
REMARK VINA RESULT:     -10.0      0.000      0.000
REMARK  6 active torsions:
REMARK  status: ('A' for Active; 'I' for Inactive)
REMARK    1  A    between atoms: C1_6  and  O1_3 
REMARK    2  A    between atoms: C3_8  and  O1_3 
REMARK    3  A    between atoms: C1_6  and  C2_7 
REMARK    4  A    between atoms: C11_16  and  C4_9 
REMARK    5  A    between atoms: C12_17  and  C16_21 
REMARK    6  A    between atoms: C13_18  and  C16_21 
ROOT
HETATM    1  N1  UNK     1      17.844   2.090  32.897  1.00  0.00    -0.191 NA
HETATM    2  C11 UNK     1      18.777   4.404  30.439  1.00  0.00     0.038 C 
HETATM    3  C12 UNK     1      18.458   3.095  30.594  1.00  0.00     0.096 C 
HETATM    4  C23 UNK     1      18.117   2.542  31.865  1.00  0.00     0.103 C 
ENDROOT
BRANCH   3   5
HETATM    5  C16 UNK     1      18.546   2.226  29.375  1.00  0.00     0.202 C 
HETATM    6  O2  UNK     1      18.053   2.545  28.297  1.00  0.00    -0.286 OA
BRANCH   5   7
HETATM    7  C13 UNK     1      19.276   0.944  29.472  1.00  0.00     0.015 A 
HETATM    8  C18 UNK     1      19.998   0.664  30.617  1.00  0.00     0.015 A 
HETATM    9  C20 UNK     1      20.686  -0.546  30.707  1.00  0.00     0.001 A 
HETATM   10  C22 UNK     1      20.641  -1.455  29.650  1.00  0.00     0.000 A 
HETATM   11  C21 UNK     1      19.906  -1.154  28.502  1.00  0.00     0.001 A 
HETATM   12  C19 UNK     1      19.217   0.056  28.413  1.00  0.00     0.015 A 
ENDBRANCH   5   7
ENDBRANCH   3   5
BRANCH   2  13
HETATM   13  C4  UNK     1      18.821   5.407  31.490  1.00  0.00    -0.035 A 
HETATM   14  C7  UNK     1      20.048   5.909  31.925  1.00  0.00     0.014 A 
HETATM   15  C5  UNK     1      20.090   6.870  32.934  1.00  0.00     0.037 A 
HETATM   16  C3  UNK     1      18.905   7.330  33.509  1.00  0.00     0.069 A 
HETATM   17  C6  UNK     1      17.679   6.829  33.075  1.00  0.00     0.037 A 
HETATM   18  C8  UNK     1      17.636   5.867  32.065  1.00  0.00     0.014 A 
BRANCH  16  19
HETATM   19  O1  UNK     1      18.947   8.268  34.495  1.00  0.00    -0.347 OA
BRANCH  19  20
HETATM   20  C1  UNK     1      19.424   9.564  34.137  1.00  0.00     0.214 C 
BRANCH  20  21
HETATM   21  C2  UNK     1      18.271  10.524  34.128  1.00  0.00    -0.032 A 
HETATM   22  C10 UNK     1      18.514  11.890  34.030  1.00  0.00     0.011 A 
HETATM   23  C15 UNK     1      17.443  12.783  34.023  1.00  0.00     0.026 A 
HETATM   24  C17 UNK     1      16.135  12.305  34.113  1.00  0.00     0.055 A 
HETATM   25  C14 UNK     1      15.899  10.934  34.211  1.00  0.00     0.056 A 
HETATM   26 Cl2  UNK     1      14.851  13.462  34.097  1.00  0.00    -0.083 Cl
HETATM   27 Cl1  UNK     1      14.303  10.281  34.327  1.00  0.00    -0.083 Cl
HETATM   28  C9  UNK     1      16.971  10.041  34.219  1.00  0.00     0.035 A 
ENDBRANCH  20  21
ENDBRANCH  19  20
ENDBRANCH  16  19
ENDBRANCH   2  13
TORSDOF 6
ENDMDL
MODEL 2
REMARK VINA RESULT:      -9.7      4.209     10.186
REMARK  6 active torsions:
REMARK  status: ('A' for Active; 'I' for Inactive)
REMARK    1  A    between atoms: C1_6  and  O1_3 
REMARK    2  A    between atoms: C3_8  and  O1_3 
REMARK    3  A    between atoms: C1_6  and  C2_7 
REMARK    4  A    between atoms: C11_16  and  C4_9 
REMARK    5  A    between atoms: C12_17  and  C16_21 
REMARK    6  A    between atoms: C13_18  and  C16_21 
ROOT
HETATM    1  N1  UNK     1      14.026   6.714  31.849  1.00  0.00    -0.191 NA
HETATM    2  C11 UNK     1      17.144   7.637  33.152  1.00  0.00     0.038 C 
HETATM    3  C12 UNK     1      15.833   7.981  33.199  1.00  0.00     0.096 C 
HETATM    4  C23 UNK     1      14.837   7.281  32.455  1.00  0.00     0.103 C 
ENDROOT
BRANCH   3   5
HETATM    5  C16 UNK     1      15.477   9.186  34.018  1.00  0.00     0.202 C 
HETATM    6  O2  UNK     1      14.456   9.248  34.695  1.00  0.00    -0.286 OA
BRANCH   5   7
HETATM    7  C13 UNK     1      16.407  10.335  34.026  1.00  0.00     0.015 A 
HETATM    8  C18 UNK     1      15.892  11.619  34.038  1.00  0.00     0.015 A 
HETATM    9  C20 UNK     1      16.769  12.703  34.046  1.00  0.00     0.001 A 
HETATM   10  C22 UNK     1      18.147  12.486  34.041  1.00  0.00     0.000 A 
HETATM   11  C21 UNK     1      18.647  11.183  34.030  1.00  0.00     0.001 A 
HETATM   12  C19 UNK     1      17.769  10.098  34.022  1.00  0.00     0.015 A 
ENDBRANCH   5   7
ENDBRANCH   3   5
BRANCH   2  13
HETATM   13  C4  UNK     1      17.718   6.551  32.375  1.00  0.00    -0.035 A 
HETATM   14  C7  UNK     1      18.229   6.798  31.100  1.00  0.00     0.014 A 
HETATM   15  C5  UNK     1      18.778   5.756  30.355  1.00  0.00     0.037 A 
HETATM   16  C3  UNK     1      18.818   4.466  30.883  1.00  0.00     0.069 A 
HETATM   17  C6  UNK     1      18.308   4.218  32.157  1.00  0.00     0.037 A 
HETATM   18  C8  UNK     1      17.758   5.260  32.903  1.00  0.00     0.014 A 
BRANCH  16  19
HETATM   19  O1  UNK     1      19.355   3.448  30.155  1.00  0.00    -0.347 OA
BRANCH  19  20
HETATM   20  C1  UNK     1      18.459   2.441  29.687  1.00  0.00     0.214 C 
BRANCH  20  21
HETATM   21  C2  UNK     1      19.045   1.091  29.979  1.00  0.00    -0.032 A 
HETATM   22  C10 UNK     1      19.690   0.389  28.968  1.00  0.00     0.011 A 
HETATM   23  C15 UNK     1      20.235  -0.867  29.238  1.00  0.00     0.026 A 
HETATM   24  C17 UNK     1      20.129  -1.411  30.518  1.00  0.00     0.055 A 
HETATM   25  C14 UNK     1      19.480  -0.701  31.528  1.00  0.00     0.056 A 
HETATM   26 Cl2  UNK     1      20.825  -2.970  30.790  1.00  0.00    -0.083 Cl
HETATM   27 Cl1  UNK     1      19.316  -1.323  33.132  1.00  0.00    -0.083 Cl
HETATM   28  C9  UNK     1      18.935   0.554  31.256  1.00  0.00     0.035 A 
ENDBRANCH  20  21
ENDBRANCH  19  20
ENDBRANCH  16  19
ENDBRANCH   2  13
TORSDOF 6
ENDMDL
MODEL 3
REMARK VINA RESULT:      -9.4      4.424     10.627
REMARK  6 active torsions:
REMARK  status: ('A' for Active; 'I' for Inactive)
REMARK    1  A    between atoms: C1_6  and  O1_3 
REMARK    2  A    between atoms: C3_8  and  O1_3 
REMARK    3  A    between atoms: C1_6  and  C2_7 
REMARK    4  A    between atoms: C11_16  and  C4_9 
REMARK    5  A    between atoms: C12_17  and  C16_21 
REMARK    6  A    between atoms: C13_18  and  C16_21 
ROOT
HETATM    1  N1  UNK     1      15.760   8.319  31.238  1.00  0.00    -0.191 NA
HETATM    2  C11 UNK     1      18.338   7.517  33.470  1.00  0.00     0.038 C 
HETATM    3  C12 UNK     1      17.542   8.550  33.100  1.00  0.00     0.096 C 
HETATM    4  C23 UNK     1      16.558   8.421  32.074  1.00  0.00     0.103 C 
ENDROOT
BRANCH   3   5
HETATM    5  C16 UNK     1      17.786   9.869  33.770  1.00  0.00     0.202 C 
HETATM    6  O2  UNK     1      18.905  10.363  33.872  1.00  0.00    -0.286 OA
BRANCH   5   7
HETATM    7  C13 UNK     1      16.629  10.614  34.310  1.00  0.00     0.015 A 
HETATM    8  C18 UNK     1      16.521  11.969  34.055  1.00  0.00     0.015 A 
HETATM    9  C20 UNK     1      15.429  12.671  34.564  1.00  0.00     0.001 A 
HETATM   10  C22 UNK     1      14.464  12.007  35.321  1.00  0.00     0.000 A 
HETATM   11  C21 UNK     1      14.590  10.639  35.567  1.00  0.00     0.001 A 
HETATM   12  C19 UNK     1      15.683   9.937  35.057  1.00  0.00     0.015 A 
ENDBRANCH   5   7
ENDBRANCH   3   5
BRANCH   2  13
HETATM   13  C4  UNK     1      18.319   6.176  32.910  1.00  0.00    -0.035 A 
HETATM   14  C7  UNK     1      18.038   5.081  33.728  1.00  0.00     0.014 A 
HETATM   15  C5  UNK     1      18.022   3.794  33.190  1.00  0.00     0.037 A 
HETATM   16  C3  UNK     1      18.287   3.602  31.834  1.00  0.00     0.069 A 
HETATM   17  C6  UNK     1      18.568   4.695  31.016  1.00  0.00     0.037 A 
HETATM   18  C8  UNK     1      18.585   5.983  31.553  1.00  0.00     0.014 A 
BRANCH  16  19
HETATM   19  O1  UNK     1      18.271   2.346  31.309  1.00  0.00    -0.347 OA
BRANCH  19  20
HETATM   20  C1  UNK     1      19.087   2.110  30.163  1.00  0.00     0.214 C 
BRANCH  20  21
HETATM   21  C2  UNK     1      19.605   0.703  30.212  1.00  0.00    -0.032 A 
HETATM   22  C10 UNK     1      20.135   0.125  29.064  1.00  0.00     0.011 A 
HETATM   23  C15 UNK     1      20.616  -1.184  29.108  1.00  0.00     0.026 A 
HETATM   24  C17 UNK     1      20.563  -1.906  30.301  1.00  0.00     0.055 A 
HETATM   25  C14 UNK     1      20.029  -1.320  31.448  1.00  0.00     0.056 A 
HETATM   26 Cl2  UNK     1      21.175  -3.523  30.292  1.00  0.00    -0.083 Cl
HETATM   27 Cl1  UNK     1      19.935  -2.164  32.954  1.00  0.00    -0.083 Cl
HETATM   28  C9  UNK     1      19.548  -0.012  31.403  1.00  0.00     0.035 A 
ENDBRANCH  20  21
ENDBRANCH  19  20
ENDBRANCH  16  19
ENDBRANCH   2  13
TORSDOF 6
ENDMDL
MODEL 4
REMARK VINA RESULT:      -9.4      7.039     11.751
REMARK  6 active torsions:
REMARK  status: ('A' for Active; 'I' for Inactive)
REMARK    1  A    between atoms: C1_6  and  O1_3 
REMARK    2  A    between atoms: C3_8  and  O1_3 
REMARK    3  A    between atoms: C1_6  and  C2_7 
REMARK    4  A    between atoms: C11_16  and  C4_9 
REMARK    5  A    between atoms: C12_17  and  C16_21 
REMARK    6  A    between atoms: C13_18  and  C16_21 
ROOT
HETATM    1  N1  UNK     1      20.192  -0.630  28.445  1.00  0.00    -0.191 NA
HETATM    2  C11 UNK     1      18.854   0.935  31.279  1.00  0.00     0.038 C 
HETATM    3  C12 UNK     1      19.014   1.117  29.945  1.00  0.00     0.096 C 
HETATM    4  C23 UNK     1      19.662   0.152  29.119  1.00  0.00     0.103 C 
ENDROOT
BRANCH   3   5
HETATM    5  C16 UNK     1      18.540   2.422  29.378  1.00  0.00     0.202 C 
HETATM    6  O2  UNK     1      18.049   2.518  28.258  1.00  0.00    -0.286 OA
BRANCH   5   7
HETATM    7  C13 UNK     1      18.650   3.638  30.212  1.00  0.00     0.015 A 
HETATM    8  C18 UNK     1      19.289   4.752  29.699  1.00  0.00     0.015 A 
HETATM    9  C20 UNK     1      19.391   5.899  30.486  1.00  0.00     0.001 A 
HETATM   10  C22 UNK     1      18.855   5.912  31.774  1.00  0.00     0.000 A 
HETATM   11  C21 UNK     1      18.214   4.777  32.274  1.00  0.00     0.001 A 
HETATM   12  C19 UNK     1      18.111   3.630  31.485  1.00  0.00     0.015 A 
ENDBRANCH   5   7
ENDBRANCH   3   5
BRANCH   2  13
HETATM   13  C4  UNK     1      19.294  -0.219  32.046  1.00  0.00    -0.035 A 
HETATM   14  C7  UNK     1      20.328  -1.024  31.566  1.00  0.00     0.014 A 
HETATM   15  C5  UNK     1      20.749  -2.131  32.301  1.00  0.00     0.037 A 
HETATM   16  C3  UNK     1      20.137  -2.435  33.517  1.00  0.00     0.069 A 
HETATM   17  C6  UNK     1      19.104  -1.631  33.997  1.00  0.00     0.037 A 
HETATM   18  C8  UNK     1      18.682  -0.523  33.262  1.00  0.00     0.014 A 
BRANCH  16  19
HETATM   19  O1  UNK     1      20.549  -3.516  34.234  1.00  0.00    -0.347 OA
BRANCH  19  20
HETATM   20  C1  UNK     1      20.193  -3.553  35.615  1.00  0.00     0.214 C 
BRANCH  20  21
HETATM   21  C2  UNK     1      20.057  -4.983  36.048  1.00  0.00    -0.032 A 
HETATM   22  C10 UNK     1      19.915  -5.981  35.090  1.00  0.00     0.011 A 
HETATM   23  C15 UNK     1      19.788  -7.311  35.491  1.00  0.00     0.026 A 
HETATM   24  C17 UNK     1      19.804  -7.634  36.848  1.00  0.00     0.055 A 
HETATM   25  C14 UNK     1      19.947  -6.628  37.803  1.00  0.00     0.056 A 
HETATM   26 Cl2  UNK     1      19.643  -9.300  37.281  1.00  0.00    -0.083 Cl
HETATM   27 Cl1  UNK     1      19.972  -6.965  39.498  1.00  0.00    -0.083 Cl
HETATM   28  C9  UNK     1      20.073  -5.298  37.401  1.00  0.00     0.035 A 
ENDBRANCH  20  21
ENDBRANCH  19  20
ENDBRANCH  16  19
ENDBRANCH   2  13
TORSDOF 6
ENDMDL
MODEL 5
REMARK VINA RESULT:      -9.3     16.461     18.220
REMARK  6 active torsions:
REMARK  status: ('A' for Active; 'I' for Inactive)
REMARK    1  A    between atoms: C1_6  and  O1_3 
REMARK    2  A    between atoms: C3_8  and  O1_3 
REMARK    3  A    between atoms: C1_6  and  C2_7 
REMARK    4  A    between atoms: C11_16  and  C4_9 
REMARK    5  A    between atoms: C12_17  and  C16_21 
REMARK    6  A    between atoms: C13_18  and  C16_21 
ROOT
HETATM    1  N1  UNK     1      24.738 -12.729  35.771  1.00  0.00    -0.191 NA
HETATM    2  C11 UNK     1      23.938  -9.425  36.616  1.00  0.00     0.038 C 
HETATM    3  C12 UNK     1      23.406 -10.526  36.030  1.00  0.00     0.096 C 
HETATM    4  C23 UNK     1      24.141 -11.741  35.889  1.00  0.00     0.103 C 
ENDROOT
BRANCH   3   5
HETATM    5  C16 UNK     1      22.024 -10.393  35.465  1.00  0.00     0.202 C 
HETATM    6  O2  UNK     1      21.773 -10.574  34.277  1.00  0.00    -0.286 OA
BRANCH   5   7
HETATM    7  C13 UNK     1      20.914 -10.053  36.381  1.00  0.00     0.015 A 
HETATM    8  C18 UNK     1      20.557 -10.950  37.370  1.00  0.00     0.015 A 
HETATM    9  C20 UNK     1      19.511 -10.628  38.234  1.00  0.00     0.001 A 
HETATM   10  C22 UNK     1      18.838  -9.414  38.094  1.00  0.00     0.000 A 
HETATM   11  C21 UNK     1      19.214  -8.521  37.090  1.00  0.00     0.001 A 
HETATM   12  C19 UNK     1      20.262  -8.843  36.226  1.00  0.00     0.015 A 
ENDBRANCH   5   7
ENDBRANCH   3   5
BRANCH   2  13
HETATM   13  C4  UNK     1      25.276  -9.309  37.169  1.00  0.00    -0.035 A 
HETATM   14  C7  UNK     1      25.461  -8.777  38.446  1.00  0.00     0.014 A 
HETATM   15  C5  UNK     1      26.746  -8.665  38.975  1.00  0.00     0.037 A 
HETATM   16  C3  UNK     1      27.847  -9.085  38.230  1.00  0.00     0.069 A 
HETATM   17  C6  UNK     1      27.663  -9.618  36.954  1.00  0.00     0.037 A 
HETATM   18  C8  UNK     1      26.378  -9.730  36.423  1.00  0.00     0.014 A 
BRANCH  16  19
HETATM   19  O1  UNK     1      29.102  -8.976  38.748  1.00  0.00    -0.347 OA
BRANCH  19  20
HETATM   20  C1  UNK     1      30.180  -8.865  37.820  1.00  0.00     0.214 C 
BRANCH  20  21
HETATM   21  C2  UNK     1      30.479  -7.413  37.589  1.00  0.00    -0.032 A 
HETATM   22  C10 UNK     1      31.238  -7.034  36.487  1.00  0.00     0.011 A 
HETATM   23  C15 UNK     1      31.517  -5.685  36.272  1.00  0.00     0.026 A 
HETATM   24  C17 UNK     1      31.036  -4.723  37.161  1.00  0.00     0.055 A 
HETATM   25  C14 UNK     1      30.276  -5.111  38.264  1.00  0.00     0.056 A 
HETATM   26 Cl2  UNK     1      31.415  -3.067  36.839  1.00  0.00    -0.083 Cl
HETATM   27 Cl1  UNK     1      29.654  -3.966  39.401  1.00  0.00    -0.083 Cl
HETATM   28  C9  UNK     1      29.998  -6.460  38.479  1.00  0.00     0.035 A 
ENDBRANCH  20  21
ENDBRANCH  19  20
ENDBRANCH  16  19
ENDBRANCH   2  13
TORSDOF 6
ENDMDL
MODEL 6
REMARK VINA RESULT:      -9.3      7.403     11.591
REMARK  6 active torsions:
REMARK  status: ('A' for Active; 'I' for Inactive)
REMARK    1  A    between atoms: C1_6  and  O1_3 
REMARK    2  A    between atoms: C3_8  and  O1_3 
REMARK    3  A    between atoms: C1_6  and  C2_7 
REMARK    4  A    between atoms: C11_16  and  C4_9 
REMARK    5  A    between atoms: C12_17  and  C16_21 
REMARK    6  A    between atoms: C13_18  and  C16_21 
ROOT
HETATM    1  N1  UNK     1      20.769  -0.075  30.958  1.00  0.00    -0.191 NA
HETATM    2  C11 UNK     1      18.110   1.273  32.797  1.00  0.00     0.038 C 
HETATM    3  C12 UNK     1      18.733   1.387  31.598  1.00  0.00     0.096 C 
HETATM    4  C23 UNK     1      19.855   0.579  31.246  1.00  0.00     0.103 C 
ENDROOT
BRANCH   3   5
HETATM    5  C16 UNK     1      18.234   2.457  30.674  1.00  0.00     0.202 C 
HETATM    6  O2  UNK     1      17.551   2.212  29.684  1.00  0.00    -0.286 OA
BRANCH   5   7
HETATM    7  C13 UNK     1      18.560   3.866  30.981  1.00  0.00     0.015 A 
HETATM    8  C18 UNK     1      19.231   4.624  30.038  1.00  0.00     0.015 A 
HETATM    9  C20 UNK     1      19.537   5.953  30.329  1.00  0.00     0.001 A 
HETATM   10  C22 UNK     1      19.170   6.502  31.558  1.00  0.00     0.000 A 
HETATM   11  C21 UNK     1      18.494   5.720  32.496  1.00  0.00     0.001 A 
HETATM   12  C19 UNK     1      18.187   4.391  32.205  1.00  0.00     0.015 A 
ENDBRANCH   5   7
ENDBRANCH   3   5
BRANCH   2  13
HETATM   13  C4  UNK     1      18.466   0.354  33.865  1.00  0.00    -0.035 A 
HETATM   14  C7  UNK     1      18.564   0.813  35.179  1.00  0.00     0.014 A 
HETATM   15  C5  UNK     1      18.907  -0.069  36.203  1.00  0.00     0.037 A 
HETATM   16  C3  UNK     1      19.153  -1.411  35.914  1.00  0.00     0.069 A 
HETATM   17  C6  UNK     1      19.056  -1.871  34.602  1.00  0.00     0.037 A 
HETATM   18  C8  UNK     1      18.713  -0.989  33.576  1.00  0.00     0.014 A 
BRANCH  16  19
HETATM   19  O1  UNK     1      19.489  -2.272  36.914  1.00  0.00    -0.347 OA
BRANCH  19  20
HETATM   20  C1  UNK     1      20.603  -3.132  36.684  1.00  0.00     0.214 C 
BRANCH  20  21
HETATM   21  C2  UNK     1      20.242  -4.525  37.110  1.00  0.00    -0.032 A 
HETATM   22  C10 UNK     1      19.117  -5.139  36.572  1.00  0.00     0.011 A 
HETATM   23  C15 UNK     1      18.780  -6.433  36.968  1.00  0.00     0.026 A 
HETATM   24  C17 UNK     1      19.572  -7.105  37.900  1.00  0.00     0.055 A 
HETATM   25  C14 UNK     1      20.700  -6.483  38.436  1.00  0.00     0.056 A 
HETATM   26 Cl2  UNK     1      19.104  -8.707  38.349  1.00  0.00    -0.083 Cl
HETATM   27 Cl1  UNK     1      21.718  -7.263  39.594  1.00  0.00    -0.083 Cl
HETATM   28  C9  UNK     1      21.035  -5.188  38.040  1.00  0.00     0.035 A 
ENDBRANCH  20  21
ENDBRANCH  19  20
ENDBRANCH  16  19
ENDBRANCH   2  13
TORSDOF 6
ENDMDL
MODEL 7
REMARK VINA RESULT:      -9.3     23.449     25.176
REMARK  6 active torsions:
REMARK  status: ('A' for Active; 'I' for Inactive)
REMARK    1  A    between atoms: C1_6  and  O1_3 
REMARK    2  A    between atoms: C3_8  and  O1_3 
REMARK    3  A    between atoms: C1_6  and  C2_7 
REMARK    4  A    between atoms: C11_16  and  C4_9 
REMARK    5  A    between atoms: C12_17  and  C16_21 
REMARK    6  A    between atoms: C13_18  and  C16_21 
ROOT
HETATM    1  N1  UNK     1      15.698   5.028   9.066  1.00  0.00    -0.191 NA
HETATM    2  C11 UNK     1      13.657   7.839   9.514  1.00  0.00     0.038 C 
HETATM    3  C12 UNK     1      13.594   6.487   9.430  1.00  0.00     0.096 C 
HETATM    4  C23 UNK     1      14.755   5.683   9.231  1.00  0.00     0.103 C 
ENDROOT
BRANCH   3   5
HETATM    5  C16 UNK     1      12.229   5.868   9.484  1.00  0.00     0.202 C 
HETATM    6  O2  UNK     1      11.808   5.278  10.474  1.00  0.00    -0.286 OA
BRANCH   5   7
HETATM    7  C13 UNK     1      11.347   5.994   8.303  1.00  0.00     0.015 A 
HETATM    8  C18 UNK     1      11.910   6.008   7.040  1.00  0.00     0.015 A 
HETATM    9  C20 UNK     1      11.078   6.126   5.927  1.00  0.00     0.001 A 
HETATM   10  C22 UNK     1       9.697   6.230   6.096  1.00  0.00     0.000 A 
HETATM   11  C21 UNK     1       9.148   6.213   7.379  1.00  0.00     0.001 A 
HETATM   12  C19 UNK     1       9.981   6.094   8.493  1.00  0.00     0.015 A 
ENDBRANCH   5   7
ENDBRANCH   3   5
BRANCH   2  13
HETATM   13  C4  UNK     1      14.861   8.649   9.421  1.00  0.00    -0.035 A 
HETATM   14  C7  UNK     1      15.948   8.382  10.253  1.00  0.00     0.014 A 
HETATM   15  C5  UNK     1      17.102   9.160  10.164  1.00  0.00     0.037 A 
HETATM   16  C3  UNK     1      17.169  10.205   9.242  1.00  0.00     0.069 A 
HETATM   17  C6  UNK     1      16.083  10.472   8.410  1.00  0.00     0.037 A 
HETATM   18  C8  UNK     1      14.928   9.694   8.499  1.00  0.00     0.014 A 
BRANCH  16  19
HETATM   19  O1  UNK     1      18.296  10.964   9.156  1.00  0.00    -0.347 OA
BRANCH  19  20
HETATM   20  C1  UNK     1      18.122  12.363   8.938  1.00  0.00     0.214 C 
BRANCH  20  21
HETATM   21  C2  UNK     1      18.883  12.766   7.709  1.00  0.00    -0.032 A 
HETATM   22  C10 UNK     1      18.322  12.560   6.454  1.00  0.00     0.011 A 
HETATM   23  C15 UNK     1      19.029  12.934   5.312  1.00  0.00     0.026 A 
HETATM   24  C17 UNK     1      20.294  13.511   5.432  1.00  0.00     0.055 A 
HETATM   25  C14 UNK     1      20.850  13.715   6.695  1.00  0.00     0.056 A 
HETATM   26 Cl2  UNK     1      21.119  13.954   3.979  1.00  0.00    -0.083 Cl
HETATM   27 Cl1  UNK     1      22.412  14.424   6.909  1.00  0.00    -0.083 Cl
HETATM   28  C9  UNK     1      20.143  13.340   7.837  1.00  0.00     0.035 A 
ENDBRANCH  20  21
ENDBRANCH  19  20
ENDBRANCH  16  19
ENDBRANCH   2  13
TORSDOF 6
ENDMDL
MODEL 8
REMARK VINA RESULT:      -9.2      2.083      3.008
REMARK  6 active torsions:
REMARK  status: ('A' for Active; 'I' for Inactive)
REMARK    1  A    between atoms: C1_6  and  O1_3 
REMARK    2  A    between atoms: C3_8  and  O1_3 
REMARK    3  A    between atoms: C1_6  and  C2_7 
REMARK    4  A    between atoms: C11_16  and  C4_9 
REMARK    5  A    between atoms: C12_17  and  C16_21 
REMARK    6  A    between atoms: C13_18  and  C16_21 
ROOT
HETATM    1  N1  UNK     1      19.437   5.291  29.911  1.00  0.00    -0.191 NA
HETATM    2  C11 UNK     1      18.026   4.843  33.085  1.00  0.00     0.038 C 
HETATM    3  C12 UNK     1      18.430   4.141  31.997  1.00  0.00     0.096 C 
HETATM    4  C23 UNK     1      18.987   4.776  30.848  1.00  0.00     0.103 C 
ENDROOT
BRANCH   3   5
HETATM    5  C16 UNK     1      18.199   2.660  32.022  1.00  0.00     0.202 C 
HETATM    6  O2  UNK     1      17.703   2.082  32.985  1.00  0.00    -0.286 OA
BRANCH   5   7
HETATM    7  C13 UNK     1      18.563   1.867  30.829  1.00  0.00     0.015 A 
HETATM    8  C18 UNK     1      17.869   2.065  29.649  1.00  0.00     0.015 A 
HETATM    9  C20 UNK     1      18.213   1.317  28.524  1.00  0.00     0.001 A 
HETATM   10  C22 UNK     1      19.245   0.381  28.597  1.00  0.00     0.000 A 
HETATM   11  C21 UNK     1      19.934   0.195  29.796  1.00  0.00     0.001 A 
HETATM   12  C19 UNK     1      19.590   0.945  30.922  1.00  0.00     0.015 A 
ENDBRANCH   5   7
ENDBRANCH   3   5
BRANCH   2  13
HETATM   13  C4  UNK     1      18.093   6.286  33.249  1.00  0.00    -0.035 A 
HETATM   14  C7  UNK     1      19.206   6.869  33.854  1.00  0.00     0.014 A 
HETATM   15  C5  UNK     1      19.269   8.253  34.012  1.00  0.00     0.037 A 
HETATM   16  C3  UNK     1      18.220   9.055  33.565  1.00  0.00     0.069 A 
HETATM   17  C6  UNK     1      17.107   8.472  32.959  1.00  0.00     0.037 A 
HETATM   18  C8  UNK     1      17.042   7.088  32.801  1.00  0.00     0.014 A 
BRANCH  16  19
HETATM   19  O1  UNK     1      18.282  10.406  33.719  1.00  0.00    -0.347 OA
BRANCH  19  20
HETATM   20  C1  UNK     1      17.100  11.063  34.173  1.00  0.00     0.214 C 
BRANCH  20  21
HETATM   21  C2  UNK     1      17.336  12.544  34.184  1.00  0.00    -0.032 A 
HETATM   22  C10 UNK     1      18.435  13.070  33.514  1.00  0.00     0.011 A 
HETATM   23  C15 UNK     1      18.656  14.447  33.523  1.00  0.00     0.026 A 
HETATM   24  C17 UNK     1      17.776  15.290  34.204  1.00  0.00     0.055 A 
HETATM   25  C14 UNK     1      16.676  14.755  34.874  1.00  0.00     0.056 A 
HETATM   26 Cl2  UNK     1      18.103  16.987  34.178  1.00  0.00    -0.083 Cl
HETATM   27 Cl1  UNK     1      15.552  15.747  35.735  1.00  0.00    -0.083 Cl
HETATM   28  C9  UNK     1      16.456  13.378  34.864  1.00  0.00     0.035 A 
ENDBRANCH  20  21
ENDBRANCH  19  20
ENDBRANCH  16  19
ENDBRANCH   2  13
TORSDOF 6
ENDMDL
MODEL 9
REMARK VINA RESULT:      -9.2     22.353     24.089
REMARK  6 active torsions:
REMARK  status: ('A' for Active; 'I' for Inactive)
REMARK    1  A    between atoms: C1_6  and  O1_3 
REMARK    2  A    between atoms: C3_8  and  O1_3 
REMARK    3  A    between atoms: C1_6  and  C2_7 
REMARK    4  A    between atoms: C11_16  and  C4_9 
REMARK    5  A    between atoms: C12_17  and  C16_21 
REMARK    6  A    between atoms: C13_18  and  C16_21 
ROOT
HETATM    1  N1  UNK     1      15.579   5.386   8.970  1.00  0.00    -0.191 NA
HETATM    2  C11 UNK     1      13.244   7.903   9.663  1.00  0.00     0.038 C 
HETATM    3  C12 UNK     1      13.330   6.565   9.463  1.00  0.00     0.096 C 
HETATM    4  C23 UNK     1      14.571   5.915   9.193  1.00  0.00     0.103 C 
ENDROOT
BRANCH   3   5
HETATM    5  C16 UNK     1      12.043   5.795   9.468  1.00  0.00     0.202 C 
HETATM    6  O2  UNK     1      11.707   5.072  10.401  1.00  0.00    -0.286 OA
BRANCH   5   7
HETATM    7  C13 UNK     1      11.133   5.930   8.310  1.00  0.00     0.015 A 
HETATM    8  C18 UNK     1      11.664   5.944   7.033  1.00  0.00     0.015 A 
HETATM    9  C20 UNK     1      10.805   6.071   5.942  1.00  0.00     0.001 A 
HETATM   10  C22 UNK     1       9.430   6.185   6.146  1.00  0.00     0.000 A 
HETATM   11  C21 UNK     1       8.913   6.169   7.443  1.00  0.00     0.001 A 
HETATM   12  C19 UNK     1       9.773   6.040   8.534  1.00  0.00     0.015 A 
ENDBRANCH   5   7
ENDBRANCH   3   5
BRANCH   2  13
HETATM   13  C4  UNK     1      14.349   8.847   9.636  1.00  0.00    -0.035 A 
HETATM   14  C7  UNK     1      14.607   9.588   8.483  1.00  0.00     0.014 A 
HETATM   15  C5  UNK     1      15.669  10.492   8.457  1.00  0.00     0.037 A 
HETATM   16  C3  UNK     1      16.472  10.656   9.585  1.00  0.00     0.069 A 
HETATM   17  C6  UNK     1      16.215   9.917  10.738  1.00  0.00     0.037 A 
HETATM   18  C8  UNK     1      15.154   9.011  10.765  1.00  0.00     0.014 A 
BRANCH  16  19
HETATM   19  O1  UNK     1      17.508  11.539   9.559  1.00  0.00    -0.347 OA
BRANCH  19  20
HETATM   20  C1  UNK     1      18.467  11.386   8.513  1.00  0.00     0.214 C 
BRANCH  20  21
HETATM   21  C2  UNK     1      19.819  11.784   9.026  1.00  0.00    -0.032 A 
HETATM   22  C10 UNK     1      20.831  12.098   8.126  1.00  0.00     0.011 A 
HETATM   23  C15 UNK     1      22.089  12.467   8.602  1.00  0.00     0.026 A 
HETATM   24  C17 UNK     1      22.326  12.521   9.976  1.00  0.00     0.055 A 
HETATM   25  C14 UNK     1      21.306  12.206  10.873  1.00  0.00     0.056 A 
HETATM   26 Cl2  UNK     1      23.905  12.988  10.504  1.00  0.00    -0.083 Cl
HETATM   27 Cl1  UNK     1      21.539  12.252  12.585  1.00  0.00    -0.083 Cl
HETATM   28  C9  UNK     1      20.049  11.835  10.397  1.00  0.00     0.035 A 
ENDBRANCH  20  21
ENDBRANCH  19  20
ENDBRANCH  16  19
ENDBRANCH   2  13
TORSDOF 6
ENDMDL
MODEL 10
REMARK VINA RESULT:      -9.2      7.565      9.999
REMARK  6 active torsions:
REMARK  status: ('A' for Active; 'I' for Inactive)
REMARK    1  A    between atoms: C1_6  and  O1_3 
REMARK    2  A    between atoms: C3_8  and  O1_3 
REMARK    3  A    between atoms: C1_6  and  C2_7 
REMARK    4  A    between atoms: C11_16  and  C4_9 
REMARK    5  A    between atoms: C12_17  and  C16_21 
REMARK    6  A    between atoms: C13_18  and  C16_21 
ROOT
HETATM    1  N1  UNK     1      17.807  -5.720  36.532  1.00  0.00    -0.191 NA
HETATM    2  C11 UNK     1      20.715  -3.767  36.563  1.00  0.00     0.038 C 
HETATM    3  C12 UNK     1      20.249  -4.979  36.953  1.00  0.00     0.096 C 
HETATM    4  C23 UNK     1      18.903  -5.387  36.719  1.00  0.00     0.103 C 
ENDROOT
BRANCH   3   5
HETATM    5  C16 UNK     1      21.198  -5.857  37.714  1.00  0.00     0.202 C 
HETATM    6  O2  UNK     1      22.259  -5.445  38.172  1.00  0.00    -0.286 OA
BRANCH   5   7
HETATM    7  C13 UNK     1      20.829  -7.271  37.938  1.00  0.00     0.015 A 
HETATM    8  C18 UNK     1      20.326  -7.649  39.170  1.00  0.00     0.015 A 
HETATM    9  C20 UNK     1      19.977  -8.983  39.380  1.00  0.00     0.001 A 
HETATM   10  C22 UNK     1      20.139  -9.917  38.357  1.00  0.00     0.000 A 
HETATM   11  C21 UNK     1      20.648  -9.516  37.121  1.00  0.00     0.001 A 
HETATM   12  C19 UNK     1      20.996  -8.181  36.910  1.00  0.00     0.015 A 
ENDBRANCH   5   7
ENDBRANCH   3   5
BRANCH   2  13
HETATM   13  C4  UNK     1      19.954  -2.737  35.875  1.00  0.00    -0.035 A 
HETATM   14  C7  UNK     1      19.047  -1.949  36.583  1.00  0.00     0.014 A 
HETATM   15  C5  UNK     1      18.317  -0.962  35.922  1.00  0.00     0.037 A 
HETATM   16  C3  UNK     1      18.493  -0.763  34.553  1.00  0.00     0.069 A 
HETATM   17  C6  UNK     1      19.399  -1.550  33.845  1.00  0.00     0.037 A 
HETATM   18  C8  UNK     1      20.130  -2.538  34.505  1.00  0.00     0.014 A 
BRANCH  16  19
HETATM   19  O1  UNK     1      17.779   0.201  33.908  1.00  0.00    -0.347 OA
BRANCH  19  20
HETATM   20  C1  UNK     1      17.833   1.520  34.450  1.00  0.00     0.214 C 
BRANCH  20  21
HETATM   21  C2  UNK     1      18.111   2.493  33.342  1.00  0.00    -0.032 A 
HETATM   22  C10 UNK     1      18.209   3.850  33.627  1.00  0.00     0.011 A 
HETATM   23  C15 UNK     1      18.466   4.755  32.598  1.00  0.00     0.026 A 
HETATM   24  C17 UNK     1      18.625   4.297  31.289  1.00  0.00     0.055 A 
HETATM   25  C14 UNK     1      18.525   2.934  31.011  1.00  0.00     0.056 A 
HETATM   26 Cl2  UNK     1      18.944   5.468  30.058  1.00  0.00    -0.083 Cl
HETATM   27 Cl1  UNK     1      18.710   2.306  29.411  1.00  0.00    -0.083 Cl
HETATM   28  C9  UNK     1      18.267   2.029  32.041  1.00  0.00     0.035 A 
ENDBRANCH  20  21
ENDBRANCH  19  20
ENDBRANCH  16  19
ENDBRANCH   2  13
TORSDOF 6
ENDMDL
