MODEL 1
REMARK VINA RESULT:      -9.6      0.000      0.000
REMARK  7 active torsions:
REMARK  status: ('A' for Active; 'I' for Inactive)
REMARK    1  A    between atoms: C16_23  and  O3_3 
REMARK    2  A    between atoms: C25_32  and  O3_3 
REMARK    3  A    between atoms: C5_12  and  N1_5 
REMARK    4  A    between atoms: C6_13  and  N2_6 
REMARK    5  A    between atoms: C14_21  and  N3_7 
REMARK       I    between atoms: C9_16  and  N3_7 
REMARK    6  A    between atoms: C5_12  and  C7_14 
REMARK    7  A    between atoms: C6_13  and  C9_16 
ROOT
HETATM    1  N1  UNK     1      19.263  -3.046  36.112  1.00  0.00     0.096 N 
HETATM    2  N2  UNK     1      18.499  -0.409  35.206  1.00  0.00     0.100 N 
HETATM    3  C1  UNK     1      18.638  -2.078  37.021  1.00  0.00     0.303 C 
HETATM    4  C2  UNK     1      20.021  -2.349  35.065  1.00  0.00     0.303 C 
HETATM    5  C3  UNK     1      17.740  -1.105  36.250  1.00  0.00     0.303 C 
HETATM    6  C4  UNK     1      19.122  -1.377  34.295  1.00  0.00     0.303 C 
ENDROOT
BRANCH   1   7
HETATM    7  C5  UNK     1      20.123  -3.970  36.847  1.00  0.00     0.312 C 
BRANCH   7   8
HETATM    8  C7  UNK     1      19.585  -5.359  36.848  1.00  0.00    -0.011 A 
HETATM    9  C10 UNK     1      18.484  -5.675  36.152  1.00  0.00     0.092 A 
HETATM   10  C13 UNK     1      17.915  -7.032  36.123  1.00  0.00     0.288 A 
HETATM   11  O1  UNK     1      18.577  -8.002  36.859  1.00  0.00    -0.275 OA
HETATM   12  O4  UNK     1      16.904  -7.285  35.475  1.00  0.00    -0.260 OA
HETATM   13  C11 UNK     1      19.737  -7.701  37.600  1.00  0.00     0.090 A 
HETATM   14  C8  UNK     1      20.265  -6.408  37.620  1.00  0.00     0.009 A 
HETATM   15  C15 UNK     1      20.320  -8.755  38.305  1.00  0.00     0.041 A 
HETATM   16  C12 UNK     1      21.420  -6.190  38.382  1.00  0.00     0.051 A 
HETATM   17  C16 UNK     1      22.016  -7.237  39.094  1.00  0.00     0.069 A 
HETATM   18  C17 UNK     1      21.467  -8.517  39.055  1.00  0.00     0.039 A 
BRANCH  17  19
HETATM   19  O3  UNK     1      23.139  -7.003  39.829  1.00  0.00    -0.351 OA
BRANCH  19  20
HETATM   20  C25 UNK     1      24.346  -6.759  39.109  1.00  0.00     0.171 C 
HETATM   21  C26 UNK     1      25.010  -8.082  38.796  1.00  0.00     0.034 C 
ENDBRANCH  19  20
ENDBRANCH  17  19
ENDBRANCH   7   8
ENDBRANCH   1   7
BRANCH   2  22
HETATM   22  C6  UNK     1      17.640   0.518  34.470  1.00  0.00     0.375 C 
BRANCH  22  23
HETATM   23  C9  UNK     1      18.280   1.895  34.455  1.00  0.00     0.250 C 
HETATM   24  O2  UNK     1      19.035   2.283  35.340  1.00  0.00    -0.271 OA
HETATM   25  N3  UNK     1      17.884   2.598  33.318  1.00  0.00    -0.325 N 
HETATM   26  H14 UNK     1      17.258   2.117  32.678  1.00  0.00     0.169 HD
BRANCH  25  27
HETATM   27  C14 UNK     1      18.260   3.908  32.939  1.00  0.00     0.041 A 
HETATM   28  C18 UNK     1      18.623   4.198  31.624  1.00  0.00    -0.029 A 
HETATM   29  C20 UNK     1      18.989   5.497  31.271  1.00  0.00    -0.054 A 
HETATM   30  C21 UNK     1      18.621   3.119  30.587  1.00  0.00     0.051 C 
HETATM   31  C23 UNK     1      18.993   6.506  32.235  1.00  0.00     0.007 A 
HETATM   32  C24 UNK     1      19.382   5.835  29.871  1.00  0.00     0.049 C 
HETATM   33  C22 UNK     1      18.630   6.216  33.549  1.00  0.00     0.003 A 
HETATM   34  C19 UNK     1      18.263   4.917  33.902  1.00  0.00     0.030 A 
ENDBRANCH  25  27
ENDBRANCH  22  23
ENDBRANCH   2  22
TORSDOF 7
ENDMDL
MODEL 2
REMARK VINA RESULT:      -9.5      5.653      8.605
REMARK  7 active torsions:
REMARK  status: ('A' for Active; 'I' for Inactive)
REMARK    1  A    between atoms: C16_23  and  O3_3 
REMARK    2  A    between atoms: C25_32  and  O3_3 
REMARK    3  A    between atoms: C5_12  and  N1_5 
REMARK    4  A    between atoms: C6_13  and  N2_6 
REMARK    5  A    between atoms: C14_21  and  N3_7 
REMARK       I    between atoms: C9_16  and  N3_7 
REMARK    6  A    between atoms: C5_12  and  C7_14 
REMARK    7  A    between atoms: C6_13  and  C9_16 
ROOT
HETATM    1  N1  UNK     1      18.876   3.652  31.331  1.00  0.00     0.096 N 
HETATM    2  N2  UNK     1      19.249   6.327  32.361  1.00  0.00     0.100 N 
HETATM    3  C1  UNK     1      19.366   4.738  30.474  1.00  0.00     0.303 C 
HETATM    4  C2  UNK     1      18.017   4.186  32.395  1.00  0.00     0.303 C 
HETATM    5  C3  UNK     1      20.109   5.793  31.299  1.00  0.00     0.303 C 
HETATM    6  C4  UNK     1      18.762   5.241  33.220  1.00  0.00     0.303 C 
ENDROOT
BRANCH   1   7
HETATM    7  C5  UNK     1      18.163   2.648  30.544  1.00  0.00     0.312 C 
BRANCH   7   8
HETATM    8  C7  UNK     1      18.898   1.354  30.484  1.00  0.00    -0.011 A 
HETATM    9  C10 UNK     1      19.539   0.972  29.371  1.00  0.00     0.092 A 
HETATM   10  C13 UNK     1      20.277  -0.297  29.265  1.00  0.00     0.288 A 
HETATM   11  O1  UNK     1      20.289  -1.107  30.389  1.00  0.00    -0.275 OA
HETATM   12  O4  UNK     1      20.852  -0.614  28.228  1.00  0.00    -0.260 OA
HETATM   13  C11 UNK     1      19.625  -0.733  31.574  1.00  0.00     0.090 A 
HETATM   14  C8  UNK     1      18.927   0.473  31.660  1.00  0.00     0.009 A 
HETATM   15  C15 UNK     1      19.702  -1.627  32.643  1.00  0.00     0.041 A 
HETATM   16  C12 UNK     1      18.292   0.771  32.873  1.00  0.00     0.051 A 
HETATM   17  C16 UNK     1      18.362  -0.115  33.954  1.00  0.00     0.069 A 
HETATM   18  C17 UNK     1      19.066  -1.312  33.839  1.00  0.00     0.039 A 
BRANCH  17  19
HETATM   19  O3  UNK     1      17.737   0.194  35.124  1.00  0.00    -0.351 OA
BRANCH  19  20
HETATM   20  C25 UNK     1      16.311   0.251  35.102  1.00  0.00     0.171 C 
HETATM   21  C26 UNK     1      15.811   0.616  36.484  1.00  0.00     0.034 C 
ENDBRANCH  19  20
ENDBRANCH  17  19
ENDBRANCH   7   8
ENDBRANCH   1   7
BRANCH   2  22
HETATM   22  C6  UNK     1      19.961   7.332  33.149  1.00  0.00     0.375 C 
BRANCH  22  23
HETATM   23  C9  UNK     1      18.990   8.005  34.105  1.00  0.00     0.250 C 
HETATM   24  O2  UNK     1      19.073   7.889  35.323  1.00  0.00    -0.271 OA
HETATM   25  N3  UNK     1      18.044   8.741  33.392  1.00  0.00    -0.325 N 
HETATM   26  H14 UNK     1      18.130   8.736  32.379  1.00  0.00     0.169 HD
BRANCH  25  27
HETATM   27  C14 UNK     1      16.976   9.507  33.912  1.00  0.00     0.041 A 
HETATM   28  C18 UNK     1      17.146  10.855  34.226  1.00  0.00    -0.029 A 
HETATM   29  C20 UNK     1      16.079  11.593  34.739  1.00  0.00    -0.054 A 
HETATM   30  C21 UNK     1      18.472  11.516  34.016  1.00  0.00     0.051 C 
HETATM   31  C23 UNK     1      14.840  10.982  34.937  1.00  0.00     0.007 A 
HETATM   32  C24 UNK     1      16.234  13.038  35.083  1.00  0.00     0.049 C 
HETATM   33  C22 UNK     1      14.670   9.634  34.623  1.00  0.00     0.003 A 
HETATM   34  C19 UNK     1      15.737   8.896  34.111  1.00  0.00     0.030 A 
ENDBRANCH  25  27
ENDBRANCH  22  23
ENDBRANCH   2  22
TORSDOF 7
ENDMDL
MODEL 3
REMARK VINA RESULT:      -9.3      2.119      2.867
REMARK  7 active torsions:
REMARK  status: ('A' for Active; 'I' for Inactive)
REMARK    1  A    between atoms: C16_23  and  O3_3 
REMARK    2  A    between atoms: C25_32  and  O3_3 
REMARK    3  A    between atoms: C5_12  and  N1_5 
REMARK    4  A    between atoms: C6_13  and  N2_6 
REMARK    5  A    between atoms: C14_21  and  N3_7 
REMARK       I    between atoms: C9_16  and  N3_7 
REMARK    6  A    between atoms: C5_12  and  C7_14 
REMARK    7  A    between atoms: C6_13  and  C9_16 
ROOT
HETATM    1  N1  UNK     1      19.428  -3.392  36.522  1.00  0.00     0.096 N 
HETATM    2  N2  UNK     1      19.171  -0.577  35.916  1.00  0.00     0.100 N 
HETATM    3  C1  UNK     1      19.099  -2.414  37.566  1.00  0.00     0.303 C 
HETATM    4  C2  UNK     1      20.230  -2.763  35.465  1.00  0.00     0.303 C 
HETATM    5  C3  UNK     1      18.368  -1.206  36.971  1.00  0.00     0.303 C 
HETATM    6  C4  UNK     1      19.498  -1.555  34.871  1.00  0.00     0.303 C 
ENDROOT
BRANCH   1   7
HETATM    7  C5  UNK     1      20.129  -4.542  37.089  1.00  0.00     0.312 C 
BRANCH   7   8
HETATM    8  C7  UNK     1      19.500  -5.833  36.696  1.00  0.00    -0.011 A 
HETATM    9  C10 UNK     1      18.235  -5.882  36.256  1.00  0.00     0.092 A 
HETATM   10  C13 UNK     1      17.571  -7.134  35.857  1.00  0.00     0.288 A 
HETATM   11  O1  UNK     1      18.321  -8.295  35.952  1.00  0.00    -0.275 OA
HETATM   12  O4  UNK     1      16.410  -7.140  35.460  1.00  0.00    -0.260 OA
HETATM   13  C11 UNK     1      19.654  -8.277  36.410  1.00  0.00     0.090 A 
HETATM   14  C8  UNK     1      20.270  -7.082  36.787  1.00  0.00     0.009 A 
HETATM   15  C15 UNK     1      20.313  -9.505  36.466  1.00  0.00     0.041 A 
HETATM   16  C12 UNK     1      21.597  -7.148  37.233  1.00  0.00     0.051 A 
HETATM   17  C16 UNK     1      22.271  -8.372  37.294  1.00  0.00     0.069 A 
HETATM   18  C17 UNK     1      21.630  -9.549  36.911  1.00  0.00     0.039 A 
BRANCH  17  19
HETATM   19  O3  UNK     1      23.560  -8.415  37.731  1.00  0.00    -0.351 OA
BRANCH  19  20
HETATM   20  C25 UNK     1      23.853  -7.737  38.952  1.00  0.00     0.171 C 
HETATM   21  C26 UNK     1      22.904  -8.223  40.026  1.00  0.00     0.034 C 
ENDBRANCH  19  20
ENDBRANCH  17  19
ENDBRANCH   7   8
ENDBRANCH   1   7
BRANCH   2  22
HETATM   22  C6  UNK     1      18.472   0.575  35.348  1.00  0.00     0.375 C 
BRANCH  22  23
HETATM   23  C9  UNK     1      18.146   0.299  33.891  1.00  0.00     0.250 C 
HETATM   24  O2  UNK     1      17.306  -0.526  33.546  1.00  0.00    -0.271 OA
HETATM   25  N3  UNK     1      18.920   1.108  33.062  1.00  0.00    -0.325 N 
HETATM   26  H14 UNK     1      19.563   1.749  33.519  1.00  0.00     0.169 HD
BRANCH  25  27
HETATM   27  C14 UNK     1      18.914   1.153  31.648  1.00  0.00     0.041 A 
HETATM   28  C18 UNK     1      19.580   0.186  30.896  1.00  0.00    -0.029 A 
HETATM   29  C20 UNK     1      19.561   0.249  29.503  1.00  0.00    -0.054 A 
HETATM   30  C21 UNK     1      20.317  -0.923  31.579  1.00  0.00     0.051 C 
HETATM   31  C23 UNK     1      18.875   1.281  28.861  1.00  0.00     0.007 A 
HETATM   32  C24 UNK     1      20.265  -0.774  28.674  1.00  0.00     0.049 C 
HETATM   33  C22 UNK     1      18.210   2.249  29.613  1.00  0.00     0.003 A 
HETATM   34  C19 UNK     1      18.229   2.185  31.006  1.00  0.00     0.030 A 
ENDBRANCH  25  27
ENDBRANCH  22  23
ENDBRANCH   2  22
TORSDOF 7
ENDMDL
MODEL 4
REMARK VINA RESULT:      -9.3      3.860     11.264
REMARK  7 active torsions:
REMARK  status: ('A' for Active; 'I' for Inactive)
REMARK    1  A    between atoms: C16_23  and  O3_3 
REMARK    2  A    between atoms: C25_32  and  O3_3 
REMARK    3  A    between atoms: C5_12  and  N1_5 
REMARK    4  A    between atoms: C6_13  and  N2_6 
REMARK    5  A    between atoms: C14_21  and  N3_7 
REMARK       I    between atoms: C9_16  and  N3_7 
REMARK    6  A    between atoms: C5_12  and  C7_14 
REMARK    7  A    between atoms: C6_13  and  C9_16 
ROOT
HETATM    1  N1  UNK     1      19.996  -4.762  36.682  1.00  0.00     0.096 N 
HETATM    2  N2  UNK     1      20.042  -7.653  36.650  1.00  0.00     0.100 N 
HETATM    3  C1  UNK     1      19.943  -5.512  35.421  1.00  0.00     0.303 C 
HETATM    4  C2  UNK     1      20.728  -5.525  37.702  1.00  0.00     0.303 C 
HETATM    5  C3  UNK     1      19.309  -6.891  35.632  1.00  0.00     0.303 C 
HETATM    6  C4  UNK     1      20.092  -6.904  37.912  1.00  0.00     0.303 C 
ENDROOT
BRANCH   1   7
HETATM    7  C5  UNK     1      20.605  -3.449  36.481  1.00  0.00     0.312 C 
BRANCH   7   8
HETATM    8  C7  UNK     1      19.592  -2.399  36.184  1.00  0.00    -0.011 A 
HETATM    9  C10 UNK     1      18.804  -1.904  37.150  1.00  0.00     0.092 A 
HETATM   10  C13 UNK     1      17.789  -0.867  36.905  1.00  0.00     0.288 A 
HETATM   11  O1  UNK     1      17.671  -0.404  35.604  1.00  0.00    -0.275 OA
HETATM   12  O4  UNK     1      17.085  -0.438  37.814  1.00  0.00    -0.260 OA
HETATM   13  C11 UNK     1      18.484  -0.905  34.567  1.00  0.00     0.090 A 
HETATM   14  C8  UNK     1      19.442  -1.889  34.814  1.00  0.00     0.009 A 
HETATM   15  C15 UNK     1      18.278  -0.367  33.296  1.00  0.00     0.041 A 
HETATM   16  C12 UNK     1      20.210  -2.335  33.730  1.00  0.00     0.051 A 
HETATM   17  C16 UNK     1      20.015  -1.805  32.449  1.00  0.00     0.069 A 
HETATM   18  C17 UNK     1      19.050  -0.822  32.233  1.00  0.00     0.039 A 
BRANCH  17  19
HETATM   19  O3  UNK     1      20.771  -2.252  31.409  1.00  0.00    -0.351 OA
BRANCH  19  20
HETATM   20  C25 UNK     1      20.188  -2.186  30.108  1.00  0.00     0.171 C 
HETATM   21  C26 UNK     1      20.883  -1.103  29.311  1.00  0.00     0.034 C 
ENDBRANCH  19  20
ENDBRANCH  17  19
ENDBRANCH   7   8
ENDBRANCH   1   7
BRANCH   2  22
HETATM   22  C6  UNK     1      19.435  -8.967  36.852  1.00  0.00     0.375 C 
BRANCH  22  23
HETATM   23  C9  UNK     1      20.528 -10.003  37.049  1.00  0.00     0.250 C 
HETATM   24  O2  UNK     1      20.372 -11.007  37.736  1.00  0.00    -0.271 OA
HETATM   25  N3  UNK     1      21.673  -9.635  36.344  1.00  0.00    -0.325 N 
HETATM   26  H14 UNK     1      21.625  -8.770  35.813  1.00  0.00     0.169 HD
BRANCH  25  27
HETATM   27  C14 UNK     1      22.902 -10.330  36.270  1.00  0.00     0.041 A 
HETATM   28  C18 UNK     1      24.067  -9.787  36.812  1.00  0.00    -0.029 A 
HETATM   29  C20 UNK     1      25.269 -10.490  36.729  1.00  0.00    -0.054 A 
HETATM   30  C21 UNK     1      24.033  -8.451  37.485  1.00  0.00     0.051 C 
HETATM   31  C23 UNK     1      25.306 -11.736  36.102  1.00  0.00     0.007 A 
HETATM   32  C24 UNK     1      26.531  -9.933  37.301  1.00  0.00     0.049 C 
HETATM   33  C22 UNK     1      24.142 -12.279  35.560  1.00  0.00     0.003 A 
HETATM   34  C19 UNK     1      22.940 -11.576  35.644  1.00  0.00     0.030 A 
ENDBRANCH  25  27
ENDBRANCH  22  23
ENDBRANCH   2  22
TORSDOF 7
ENDMDL
MODEL 5
REMARK VINA RESULT:      -9.2      6.414     12.930
REMARK  7 active torsions:
REMARK  status: ('A' for Active; 'I' for Inactive)
REMARK    1  A    between atoms: C16_23  and  O3_3 
REMARK    2  A    between atoms: C25_32  and  O3_3 
REMARK    3  A    between atoms: C5_12  and  N1_5 
REMARK    4  A    between atoms: C6_13  and  N2_6 
REMARK    5  A    between atoms: C14_21  and  N3_7 
REMARK       I    between atoms: C9_16  and  N3_7 
REMARK    6  A    between atoms: C5_12  and  C7_14 
REMARK    7  A    between atoms: C6_13  and  C9_16 
ROOT
HETATM    1  N1  UNK     1      18.438   5.858  32.889  1.00  0.00     0.096 N 
HETATM    2  N2  UNK     1      18.838   4.189  30.563  1.00  0.00     0.100 N 
HETATM    3  C1  UNK     1      19.514   6.133  31.930  1.00  0.00     0.303 C 
HETATM    4  C2  UNK     1      18.132   4.422  32.919  1.00  0.00     0.303 C 
HETATM    5  C3  UNK     1      19.143   5.624  30.533  1.00  0.00     0.303 C 
HETATM    6  C4  UNK     1      17.761   3.915  31.521  1.00  0.00     0.303 C 
ENDROOT
BRANCH   1   7
HETATM    7  C5  UNK     1      18.794   6.339  34.223  1.00  0.00     0.312 C 
BRANCH   7   8
HETATM    8  C7  UNK     1      18.961   7.818  34.260  1.00  0.00    -0.011 A 
HETATM    9  C10 UNK     1      20.175   8.376  34.368  1.00  0.00     0.092 A 
HETATM   10  C13 UNK     1      20.390   9.832  34.409  1.00  0.00     0.288 A 
HETATM   11  O1  UNK     1      19.260  10.631  34.330  1.00  0.00    -0.275 OA
HETATM   12  O4  UNK     1      21.516  10.307  34.509  1.00  0.00    -0.260 OA
HETATM   13  C11 UNK     1      17.970  10.075  34.216  1.00  0.00     0.090 A 
HETATM   14  C8  UNK     1      17.782   8.692  34.179  1.00  0.00     0.009 A 
HETATM   15  C15 UNK     1      16.905  10.974  34.144  1.00  0.00     0.041 A 
HETATM   16  C12 UNK     1      16.468   8.218  34.065  1.00  0.00     0.051 A 
HETATM   17  C16 UNK     1      15.390   9.107  33.992  1.00  0.00     0.069 A 
HETATM   18  C17 UNK     1      15.609  10.484  34.032  1.00  0.00     0.039 A 
BRANCH  17  19
HETATM   19  O3  UNK     1      14.121   8.626  33.883  1.00  0.00    -0.351 OA
BRANCH  19  20
HETATM   20  C25 UNK     1      13.977   7.260  33.497  1.00  0.00     0.171 C 
HETATM   21  C26 UNK     1      13.724   7.193  32.006  1.00  0.00     0.034 C 
ENDBRANCH  19  20
ENDBRANCH  17  19
ENDBRANCH   7   8
ENDBRANCH   1   7
BRANCH   2  22
HETATM   22  C6  UNK     1      18.483   3.706  29.230  1.00  0.00     0.375 C 
BRANCH  22  23
HETATM   23  C9  UNK     1      18.453   2.187  29.235  1.00  0.00     0.250 C 
HETATM   24  O2  UNK     1      17.578   1.541  28.668  1.00  0.00    -0.271 OA
HETATM   25  N3  UNK     1      19.537   1.686  29.953  1.00  0.00    -0.325 N 
HETATM   26  H14 UNK     1      20.177   2.368  30.351  1.00  0.00     0.169 HD
BRANCH  25  27
HETATM   27  C14 UNK     1      19.864   0.331  30.189  1.00  0.00     0.041 A 
HETATM   28  C18 UNK     1      19.634  -0.257  31.433  1.00  0.00    -0.029 A 
HETATM   29  C20 UNK     1      19.964  -1.596  31.644  1.00  0.00    -0.054 A 
HETATM   30  C21 UNK     1      19.033   0.544  32.544  1.00  0.00     0.051 C 
HETATM   31  C23 UNK     1      20.525  -2.347  30.611  1.00  0.00     0.007 A 
HETATM   32  C24 UNK     1      19.728  -2.250  32.965  1.00  0.00     0.049 C 
HETATM   33  C22 UNK     1      20.756  -1.760  29.367  1.00  0.00     0.003 A 
HETATM   34  C19 UNK     1      20.426  -0.421  29.156  1.00  0.00     0.030 A 
ENDBRANCH  25  27
ENDBRANCH  22  23
ENDBRANCH   2  22
TORSDOF 7
ENDMDL
MODEL 6
REMARK VINA RESULT:      -9.1      5.853     11.464
REMARK  7 active torsions:
REMARK  status: ('A' for Active; 'I' for Inactive)
REMARK    1  A    between atoms: C16_23  and  O3_3 
REMARK    2  A    between atoms: C25_32  and  O3_3 
REMARK    3  A    between atoms: C5_12  and  N1_5 
REMARK    4  A    between atoms: C6_13  and  N2_6 
REMARK    5  A    between atoms: C14_21  and  N3_7 
REMARK       I    between atoms: C9_16  and  N3_7 
REMARK    6  A    between atoms: C5_12  and  C7_14 
REMARK    7  A    between atoms: C6_13  and  C9_16 
ROOT
HETATM    1  N1  UNK     1      23.816  -9.347  37.219  1.00  0.00     0.096 N 
HETATM    2  N2  UNK     1      26.316  -8.411  38.328  1.00  0.00     0.100 N 
HETATM    3  C1  UNK     1      25.100  -9.682  36.593  1.00  0.00     0.303 C 
HETATM    4  C2  UNK     1      23.906  -8.058  37.916  1.00  0.00     0.303 C 
HETATM    5  C3  UNK     1      26.226  -9.700  37.633  1.00  0.00     0.303 C 
HETATM    6  C4  UNK     1      25.032  -8.077  38.955  1.00  0.00     0.303 C 
ENDROOT
BRANCH   1   7
HETATM    7  C5  UNK     1      22.744  -9.326  36.226  1.00  0.00     0.312 C 
BRANCH   7   8
HETATM    8  C7  UNK     1      21.396  -9.413  36.852  1.00  0.00    -0.011 A 
HETATM    9  C10 UNK     1      20.984 -10.537  37.455  1.00  0.00     0.092 A 
HETATM   10  C13 UNK     1      19.661 -10.671  38.087  1.00  0.00     0.288 A 
HETATM   11  O1  UNK     1      18.831  -9.562  38.037  1.00  0.00    -0.275 OA
HETATM   12  O4  UNK     1      19.317 -11.717  38.629  1.00  0.00    -0.260 OA
HETATM   13  C11 UNK     1      19.236  -8.366  37.411  1.00  0.00     0.090 A 
HETATM   14  C8  UNK     1      20.493  -8.254  36.815  1.00  0.00     0.009 A 
HETATM   15  C15 UNK     1      18.318  -7.314  37.420  1.00  0.00     0.041 A 
HETATM   16  C12 UNK     1      20.819  -7.032  36.212  1.00  0.00     0.051 A 
HETATM   17  C16 UNK     1      19.910  -5.968  36.213  1.00  0.00     0.069 A 
HETATM   18  C17 UNK     1      18.662  -6.109  36.816  1.00  0.00     0.039 A 
BRANCH  17  19
HETATM   19  O3  UNK     1      20.247  -4.789  35.621  1.00  0.00    -0.351 OA
BRANCH  19  20
HETATM   20  C25 UNK     1      20.336  -3.642  36.465  1.00  0.00     0.171 C 
HETATM   21  C26 UNK     1      19.857  -2.427  35.699  1.00  0.00     0.034 C 
ENDBRANCH  19  20
ENDBRANCH  17  19
ENDBRANCH   7   8
ENDBRANCH   1   7
BRANCH   2  22
HETATM   22  C6  UNK     1      27.389  -8.430  39.321  1.00  0.00     0.375 C 
BRANCH  22  23
HETATM   23  C9  UNK     1      28.195  -7.146  39.218  1.00  0.00     0.250 C 
HETATM   24  O2  UNK     1      27.889  -6.123  39.821  1.00  0.00    -0.271 OA
HETATM   25  N3  UNK     1      29.286  -7.329  38.370  1.00  0.00    -0.325 N 
HETATM   26  H14 UNK     1      29.396  -8.252  37.959  1.00  0.00     0.169 HD
BRANCH  25  27
HETATM   27  C14 UNK     1      30.272  -6.379  38.015  1.00  0.00     0.041 A 
HETATM   28  C18 UNK     1      31.626  -6.714  38.023  1.00  0.00    -0.029 A 
HETATM   29  C20 UNK     1      32.582  -5.762  37.669  1.00  0.00    -0.054 A 
HETATM   30  C21 UNK     1      32.058  -8.092  38.410  1.00  0.00     0.051 C 
HETATM   31  C23 UNK     1      32.184  -4.474  37.308  1.00  0.00     0.007 A 
HETATM   32  C24 UNK     1      34.038  -6.093  37.669  1.00  0.00     0.049 C 
HETATM   33  C22 UNK     1      30.830  -4.140  37.300  1.00  0.00     0.003 A 
HETATM   34  C19 UNK     1      29.874  -5.092  37.653  1.00  0.00     0.030 A 
ENDBRANCH  25  27
ENDBRANCH  22  23
ENDBRANCH   2  22
TORSDOF 7
ENDMDL
MODEL 7
REMARK VINA RESULT:      -8.9      8.643     12.776
REMARK  7 active torsions:
REMARK  status: ('A' for Active; 'I' for Inactive)
REMARK    1  A    between atoms: C16_23  and  O3_3 
REMARK    2  A    between atoms: C25_32  and  O3_3 
REMARK    3  A    between atoms: C5_12  and  N1_5 
REMARK    4  A    between atoms: C6_13  and  N2_6 
REMARK    5  A    between atoms: C14_21  and  N3_7 
REMARK       I    between atoms: C9_16  and  N3_7 
REMARK    6  A    between atoms: C5_12  and  C7_14 
REMARK    7  A    between atoms: C6_13  and  C9_16 
ROOT
HETATM    1  N1  UNK     1      29.469  -8.616  37.634  1.00  0.00     0.096 N 
HETATM    2  N2  UNK     1      26.595  -8.811  37.391  1.00  0.00     0.100 N 
HETATM    3  C1  UNK     1      28.626  -8.931  38.793  1.00  0.00     0.303 C 
HETATM    4  C2  UNK     1      28.728  -7.795  36.669  1.00  0.00     0.303 C 
HETATM    5  C3  UNK     1      27.336  -9.633  38.355  1.00  0.00     0.303 C 
HETATM    6  C4  UNK     1      27.438  -8.498  36.232  1.00  0.00     0.303 C 
ENDROOT
BRANCH   1   7
HETATM    7  C5  UNK     1      30.697  -7.943  38.052  1.00  0.00     0.312 C 
BRANCH   7   8
HETATM    8  C7  UNK     1      30.561  -6.460  38.030  1.00  0.00    -0.011 A 
HETATM    9  C10 UNK     1      29.637  -5.838  38.777  1.00  0.00     0.092 A 
HETATM   10  C13 UNK     1      29.465  -4.376  38.787  1.00  0.00     0.288 A 
HETATM   11  O1  UNK     1      30.316  -3.642  37.976  1.00  0.00    -0.275 OA
HETATM   12  O4  UNK     1      28.608  -3.841  39.483  1.00  0.00    -0.260 OA
HETATM   13  C11 UNK     1      31.296  -4.267  37.179  1.00  0.00     0.090 A 
HETATM   14  C8  UNK     1      31.448  -5.655  37.179  1.00  0.00     0.009 A 
HETATM   15  C15 UNK     1      32.096  -3.429  36.401  1.00  0.00     0.041 A 
HETATM   16  C12 UNK     1      32.445  -6.199  36.359  1.00  0.00     0.051 A 
HETATM   17  C16 UNK     1      33.256  -5.372  35.573  1.00  0.00     0.069 A 
HETATM   18  C17 UNK     1      33.081  -3.989  35.594  1.00  0.00     0.039 A 
BRANCH  17  19
HETATM   19  O3  UNK     1      34.219  -5.921  34.782  1.00  0.00    -0.351 OA
BRANCH  19  20
HETATM   20  C25 UNK     1      34.884  -7.080  35.282  1.00  0.00     0.171 C 
HETATM   21  C26 UNK     1      36.331  -7.048  34.838  1.00  0.00     0.034 C 
ENDBRANCH  19  20
ENDBRANCH  17  19
ENDBRANCH   7   8
ENDBRANCH   1   7
BRANCH   2  22
HETATM   22  C6  UNK     1      25.366  -9.483  36.973  1.00  0.00     0.375 C 
BRANCH  22  23
HETATM   23  C9  UNK     1      24.167  -8.734  37.531  1.00  0.00     0.250 C 
HETATM   24  O2  UNK     1      24.272  -7.668  38.126  1.00  0.00    -0.271 OA
HETATM   25  N3  UNK     1      22.992  -9.432  37.254  1.00  0.00    -0.325 N 
HETATM   26  H14 UNK     1      23.088 -10.301  36.737  1.00  0.00     0.169 HD
BRANCH  25  27
HETATM   27  C14 UNK     1      21.671  -9.070  37.603  1.00  0.00     0.041 A 
HETATM   28  C18 UNK     1      20.755  -8.673  36.629  1.00  0.00    -0.029 A 
HETATM   29  C20 UNK     1      19.456  -8.320  36.995  1.00  0.00    -0.054 A 
HETATM   30  C21 UNK     1      21.160  -8.625  35.190  1.00  0.00     0.051 C 
HETATM   31  C23 UNK     1      19.073  -8.362  38.336  1.00  0.00     0.007 A 
HETATM   32  C24 UNK     1      18.455  -7.892  35.972  1.00  0.00     0.049 C 
HETATM   33  C22 UNK     1      19.989  -8.759  39.310  1.00  0.00     0.003 A 
HETATM   34  C19 UNK     1      21.288  -9.112  38.944  1.00  0.00     0.030 A 
ENDBRANCH  25  27
ENDBRANCH  22  23
ENDBRANCH   2  22
TORSDOF 7
ENDMDL
MODEL 8
REMARK VINA RESULT:      -8.9      2.368     11.703
REMARK  7 active torsions:
REMARK  status: ('A' for Active; 'I' for Inactive)
REMARK    1  A    between atoms: C16_23  and  O3_3 
REMARK    2  A    between atoms: C25_32  and  O3_3 
REMARK    3  A    between atoms: C5_12  and  N1_5 
REMARK    4  A    between atoms: C6_13  and  N2_6 
REMARK    5  A    between atoms: C14_21  and  N3_7 
REMARK       I    between atoms: C9_16  and  N3_7 
REMARK    6  A    between atoms: C5_12  and  C7_14 
REMARK    7  A    between atoms: C6_13  and  C9_16 
ROOT
HETATM    1  N1  UNK     1      17.956   1.303  35.247  1.00  0.00     0.096 N 
HETATM    2  N2  UNK     1      18.437  -1.306  36.395  1.00  0.00     0.100 N 
HETATM    3  C1  UNK     1      19.014   0.426  34.731  1.00  0.00     0.303 C 
HETATM    4  C2  UNK     1      17.725   1.043  36.673  1.00  0.00     0.303 C 
HETATM    5  C3  UNK     1      18.666  -1.047  34.969  1.00  0.00     0.303 C 
HETATM    6  C4  UNK     1      17.377  -0.431  36.910  1.00  0.00     0.303 C 
ENDROOT
BRANCH   1   7
HETATM    7  C5  UNK     1      18.290   2.708  35.023  1.00  0.00     0.312 C 
BRANCH   7   8
HETATM    8  C7  UNK     1      18.284   3.064  33.578  1.00  0.00    -0.011 A 
HETATM    9  C10 UNK     1      18.280   2.115  32.630  1.00  0.00     0.092 A 
HETATM   10  C13 UNK     1      18.276   2.418  31.190  1.00  0.00     0.288 A 
HETATM   11  O1  UNK     1      18.273   3.758  30.835  1.00  0.00    -0.275 OA
HETATM   12  O4  UNK     1      18.273   1.523  30.351  1.00  0.00    -0.260 OA
HETATM   13  C11 UNK     1      18.277   4.779  31.807  1.00  0.00     0.090 A 
HETATM   14  C8  UNK     1      18.283   4.476  33.170  1.00  0.00     0.009 A 
HETATM   15  C15 UNK     1      18.275   6.092  31.335  1.00  0.00     0.041 A 
HETATM   16  C12 UNK     1      18.287   5.547  34.073  1.00  0.00     0.051 A 
HETATM   17  C16 UNK     1      18.285   6.870  33.615  1.00  0.00     0.069 A 
HETATM   18  C17 UNK     1      18.279   7.141  32.248  1.00  0.00     0.039 A 
BRANCH  17  19
HETATM   19  O3  UNK     1      18.290   7.896  34.510  1.00  0.00    -0.351 OA
BRANCH  19  20
HETATM   20  C25 UNK     1      18.812   9.146  34.059  1.00  0.00     0.171 C 
HETATM   21  C26 UNK     1      20.253   9.268  34.504  1.00  0.00     0.034 C 
ENDBRANCH  19  20
ENDBRANCH  17  19
ENDBRANCH   7   8
ENDBRANCH   1   7
BRANCH   2  22
HETATM   22  C6  UNK     1      18.104  -2.712  36.620  1.00  0.00     0.375 C 
BRANCH  22  23
HETATM   23  C9  UNK     1      19.377  -3.495  36.890  1.00  0.00     0.250 C 
HETATM   24  O2  UNK     1      20.479  -2.962  36.961  1.00  0.00    -0.271 OA
HETATM   25  N3  UNK     1      19.086  -4.850  37.041  1.00  0.00    -0.325 N 
HETATM   26  H14 UNK     1      18.110  -5.120  36.962  1.00  0.00     0.169 HD
BRANCH  25  27
HETATM   27  C14 UNK     1      19.993  -5.904  37.302  1.00  0.00     0.041 A 
HETATM   28  C18 UNK     1      20.337  -6.818  36.306  1.00  0.00    -0.029 A 
HETATM   29  C20 UNK     1      21.233  -7.850  36.585  1.00  0.00    -0.054 A 
HETATM   30  C21 UNK     1      19.746  -6.697  34.937  1.00  0.00     0.051 C 
HETATM   31  C23 UNK     1      21.786  -7.967  37.861  1.00  0.00     0.007 A 
HETATM   32  C24 UNK     1      21.618  -8.842  35.538  1.00  0.00     0.049 C 
HETATM   33  C22 UNK     1      21.442  -7.053  38.857  1.00  0.00     0.003 A 
HETATM   34  C19 UNK     1      20.546  -6.021  38.578  1.00  0.00     0.030 A 
ENDBRANCH  25  27
ENDBRANCH  22  23
ENDBRANCH   2  22
TORSDOF 7
ENDMDL
MODEL 9
REMARK VINA RESULT:      -8.8      8.578     12.839
REMARK  7 active torsions:
REMARK  status: ('A' for Active; 'I' for Inactive)
REMARK    1  A    between atoms: C16_23  and  O3_3 
REMARK    2  A    between atoms: C25_32  and  O3_3 
REMARK    3  A    between atoms: C5_12  and  N1_5 
REMARK    4  A    between atoms: C6_13  and  N2_6 
REMARK    5  A    between atoms: C14_21  and  N3_7 
REMARK       I    between atoms: C9_16  and  N3_7 
REMARK    6  A    between atoms: C5_12  and  C7_14 
REMARK    7  A    between atoms: C6_13  and  C9_16 
ROOT
HETATM    1  N1  UNK     1      26.751  -9.460  37.656  1.00  0.00     0.096 N 
HETATM    2  N2  UNK     1      29.564  -9.236  38.284  1.00  0.00     0.100 N 
HETATM    3  C1  UNK     1      27.672  -8.727  36.779  1.00  0.00     0.303 C 
HETATM    4  C2  UNK     1      27.221  -9.415  39.046  1.00  0.00     0.303 C 
HETATM    5  C3  UNK     1      29.095  -9.283  36.894  1.00  0.00     0.303 C 
HETATM    6  C4  UNK     1      28.644  -9.972  39.159  1.00  0.00     0.303 C 
ENDROOT
BRANCH   1   7
HETATM    7  C5  UNK     1      25.395  -8.926  37.549  1.00  0.00     0.312 C 
BRANCH   7   8
HETATM    8  C7  UNK     1      24.492  -9.831  36.786  1.00  0.00    -0.011 A 
HETATM    9  C10 UNK     1      24.930 -11.005  36.309  1.00  0.00     0.092 A 
HETATM   10  C13 UNK     1      24.076 -11.932  35.549  1.00  0.00     0.288 A 
HETATM   11  O1  UNK     1      22.764 -11.540  35.339  1.00  0.00    -0.275 OA
HETATM   12  O4  UNK     1      24.512 -12.998  35.127  1.00  0.00    -0.260 OA
HETATM   13  C11 UNK     1      22.273 -10.312  35.827  1.00  0.00     0.090 A 
HETATM   14  C8  UNK     1      23.096  -9.442  36.545  1.00  0.00     0.009 A 
HETATM   15  C15 UNK     1      20.936 -10.019  35.554  1.00  0.00     0.041 A 
HETATM   16  C12 UNK     1      22.533  -8.240  36.996  1.00  0.00     0.051 A 
HETATM   17  C16 UNK     1      21.194  -7.933  36.731  1.00  0.00     0.069 A 
HETATM   18  C17 UNK     1      20.397  -8.822  36.011  1.00  0.00     0.039 A 
BRANCH  17  19
HETATM   19  O3  UNK     1      20.667  -6.759  37.177  1.00  0.00    -0.351 OA
BRANCH  19  20
HETATM   20  C25 UNK     1      19.543  -6.845  38.051  1.00  0.00     0.171 C 
HETATM   21  C26 UNK     1      20.035  -6.998  39.475  1.00  0.00     0.034 C 
ENDBRANCH  19  20
ENDBRANCH  17  19
ENDBRANCH   7   8
ENDBRANCH   1   7
BRANCH   2  22
HETATM   22  C6  UNK     1      30.921  -9.770  38.392  1.00  0.00     0.375 C 
BRANCH  22  23
HETATM   23  C9  UNK     1      31.814  -9.089  37.369  1.00  0.00     0.250 C 
HETATM   24  O2  UNK     1      32.186  -9.645  36.341  1.00  0.00    -0.271 OA
HETATM   25  N3  UNK     1      32.113  -7.790  37.779  1.00  0.00    -0.325 N 
HETATM   26  H14 UNK     1      31.709  -7.484  38.660  1.00  0.00     0.169 HD
BRANCH  25  27
HETATM   27  C14 UNK     1      32.911  -6.835  37.108  1.00  0.00     0.041 A 
HETATM   28  C18 UNK     1      32.342  -5.919  36.223  1.00  0.00    -0.029 A 
HETATM   29  C20 UNK     1      33.148  -4.985  35.572  1.00  0.00    -0.054 A 
HETATM   30  C21 UNK     1      30.868  -5.932  35.970  1.00  0.00     0.051 C 
HETATM   31  C23 UNK     1      34.524  -4.969  35.804  1.00  0.00     0.007 A 
HETATM   32  C24 UNK     1      32.565  -3.992  34.621  1.00  0.00     0.049 C 
HETATM   33  C22 UNK     1      35.093  -5.885  36.688  1.00  0.00     0.003 A 
HETATM   34  C19 UNK     1      34.287  -6.818  37.340  1.00  0.00     0.030 A 
ENDBRANCH  25  27
ENDBRANCH  22  23
ENDBRANCH   2  22
TORSDOF 7
ENDMDL
MODEL 10
REMARK VINA RESULT:      -8.8      2.269     11.854
REMARK  7 active torsions:
REMARK  status: ('A' for Active; 'I' for Inactive)
REMARK    1  A    between atoms: C16_23  and  O3_3 
REMARK    2  A    between atoms: C25_32  and  O3_3 
REMARK    3  A    between atoms: C5_12  and  N1_5 
REMARK    4  A    between atoms: C6_13  and  N2_6 
REMARK    5  A    between atoms: C14_21  and  N3_7 
REMARK       I    between atoms: C9_16  and  N3_7 
REMARK    6  A    between atoms: C5_12  and  C7_14 
REMARK    7  A    between atoms: C6_13  and  C9_16 
ROOT
HETATM    1  N1  UNK     1      18.688   0.929  34.123  1.00  0.00     0.096 N 
HETATM    2  N2  UNK     1      19.289  -1.578  35.432  1.00  0.00     0.100 N 
HETATM    3  C1  UNK     1      18.644   0.802  35.585  1.00  0.00     0.303 C 
HETATM    4  C2  UNK     1      18.377  -0.358  33.487  1.00  0.00     0.303 C 
HETATM    5  C3  UNK     1      19.601  -0.293  36.067  1.00  0.00     0.303 C 
HETATM    6  C4  UNK     1      19.336  -1.451  33.970  1.00  0.00     0.303 C 
ENDROOT
BRANCH   1   7
HETATM    7  C5  UNK     1      17.771   1.970  33.664  1.00  0.00     0.312 C 
BRANCH   7   8
HETATM    8  C7  UNK     1      18.192   2.553  32.360  1.00  0.00    -0.011 A 
HETATM    9  C10 UNK     1      18.388   1.777  31.285  1.00  0.00     0.092 A 
HETATM   10  C13 UNK     1      18.804   2.308  29.976  1.00  0.00     0.288 A 
HETATM   11  O1  UNK     1      18.990   3.679  29.890  1.00  0.00    -0.275 OA
HETATM   12  O4  UNK     1      18.976   1.567  29.014  1.00  0.00    -0.260 OA
HETATM   13  C11 UNK     1      18.791   4.521  31.002  1.00  0.00     0.090 A 
HETATM   14  C8  UNK     1      18.398   4.003  32.238  1.00  0.00     0.009 A 
HETATM   15  C15 UNK     1      19.008   5.885  30.801  1.00  0.00     0.041 A 
HETATM   16  C12 UNK     1      18.222   4.907  33.294  1.00  0.00     0.051 A 
HETATM   17  C16 UNK     1      18.435   6.277  33.108  1.00  0.00     0.069 A 
HETATM   18  C17 UNK     1      18.828   6.765  31.862  1.00  0.00     0.039 A 
BRANCH  17  19
HETATM   19  O3  UNK     1      18.260   7.138  34.148  1.00  0.00    -0.351 OA
BRANCH  19  20
HETATM   20  C25 UNK     1      18.557   8.513  33.908  1.00  0.00     0.171 C 
HETATM   21  C26 UNK     1      19.887   8.849  34.547  1.00  0.00     0.034 C 
ENDBRANCH  19  20
ENDBRANCH  17  19
ENDBRANCH   7   8
ENDBRANCH   1   7
BRANCH   2  22
HETATM   22  C6  UNK     1      20.204  -2.621  35.892  1.00  0.00     0.375 C 
BRANCH  22  23
HETATM   23  C9  UNK     1      19.404  -3.789  36.442  1.00  0.00     0.250 C 
HETATM   24  O2  UNK     1      18.302  -3.648  36.963  1.00  0.00    -0.271 OA
HETATM   25  N3  UNK     1      20.101  -4.981  36.256  1.00  0.00    -0.325 N 
HETATM   26  H14 UNK     1      21.003  -4.916  35.793  1.00  0.00     0.169 HD
BRANCH  25  27
HETATM   27  C14 UNK     1      19.697  -6.285  36.628  1.00  0.00     0.041 A 
HETATM   28  C18 UNK     1      20.171  -6.876  37.799  1.00  0.00    -0.029 A 
HETATM   29  C20 UNK     1      19.759  -8.162  38.148  1.00  0.00    -0.054 A 
HETATM   30  C21 UNK     1      21.121  -6.134  38.686  1.00  0.00     0.051 C 
HETATM   31  C23 UNK     1      18.873  -8.858  37.324  1.00  0.00     0.007 A 
HETATM   32  C24 UNK     1      20.251  -8.818  39.396  1.00  0.00     0.049 C 
HETATM   33  C22 UNK     1      18.399  -8.267  36.153  1.00  0.00     0.003 A 
HETATM   34  C19 UNK     1      18.811  -6.981  35.805  1.00  0.00     0.030 A 
ENDBRANCH  25  27
ENDBRANCH  22  23
ENDBRANCH   2  22
TORSDOF 7
ENDMDL
