MODEL 1
REMARK VINA RESULT:      -8.5      0.000      0.000
REMARK  2 active torsions:
REMARK  status: ('A' for Active; 'I' for Inactive)
REMARK    1  A    between atoms: C8_14  and  N1_5 
REMARK    2  A    between atoms: C1_7  and  C4_10 
ROOT
HETATM    1  O1  UNK     1      13.029   9.482   9.711  1.00  0.00    -0.291 OA
HETATM    2  O2  UNK     1      14.390   5.525   9.699  1.00  0.00    -0.274 OA
HETATM    3  O3  UNK     1      12.236   4.782   9.621  1.00  0.00    -0.259 OA
HETATM    4  N2  UNK     1       8.223   9.517  10.026  1.00  0.00    -0.191 NA
HETATM    5  C1  UNK     1      11.059   7.406   9.494  1.00  0.00     0.112 C 
HETATM    6  C2  UNK     1      12.548   7.138   9.602  1.00  0.00     0.066 A 
HETATM    7  C3  UNK     1      13.420   8.155   9.690  1.00  0.00     0.104 A 
HETATM    8  C5  UNK     1      10.717   8.873   9.738  1.00  0.00     0.086 C 
HETATM    9  C6  UNK     1      14.858   7.912   9.764  1.00  0.00     0.033 A 
HETATM   10  C7  UNK     1      13.015   5.729   9.641  1.00  0.00     0.298 A 
HETATM   11  C8  UNK     1      11.681   9.817   9.823  1.00  0.00     0.159 C 
HETATM   12  C9  UNK     1      15.305   6.595   9.760  1.00  0.00     0.092 A 
HETATM   13  C12 UNK     1      15.814   8.933   9.834  1.00  0.00     0.017 A 
HETATM   14  C13 UNK     1      16.659   6.270   9.823  1.00  0.00     0.038 A 
HETATM   15  C16 UNK     1      17.177   8.624   9.897  1.00  0.00     0.001 A 
HETATM   16  C17 UNK     1       9.339   9.228   9.897  1.00  0.00     0.100 C 
HETATM   17  C18 UNK     1      17.599   7.295   9.891  1.00  0.00     0.003 A 
ENDROOT
BRANCH   5  18
HETATM   18  C4  UNK     1      10.543   6.971   8.154  1.00  0.00    -0.005 A 
HETATM   19  C10 UNK     1       9.358   6.247   8.071  1.00  0.00     0.123 A 
HETATM   20  C14 UNK     1       8.881   5.846   6.823  1.00  0.00     0.043 A 
HETATM   21  F1  UNK     1       8.670   5.930   9.176  1.00  0.00    -0.206 F 
HETATM   22  C19 UNK     1       9.592   6.169   5.667  1.00  0.00     0.003 A 
HETATM   23  C15 UNK     1      10.779   6.895   5.759  1.00  0.00     0.001 A 
HETATM   24  C11 UNK     1      11.255   7.298   7.006  1.00  0.00     0.011 A 
ENDBRANCH   5  18
BRANCH  11  25
HETATM   25  N1  UNK     1      11.462  11.152  10.023  1.00  0.00    -0.379 N 
HETATM   26  H10 UNK     1      12.234  11.801  10.098  1.00  0.00     0.158 HD
HETATM   27  H9  UNK     1      10.508  11.484  10.096  1.00  0.00     0.158 HD
ENDBRANCH  11  25
TORSDOF 2
ENDMDL
MODEL 2
REMARK VINA RESULT:      -8.1     35.168     36.450
REMARK  2 active torsions:
REMARK  status: ('A' for Active; 'I' for Inactive)
REMARK    1  A    between atoms: C8_14  and  N1_5 
REMARK    2  A    between atoms: C1_7  and  C4_10 
ROOT
HETATM    1  O1  UNK     1      31.731  -5.020  36.005  1.00  0.00    -0.291 OA
HETATM    2  O2  UNK     1      32.714  -9.075  36.310  1.00  0.00    -0.274 OA
HETATM    3  O3  UNK     1      31.534  -9.218  38.256  1.00  0.00    -0.259 OA
HETATM    4  N2  UNK     1      29.396  -3.640  39.987  1.00  0.00    -0.191 NA
HETATM    5  C1  UNK     1      30.620  -6.489  38.208  1.00  0.00     0.112 C 
HETATM    6  C2  UNK     1      31.533  -7.106  37.165  1.00  0.00     0.066 A 
HETATM    7  C3  UNK     1      32.011  -6.366  36.152  1.00  0.00     0.104 A 
HETATM    8  C5  UNK     1      30.544  -4.970  38.082  1.00  0.00     0.086 C 
HETATM    9  C6  UNK     1      32.865  -6.956  35.125  1.00  0.00     0.033 A 
HETATM   10  C7  UNK     1      31.910  -8.536  37.309  1.00  0.00     0.298 A 
HETATM   11  C8  UNK     1      31.074  -4.323  37.019  1.00  0.00     0.159 C 
HETATM   12  C9  UNK     1      33.189  -8.304  35.232  1.00  0.00     0.092 A 
HETATM   13  C12 UNK     1      33.373  -6.239  34.034  1.00  0.00     0.017 A 
HETATM   14  C13 UNK     1      33.995  -8.950  34.295  1.00  0.00     0.038 A 
HETATM   15  C16 UNK     1      34.182  -6.872  33.086  1.00  0.00     0.001 A 
HETATM   16  C17 UNK     1      29.910  -4.235  39.135  1.00  0.00     0.100 C 
HETATM   17  C18 UNK     1      34.493  -8.226  33.215  1.00  0.00     0.003 A 
ENDROOT
BRANCH   5  18
HETATM   18  C4  UNK     1      29.245  -7.084  38.121  1.00  0.00    -0.005 A 
HETATM   19  C10 UNK     1      28.572  -7.091  36.905  1.00  0.00     0.123 A 
HETATM   20  C14 UNK     1      27.294  -7.645  36.828  1.00  0.00     0.043 A 
HETATM   21  F1  UNK     1      29.135  -6.572  35.806  1.00  0.00    -0.206 F 
HETATM   22  C19 UNK     1      26.698  -8.187  37.967  1.00  0.00     0.003 A 
HETATM   23  C15 UNK     1      27.380  -8.175  39.183  1.00  0.00     0.001 A 
HETATM   24  C11 UNK     1      28.658  -7.622  39.260  1.00  0.00     0.011 A 
ENDBRANCH   5  18
BRANCH  11  25
HETATM   25  N1  UNK     1      31.036  -2.970  36.820  1.00  0.00    -0.379 N 
HETATM   26  H10 UNK     1      30.772  -2.342  37.567  1.00  0.00     0.158 HD
HETATM   27  H9  UNK     1      31.276  -2.605  35.908  1.00  0.00     0.158 HD
ENDBRANCH  11  25
TORSDOF 2
ENDMDL
MODEL 3
REMARK VINA RESULT:      -7.9     35.350     36.694
REMARK  2 active torsions:
REMARK  status: ('A' for Active; 'I' for Inactive)
REMARK    1  A    between atoms: C8_14  and  N1_5 
REMARK    2  A    between atoms: C1_7  and  C4_10 
ROOT
HETATM    1  O1  UNK     1      29.231  -5.824  38.870  1.00  0.00    -0.291 OA
HETATM    2  O2  UNK     1      28.931  -9.008  36.172  1.00  0.00    -0.274 OA
HETATM    3  O3  UNK     1      30.244  -7.879  34.689  1.00  0.00    -0.259 OA
HETATM    4  N2  UNK     1      31.571  -2.172  36.775  1.00  0.00    -0.191 NA
HETATM    5  C1  UNK     1      30.704  -5.621  36.414  1.00  0.00     0.112 C 
HETATM    6  C2  UNK     1      29.836  -6.812  36.774  1.00  0.00     0.066 A 
HETATM    7  C3  UNK     1      29.180  -6.851  37.944  1.00  0.00     0.104 A 
HETATM    8  C5  UNK     1      30.528  -4.463  37.392  1.00  0.00     0.086 C 
HETATM    9  C6  UNK     1      28.366  -8.004  38.315  1.00  0.00     0.033 A 
HETATM   10  C7  UNK     1      29.702  -7.916  35.789  1.00  0.00     0.298 A 
HETATM   11  C8  UNK     1      29.833  -4.610  38.542  1.00  0.00     0.159 C 
HETATM   12  C9  UNK     1      28.269  -9.060  37.414  1.00  0.00     0.092 A 
HETATM   13  C12 UNK     1      27.679  -8.110  39.531  1.00  0.00     0.017 A 
HETATM   14  C13 UNK     1      27.517 -10.202  37.687  1.00  0.00     0.038 A 
HETATM   15  C16 UNK     1      26.921  -9.249  39.820  1.00  0.00     0.001 A 
HETATM   16  C17 UNK     1      31.104  -3.197  37.050  1.00  0.00     0.100 C 
HETATM   17  C18 UNK     1      26.840 -10.294  38.900  1.00  0.00     0.003 A 
ENDROOT
BRANCH   5  18
HETATM   18  C4  UNK     1      32.148  -6.025  36.347  1.00  0.00    -0.005 A 
HETATM   19  C10 UNK     1      32.895  -5.731  35.212  1.00  0.00     0.123 A 
HETATM   20  C14 UNK     1      34.237  -6.108  35.153  1.00  0.00     0.043 A 
HETATM   21  F1  UNK     1      32.342  -5.092  34.173  1.00  0.00    -0.206 F 
HETATM   22  C19 UNK     1      34.823  -6.776  36.229  1.00  0.00     0.003 A 
HETATM   23  C15 UNK     1      34.066  -7.067  37.364  1.00  0.00     0.001 A 
HETATM   24  C11 UNK     1      32.724  -6.689  37.423  1.00  0.00     0.011 A 
ENDBRANCH   5  18
BRANCH  11  25
HETATM   25  N1  UNK     1      29.641  -3.632  39.478  1.00  0.00    -0.379 N 
HETATM   26  H10 UNK     1      30.146  -2.757  39.428  1.00  0.00     0.158 HD
HETATM   27  H9  UNK     1      28.983  -3.797  40.229  1.00  0.00     0.158 HD
ENDBRANCH  11  25
TORSDOF 2
ENDMDL
MODEL 4
REMARK VINA RESULT:      -7.7     32.223     35.035
REMARK  2 active torsions:
REMARK  status: ('A' for Active; 'I' for Inactive)
REMARK    1  A    between atoms: C8_14  and  N1_5 
REMARK    2  A    between atoms: C1_7  and  C4_10 
ROOT
HETATM    1  O1  UNK     1      28.268  -7.740  34.938  1.00  0.00    -0.291 OA
HETATM    2  O2  UNK     1      30.880  -5.875  32.254  1.00  0.00    -0.274 OA
HETATM    3  O3  UNK     1      31.762  -4.646  33.960  1.00  0.00    -0.259 OA
HETATM    4  N2  UNK     1      28.699  -5.685  39.273  1.00  0.00    -0.191 NA
HETATM    5  C1  UNK     1      30.161  -5.870  36.016  1.00  0.00     0.112 C 
HETATM    6  C2  UNK     1      30.066  -6.208  34.540  1.00  0.00     0.066 A 
HETATM    7  C3  UNK     1      29.165  -7.100  34.101  1.00  0.00     0.104 A 
HETATM    8  C5  UNK     1      29.004  -6.458  36.819  1.00  0.00     0.086 C 
HETATM    9  C6  UNK     1      29.084  -7.457  32.687  1.00  0.00     0.033 A 
HETATM   10  C7  UNK     1      30.969  -5.507  33.592  1.00  0.00     0.298 A 
HETATM   11  C8  UNK     1      28.142  -7.344  36.269  1.00  0.00     0.159 C 
HETATM   12  C9  UNK     1      29.954  -6.834  31.799  1.00  0.00     0.092 A 
HETATM   13  C12 UNK     1      28.180  -8.397  32.175  1.00  0.00     0.017 A 
HETATM   14  C13 UNK     1      29.950  -7.116  30.434  1.00  0.00     0.038 A 
HETATM   15  C16 UNK     1      28.163  -8.692  30.809  1.00  0.00     0.001 A 
HETATM   16  C17 UNK     1      28.836  -6.031  38.175  1.00  0.00     0.100 C 
HETATM   17  C18 UNK     1      29.047  -8.053  29.938  1.00  0.00     0.003 A 
ENDROOT
BRANCH   5  18
HETATM   18  C4  UNK     1      31.471  -6.339  36.580  1.00  0.00    -0.005 A 
HETATM   19  C10 UNK     1      32.308  -5.436  37.225  1.00  0.00     0.123 A 
HETATM   20  C14 UNK     1      33.525  -5.876  37.747  1.00  0.00     0.043 A 
HETATM   21  F1  UNK     1      31.962  -4.148  37.349  1.00  0.00    -0.206 F 
HETATM   22  C19 UNK     1      33.895  -7.215  37.622  1.00  0.00     0.003 A 
HETATM   23  C15 UNK     1      33.050  -8.114  36.973  1.00  0.00     0.001 A 
HETATM   24  C11 UNK     1      31.833  -7.675  36.451  1.00  0.00     0.011 A 
ENDBRANCH   5  18
BRANCH  11  25
HETATM   25  N1  UNK     1      27.092  -7.930  36.919  1.00  0.00    -0.379 N 
HETATM   26  H10 UNK     1      26.386  -8.446  36.409  1.00  0.00     0.158 HD
HETATM   27  H9  UNK     1      27.028  -7.838  37.925  1.00  0.00     0.158 HD
ENDBRANCH  11  25
TORSDOF 2
ENDMDL
MODEL 5
REMARK VINA RESULT:      -7.7     32.241     35.010
REMARK  2 active torsions:
REMARK  status: ('A' for Active; 'I' for Inactive)
REMARK    1  A    between atoms: C8_14  and  N1_5 
REMARK    2  A    between atoms: C1_7  and  C4_10 
ROOT
HETATM    1  O1  UNK     1      31.852  -5.904  33.602  1.00  0.00    -0.291 OA
HETATM    2  O2  UNK     1      27.905  -7.282  33.773  1.00  0.00    -0.274 OA
HETATM    3  O3  UNK     1      28.226  -7.942  35.932  1.00  0.00    -0.259 OA
HETATM    4  N2  UNK     1      34.139  -7.103  37.669  1.00  0.00    -0.191 NA
HETATM    5  C1  UNK     1      30.927  -6.963  36.106  1.00  0.00     0.112 C 
HETATM    6  C2  UNK     1      30.064  -6.881  34.861  1.00  0.00     0.066 A 
HETATM    7  C3  UNK     1      30.553  -6.365  33.723  1.00  0.00     0.104 A 
HETATM    8  C5  UNK     1      32.389  -6.632  35.817  1.00  0.00     0.086 C 
HETATM    9  C6  UNK     1      29.723  -6.252  32.527  1.00  0.00     0.033 A 
HETATM   10  C7  UNK     1      28.678  -7.414  34.922  1.00  0.00     0.298 A 
HETATM   11  C8  UNK     1      32.775  -6.126  34.623  1.00  0.00     0.159 C 
HETATM   12  C9  UNK     1      28.412  -6.713  32.589  1.00  0.00     0.092 A 
HETATM   13  C12 UNK     1      30.173  -5.702  31.320  1.00  0.00     0.017 A 
HETATM   14  C13 UNK     1      27.547  -6.641  31.497  1.00  0.00     0.038 A 
HETATM   15  C16 UNK     1      29.318  -5.623  30.216  1.00  0.00     0.001 A 
HETATM   16  C17 UNK     1      33.356  -6.892  36.840  1.00  0.00     0.100 C 
HETATM   17  C18 UNK     1      28.007  -6.091  30.304  1.00  0.00     0.003 A 
ENDROOT
BRANCH   5  18
HETATM   18  C4  UNK     1      30.395  -6.054  37.175  1.00  0.00    -0.005 A 
HETATM   19  C10 UNK     1      29.857  -6.597  38.337  1.00  0.00     0.123 A 
HETATM   20  C14 UNK     1      29.363  -5.749  39.329  1.00  0.00     0.043 A 
HETATM   21  F1  UNK     1      29.806  -7.924  38.515  1.00  0.00    -0.206 F 
HETATM   22  C19 UNK     1      29.410  -4.366  39.153  1.00  0.00     0.003 A 
HETATM   23  C15 UNK     1      29.951  -3.830  37.985  1.00  0.00     0.001 A 
HETATM   24  C11 UNK     1      30.446  -4.678  36.993  1.00  0.00     0.011 A 
ENDBRANCH   5  18
BRANCH  11  25
HETATM   25  N1  UNK     1      34.057  -5.788  34.288  1.00  0.00    -0.379 N 
HETATM   26  H10 UNK     1      34.686  -5.389  34.972  1.00  0.00     0.158 HD
HETATM   27  H9  UNK     1      34.369  -5.942  33.338  1.00  0.00     0.158 HD
ENDBRANCH  11  25
TORSDOF 2
ENDMDL
MODEL 6
REMARK VINA RESULT:      -7.6     32.362     34.994
REMARK  2 active torsions:
REMARK  status: ('A' for Active; 'I' for Inactive)
REMARK    1  A    between atoms: C8_14  and  N1_5 
REMARK    2  A    between atoms: C1_7  and  C4_10 
ROOT
HETATM    1  O1  UNK     1      30.237  -5.677  34.212  1.00  0.00    -0.291 OA
HETATM    2  O2  UNK     1      28.422  -9.250  33.011  1.00  0.00    -0.274 OA
HETATM    3  O3  UNK     1      29.088 -10.244  34.952  1.00  0.00    -0.259 OA
HETATM    4  N2  UNK     1      32.648  -6.412  38.317  1.00  0.00    -0.191 NA
HETATM    5  C1  UNK     1      30.301  -7.878  36.054  1.00  0.00     0.112 C 
HETATM    6  C2  UNK     1      29.649  -7.949  34.686  1.00  0.00     0.066 A 
HETATM    7  C3  UNK     1      29.644  -6.880  33.875  1.00  0.00     0.104 A 
HETATM    8  C5  UNK     1      31.103  -6.593  36.245  1.00  0.00     0.086 C 
HETATM    9  C6  UNK     1      28.994  -6.927  32.569  1.00  0.00     0.033 A 
HETATM   10  C7  UNK     1      29.047  -9.237  34.254  1.00  0.00     0.298 A 
HETATM   11  C8  UNK     1      31.033  -5.579  35.353  1.00  0.00     0.159 C 
HETATM   12  C9  UNK     1      28.392  -8.118  32.174  1.00  0.00     0.092 A 
HETATM   13  C12 UNK     1      28.937  -5.837  31.691  1.00  0.00     0.017 A 
HETATM   14  C13 UNK     1      27.745  -8.251  30.946  1.00  0.00     0.038 A 
HETATM   15  C16 UNK     1      28.292  -5.954  30.456  1.00  0.00     0.001 A 
HETATM   16  C17 UNK     1      31.957  -6.494  37.390  1.00  0.00     0.100 C 
HETATM   17  C18 UNK     1      27.696  -7.160  30.084  1.00  0.00     0.003 A 
ENDROOT
BRANCH   5  18
HETATM   18  C4  UNK     1      29.268  -8.006  37.136  1.00  0.00    -0.005 A 
HETATM   19  C10 UNK     1      29.353  -9.048  38.053  1.00  0.00     0.123 A 
HETATM   20  C14 UNK     1      28.392  -9.164  39.056  1.00  0.00     0.043 A 
HETATM   21  F1  UNK     1      30.348  -9.943  37.983  1.00  0.00    -0.206 F 
HETATM   22  C19 UNK     1      27.351  -8.238  39.137  1.00  0.00     0.003 A 
HETATM   23  C15 UNK     1      27.273  -7.196  38.213  1.00  0.00     0.001 A 
HETATM   24  C11 UNK     1      28.235  -7.079  37.210  1.00  0.00     0.011 A 
ENDBRANCH   5  18
BRANCH  11  25
HETATM   25  N1  UNK     1      31.704  -4.392  35.455  1.00  0.00    -0.379 N 
HETATM   26  H10 UNK     1      31.214  -3.535  35.676  1.00  0.00     0.158 HD
HETATM   27  H9  UNK     1      32.704  -4.383  35.304  1.00  0.00     0.158 HD
ENDBRANCH  11  25
TORSDOF 2
ENDMDL
MODEL 7
REMARK VINA RESULT:      -7.6     33.679     35.708
REMARK  2 active torsions:
REMARK  status: ('A' for Active; 'I' for Inactive)
REMARK    1  A    between atoms: C8_14  and  N1_5 
REMARK    2  A    between atoms: C1_7  and  C4_10 
ROOT
HETATM    1  O1  UNK     1      30.711  -6.604  38.085  1.00  0.00    -0.291 OA
HETATM    2  O2  UNK     1      27.274  -7.462  35.859  1.00  0.00    -0.274 OA
HETATM    3  O3  UNK     1      28.177  -6.405  34.052  1.00  0.00    -0.259 OA
HETATM    4  N2  UNK     1      33.628  -3.780  35.494  1.00  0.00    -0.191 NA
HETATM    5  C1  UNK     1      30.686  -5.804  35.328  1.00  0.00     0.112 C 
HETATM    6  C2  UNK     1      29.528  -6.513  36.005  1.00  0.00     0.066 A 
HETATM    7  C3  UNK     1      29.607  -6.871  37.296  1.00  0.00     0.104 A 
HETATM    8  C5  UNK     1      31.758  -5.370  36.325  1.00  0.00     0.086 C 
HETATM    9  C6  UNK     1      28.512  -7.581  37.950  1.00  0.00     0.033 A 
HETATM   10  C7  UNK     1      28.297  -6.773  35.216  1.00  0.00     0.298 A 
HETATM   11  C8  UNK     1      31.732  -5.781  37.613  1.00  0.00     0.159 C 
HETATM   12  C9  UNK     1      27.371  -7.863  37.205  1.00  0.00     0.092 A 
HETATM   13  C12 UNK     1      28.547  -7.999  39.287  1.00  0.00     0.017 A 
HETATM   14  C13 UNK     1      26.279  -8.541  37.748  1.00  0.00     0.038 A 
HETATM   15  C16 UNK     1      27.461  -8.680  39.845  1.00  0.00     0.001 A 
HETATM   16  C17 UNK     1      32.791  -4.491  35.865  1.00  0.00     0.100 C 
HETATM   17  C18 UNK     1      26.328  -8.951  39.077  1.00  0.00     0.003 A 
ENDROOT
BRANCH   5  18
HETATM   18  C4  UNK     1      31.290  -6.677  34.268  1.00  0.00    -0.005 A 
HETATM   19  C10 UNK     1      31.317  -6.242  32.948  1.00  0.00     0.123 A 
HETATM   20  C14 UNK     1      31.880  -7.056  31.965  1.00  0.00     0.043 A 
HETATM   21  F1  UNK     1      30.808  -5.050  32.608  1.00  0.00    -0.206 F 
HETATM   22  C19 UNK     1      32.411  -8.300  32.308  1.00  0.00     0.003 A 
HETATM   23  C15 UNK     1      32.380  -8.729  33.635  1.00  0.00     0.001 A 
HETATM   24  C11 UNK     1      31.818  -7.914  34.618  1.00  0.00     0.011 A 
ENDBRANCH   5  18
BRANCH  11  25
HETATM   25  N1  UNK     1      32.659  -5.454  38.564  1.00  0.00    -0.379 N 
HETATM   26  H10 UNK     1      32.949  -4.494  38.698  1.00  0.00     0.158 HD
HETATM   27  H9  UNK     1      33.054  -6.191  39.134  1.00  0.00     0.158 HD
ENDBRANCH  11  25
TORSDOF 2
ENDMDL
MODEL 8
REMARK VINA RESULT:      -7.6     33.020     35.764
REMARK  2 active torsions:
REMARK  status: ('A' for Active; 'I' for Inactive)
REMARK    1  A    between atoms: C8_14  and  N1_5 
REMARK    2  A    between atoms: C1_7  and  C4_10 
ROOT
HETATM    1  O1  UNK     1      27.977  -6.967  35.349  1.00  0.00    -0.291 OA
HETATM    2  O2  UNK     1      30.384  -9.370  37.786  1.00  0.00    -0.274 OA
HETATM    3  O3  UNK     1      32.140  -9.057  36.366  1.00  0.00    -0.259 OA
HETATM    4  N2  UNK     1      30.408  -5.799  31.358  1.00  0.00    -0.191 NA
HETATM    5  C1  UNK     1      30.731  -7.274  34.599  1.00  0.00     0.112 C 
HETATM    6  C2  UNK     1      30.118  -7.932  35.820  1.00  0.00     0.066 A 
HETATM    7  C3  UNK     1      28.824  -7.740  36.122  1.00  0.00     0.104 A 
HETATM    8  C5  UNK     1      29.679  -6.623  33.704  1.00  0.00     0.086 C 
HETATM    9  C6  UNK     1      28.230  -8.344  37.311  1.00  0.00     0.033 A 
HETATM   10  C7  UNK     1      30.971  -8.819  36.652  1.00  0.00     0.298 A 
HETATM   11  C8  UNK     1      28.394  -6.493  34.106  1.00  0.00     0.159 C 
HETATM   12  C9  UNK     1      29.034  -9.143  38.118  1.00  0.00     0.092 A 
HETATM   13  C12 UNK     1      26.893  -8.160  37.689  1.00  0.00     0.017 A 
HETATM   14  C13 UNK     1      28.552  -9.755  39.274  1.00  0.00     0.038 A 
HETATM   15  C16 UNK     1      26.394  -8.767  38.846  1.00  0.00     0.001 A 
HETATM   16  C17 UNK     1      30.082  -6.168  32.408  1.00  0.00     0.100 C 
HETATM   17  C18 UNK     1      27.222  -9.563  39.638  1.00  0.00     0.003 A 
ENDROOT
BRANCH   5  18
HETATM   18  C4  UNK     1      31.758  -6.259  35.009  1.00  0.00    -0.005 A 
HETATM   19  C10 UNK     1      33.038  -6.315  34.469  1.00  0.00     0.123 A 
HETATM   20  C14 UNK     1      33.990  -5.370  34.853  1.00  0.00     0.043 A 
HETATM   21  F1  UNK     1      33.369  -7.266  33.586  1.00  0.00    -0.206 F 
HETATM   22  C19 UNK     1      33.656  -4.376  35.773  1.00  0.00     0.003 A 
HETATM   23  C15 UNK     1      32.370  -4.327  36.310  1.00  0.00     0.001 A 
HETATM   24  C11 UNK     1      31.418  -5.272  35.926  1.00  0.00     0.011 A 
ENDBRANCH   5  18
BRANCH  11  25
HETATM   25  N1  UNK     1      27.395  -5.911  33.377  1.00  0.00    -0.379 N 
HETATM   26  H10 UNK     1      26.655  -5.390  33.830  1.00  0.00     0.158 HD
HETATM   27  H9  UNK     1      27.405  -6.010  32.370  1.00  0.00     0.158 HD
ENDBRANCH  11  25
TORSDOF 2
ENDMDL
MODEL 9
REMARK VINA RESULT:      -7.5      3.524      5.137
REMARK  2 active torsions:
REMARK  status: ('A' for Active; 'I' for Inactive)
REMARK    1  A    between atoms: C8_14  and  N1_5 
REMARK    2  A    between atoms: C1_7  and  C4_10 
ROOT
HETATM    1  O1  UNK     1      14.588  11.926   9.160  1.00  0.00    -0.291 OA
HETATM    2  O2  UNK     1      18.369  10.257   8.509  1.00  0.00    -0.274 OA
HETATM    3  O3  UNK     1      17.803   8.464   9.798  1.00  0.00    -0.259 OA
HETATM    4  N2  UNK     1      12.179   9.229  12.342  1.00  0.00    -0.191 NA
HETATM    5  C1  UNK     1      15.105   9.339  10.292  1.00  0.00     0.112 C 
HETATM    6  C2  UNK     1      16.124  10.117   9.480  1.00  0.00     0.066 A 
HETATM    7  C3  UNK     1      15.816  11.319   8.969  1.00  0.00     0.104 A 
HETATM    8  C5  UNK     1      13.872  10.175  10.623  1.00  0.00     0.086 C 
HETATM    9  C6  UNK     1      16.777  12.064   8.161  1.00  0.00     0.033 A 
HETATM   10  C7  UNK     1      17.477   9.534   9.294  1.00  0.00     0.298 A 
HETATM   11  C8  UNK     1      13.667  11.385  10.056  1.00  0.00     0.159 C 
HETATM   12  C9  UNK     1      18.033  11.505   7.948  1.00  0.00     0.092 A 
HETATM   13  C12 UNK     1      16.503  13.310   7.583  1.00  0.00     0.017 A 
HETATM   14  C13 UNK     1      19.010  12.144   7.186  1.00  0.00     0.038 A 
HETATM   15  C16 UNK     1      17.472  13.964   6.816  1.00  0.00     0.001 A 
HETATM   16  C17 UNK     1      12.937   9.652  11.573  1.00  0.00     0.100 C 
HETATM   17  C18 UNK     1      18.725  13.382   6.617  1.00  0.00     0.003 A 
ENDROOT
BRANCH   5  18
HETATM   18  C4  UNK     1      14.701   8.088   9.568  1.00  0.00    -0.005 A 
HETATM   19  C10 UNK     1      14.985   6.846  10.125  1.00  0.00     0.123 A 
HETATM   20  C14 UNK     1      14.608   5.685   9.450  1.00  0.00     0.043 A 
HETATM   21  F1  UNK     1      15.616   6.750  11.303  1.00  0.00    -0.206 F 
HETATM   22  C19 UNK     1      13.951   5.773   8.222  1.00  0.00     0.003 A 
HETATM   23  C15 UNK     1      13.671   7.023   7.670  1.00  0.00     0.001 A 
HETATM   24  C11 UNK     1      14.047   8.184   8.346  1.00  0.00     0.011 A 
ENDBRANCH   5  18
BRANCH  11  25
HETATM   25  N1  UNK     1      12.585  12.190  10.285  1.00  0.00    -0.379 N 
HETATM   26  H10 UNK     1      12.682  13.064  10.784  1.00  0.00     0.158 HD
HETATM   27  H9  UNK     1      11.678  11.895   9.946  1.00  0.00     0.158 HD
ENDBRANCH  11  25
TORSDOF 2
ENDMDL
MODEL 10
REMARK VINA RESULT:      -7.5     34.952     36.618
REMARK  2 active torsions:
REMARK  status: ('A' for Active; 'I' for Inactive)
REMARK    1  A    between atoms: C8_14  and  N1_5 
REMARK    2  A    between atoms: C1_7  and  C4_10 
ROOT
HETATM    1  O1  UNK     1      29.600  -7.753  35.239  1.00  0.00    -0.291 OA
HETATM    2  O2  UNK     1      29.966  -5.007  38.374  1.00  0.00    -0.274 OA
HETATM    3  O3  UNK     1      28.377  -6.137  39.554  1.00  0.00    -0.259 OA
HETATM    4  N2  UNK     1      25.977 -10.783  36.185  1.00  0.00    -0.191 NA
HETATM    5  C1  UNK     1      28.031  -8.220  37.597  1.00  0.00     0.112 C 
HETATM    6  C2  UNK     1      28.973  -7.041  37.438  1.00  0.00     0.066 A 
HETATM    7  C3  UNK     1      29.688  -6.886  36.313  1.00  0.00     0.104 A 
HETATM    8  C5  UNK     1      27.846  -8.991  36.293  1.00  0.00     0.086 C 
HETATM    9  C6  UNK     1      30.621  -5.773  36.160  1.00  0.00     0.033 A 
HETATM   10  C7  UNK     1      29.061  -6.049  38.540  1.00  0.00     0.298 A 
HETATM   11  C8  UNK     1      28.618  -8.741  35.211  1.00  0.00     0.159 C 
HETATM   12  C9  UNK     1      30.738  -4.862  37.205  1.00  0.00     0.092 A 
HETATM   13  C12 UNK     1      31.408  -5.573  35.019  1.00  0.00     0.017 A 
HETATM   14  C13 UNK     1      31.606  -3.773  37.147  1.00  0.00     0.038 A 
HETATM   15  C16 UNK     1      32.285  -4.486  34.945  1.00  0.00     0.001 A 
HETATM   16  C17 UNK     1      26.814  -9.981  36.234  1.00  0.00     0.100 C 
HETATM   17  C18 UNK     1      32.384  -3.586  36.007  1.00  0.00     0.003 A 
ENDROOT
BRANCH   5  18
HETATM   18  C4  UNK     1      28.519  -9.141  38.677  1.00  0.00    -0.005 A 
HETATM   19  C10 UNK     1      27.686  -9.458  39.744  1.00  0.00     0.123 A 
HETATM   20  C14 UNK     1      28.143 -10.315  40.745  1.00  0.00     0.043 A 
HETATM   21  F1  UNK     1      26.449  -8.949  39.822  1.00  0.00    -0.206 F 
HETATM   22  C19 UNK     1      29.430 -10.848  40.673  1.00  0.00     0.003 A 
HETATM   23  C15 UNK     1      30.260 -10.525  39.600  1.00  0.00     0.001 A 
HETATM   24  C11 UNK     1      29.802  -9.669  38.598  1.00  0.00     0.011 A 
ENDBRANCH   5  18
BRANCH  11  25
HETATM   25  N1  UNK     1      28.530  -9.395  34.012  1.00  0.00    -0.379 N 
HETATM   26  H10 UNK     1      29.294  -9.963  33.673  1.00  0.00     0.158 HD
HETATM   27  H9  UNK     1      27.684  -9.299  33.466  1.00  0.00     0.158 HD
ENDBRANCH  11  25
TORSDOF 2
ENDMDL
