MODEL 1
REMARK VINA RESULT:      -9.5      0.000      0.000
REMARK  2 active torsions:
REMARK  status: ('A' for Active; 'I' for Inactive)
REMARK       I    between atoms: C11_17  and  N1_6 
REMARK    1  A    between atoms: C4_10  and  N1_6 
REMARK    2  A    between atoms: C11_17  and  C12_18 
ROOT
HETATM    1  O1  UNK     1      21.158  -8.766  35.170  1.00  0.00    -0.275 OA
HETATM    2  O3  UNK     1      22.236 -10.665  34.489  1.00  0.00    -0.260 OA
HETATM    3  C1  UNK     1      19.746  -8.843  37.162  1.00  0.00     0.004 A 
HETATM    4  C2  UNK     1      20.298  -8.137  36.092  1.00  0.00     0.092 A 
HETATM    5  C3  UNK     1      20.078 -10.266  37.311  1.00  0.00    -0.043 A 
HETATM    6  C4  UNK     1      19.195  -6.107  36.755  1.00  0.00     0.037 A 
HETATM    7  C5  UNK     1      20.036  -6.783  35.877  1.00  0.00     0.067 A 
HETATM    8  C6  UNK     1      18.902  -8.144  38.035  1.00  0.00     0.017 A 
HETATM    9  C7  UNK     1      18.628  -6.786  37.833  1.00  0.00     0.030 A 
HETATM   10  C8  UNK     1      20.898 -10.839  36.419  1.00  0.00     0.090 A 
HETATM   11  C9  UNK     1      19.499 -11.053  38.452  1.00  0.00     0.049 C 
HETATM   12  C10 UNK     1      21.489 -10.107  35.286  1.00  0.00     0.288 A 
ENDROOT
BRANCH   6  13
HETATM   13  N1  UNK     1      18.919  -4.753  36.559  1.00  0.00    -0.323 N 
HETATM   14  C11 UNK     1      19.691  -3.637  36.938  1.00  0.00     0.257 C 
HETATM   15  O2  UNK     1      20.770  -3.717  37.523  1.00  0.00    -0.267 OA
HETATM   16  H5  UNK     1      18.043  -4.559  36.078  1.00  0.00     0.169 HD
BRANCH  14  17
HETATM   17  C12 UNK     1      19.096  -2.327  36.621  1.00  0.00     0.054 A 
HETATM   18  C13 UNK     1      19.294  -1.723  35.389  1.00  0.00     0.052 A 
HETATM   19 Cl1  UNK     1      20.245  -2.460  34.150  1.00  0.00    -0.083 Cl
HETATM   20  C15 UNK     1      18.710  -0.482  35.132  1.00  0.00     0.067 A 
HETATM   21  C17 UNK     1      17.936   0.141  36.111  1.00  0.00     0.118 A 
HETATM   22  C16 UNK     1      17.744  -0.478  37.346  1.00  0.00     0.043 A 
HETATM   23  F1  UNK     1      17.375   1.332  35.864  1.00  0.00    -0.206 F 
HETATM   24  C14 UNK     1      18.328  -1.718  37.603  1.00  0.00     0.022 A 
ENDBRANCH  14  17
ENDBRANCH   6  13
TORSDOF 2
ENDMDL
MODEL 2
REMARK VINA RESULT:      -9.2      9.325     13.728
REMARK  2 active torsions:
REMARK  status: ('A' for Active; 'I' for Inactive)
REMARK       I    between atoms: C11_17  and  N1_6 
REMARK    1  A    between atoms: C4_10  and  N1_6 
REMARK    2  A    between atoms: C11_17  and  C12_18 
ROOT
HETATM    1  O1  UNK     1      15.844   7.034  32.522  1.00  0.00    -0.275 OA
HETATM    2  O3  UNK     1      14.274   8.568  33.165  1.00  0.00    -0.260 OA
HETATM    3  C1  UNK     1      18.208   7.512  32.909  1.00  0.00     0.004 A 
HETATM    4  C2  UNK     1      17.203   6.670  32.433  1.00  0.00     0.092 A 
HETATM    5  C3  UNK     1      17.824   8.798  33.508  1.00  0.00    -0.043 A 
HETATM    6  C4  UNK     1      18.802   5.017  31.737  1.00  0.00     0.037 A 
HETATM    7  C5  UNK     1      17.479   5.432  31.851  1.00  0.00     0.067 A 
HETATM    8  C6  UNK     1      19.534   7.076  32.784  1.00  0.00     0.017 A 
HETATM    9  C7  UNK     1      19.828   5.837  32.202  1.00  0.00     0.030 A 
HETATM   10  C8  UNK     1      16.525   9.119  33.579  1.00  0.00     0.090 A 
HETATM   11  C9  UNK     1      18.884   9.726  34.028  1.00  0.00     0.049 C 
HETATM   12  C10 UNK     1      15.452   8.240  33.083  1.00  0.00     0.288 A 
ENDROOT
BRANCH   6  13
HETATM   13  N1  UNK     1      19.102   3.783  31.158  1.00  0.00    -0.323 N 
HETATM   14  C11 UNK     1      18.483   2.537  31.380  1.00  0.00     0.257 C 
HETATM   15  O2  UNK     1      17.544   2.367  32.155  1.00  0.00    -0.267 OA
HETATM   16  H5  UNK     1      19.870   3.798  30.489  1.00  0.00     0.169 HD
BRANCH  14  17
HETATM   17  C12 UNK     1      19.067   1.407  30.637  1.00  0.00     0.054 A 
HETATM   18  C13 UNK     1      18.810   1.218  29.288  1.00  0.00     0.052 A 
HETATM   19 Cl1  UNK     1      17.794   2.288  28.391  1.00  0.00    -0.083 Cl
HETATM   20  C15 UNK     1      19.386   0.133  28.625  1.00  0.00     0.067 A 
HETATM   21  C17 UNK     1      20.212  -0.750  29.320  1.00  0.00     0.118 A 
HETATM   22  C16 UNK     1      20.463  -0.549  30.676  1.00  0.00     0.043 A 
HETATM   23  F1  UNK     1      20.766  -1.791  28.684  1.00  0.00    -0.206 F 
HETATM   24  C14 UNK     1      19.888   0.535  31.339  1.00  0.00     0.022 A 
ENDBRANCH  14  17
ENDBRANCH   6  13
TORSDOF 2
ENDMDL
MODEL 3
REMARK VINA RESULT:      -9.2      9.323     13.662
REMARK  2 active torsions:
REMARK  status: ('A' for Active; 'I' for Inactive)
REMARK       I    between atoms: C11_17  and  N1_6 
REMARK    1  A    between atoms: C4_10  and  N1_6 
REMARK    2  A    between atoms: C11_17  and  C12_18 
ROOT
HETATM    1  O1  UNK     1      20.269   7.771  33.571  1.00  0.00    -0.275 OA
HETATM    2  O3  UNK     1      20.914   9.641  34.718  1.00  0.00    -0.260 OA
HETATM    3  C1  UNK     1      17.935   7.532  32.891  1.00  0.00     0.004 A 
HETATM    4  C2  UNK     1      19.240   7.042  32.941  1.00  0.00     0.092 A 
HETATM    5  C3  UNK     1      17.647   8.831  33.514  1.00  0.00    -0.043 A 
HETATM    6  C4  UNK     1      18.629   5.054  31.736  1.00  0.00     0.037 A 
HETATM    7  C5  UNK     1      19.601   5.818  32.374  1.00  0.00     0.067 A 
HETATM    8  C6  UNK     1      16.971   6.747  32.244  1.00  0.00     0.017 A 
HETATM    9  C7  UNK     1      17.315   5.517  31.672  1.00  0.00     0.030 A 
HETATM   10  C8  UNK     1      18.644   9.502  34.107  1.00  0.00     0.090 A 
HETATM   11  C9  UNK     1      16.251   9.385  33.478  1.00  0.00     0.049 C 
HETATM   12  C10 UNK     1      20.027   8.999  34.166  1.00  0.00     0.288 A 
ENDROOT
BRANCH   6  13
HETATM   13  N1  UNK     1      18.966   3.828  31.163  1.00  0.00    -0.323 N 
HETATM   14  C11 UNK     1      18.433   2.553  31.442  1.00  0.00     0.257 C 
HETATM   15  O2  UNK     1      17.552   2.346  32.274  1.00  0.00    -0.267 OA
HETATM   16  H5  UNK     1      19.693   3.873  30.451  1.00  0.00     0.169 HD
BRANCH  14  17
HETATM   17  C12 UNK     1      19.039   1.443  30.687  1.00  0.00     0.054 A 
HETATM   18  C13 UNK     1      18.795   1.271  29.333  1.00  0.00     0.052 A 
HETATM   19 Cl1  UNK     1      17.770   2.342  28.445  1.00  0.00    -0.083 Cl
HETATM   20  C15 UNK     1      19.390   0.205  28.658  1.00  0.00     0.067 A 
HETATM   21  C17 UNK     1      20.224  -0.677  29.345  1.00  0.00     0.118 A 
HETATM   22  C16 UNK     1      20.461  -0.494  30.707  1.00  0.00     0.043 A 
HETATM   23  F1  UNK     1      20.796  -1.700  28.697  1.00  0.00    -0.206 F 
HETATM   24  C14 UNK     1      19.866   0.572  31.382  1.00  0.00     0.022 A 
ENDBRANCH  14  17
ENDBRANCH   6  13
TORSDOF 2
ENDMDL
MODEL 4
REMARK VINA RESULT:      -9.0      7.645     10.476
REMARK  2 active torsions:
REMARK  status: ('A' for Active; 'I' for Inactive)
REMARK       I    between atoms: C11_17  and  N1_6 
REMARK    1  A    between atoms: C4_10  and  N1_6 
REMARK    2  A    between atoms: C11_17  and  C12_18 
ROOT
HETATM    1  O1  UNK     1      19.309  -0.188  32.792  1.00  0.00    -0.275 OA
HETATM    2  O3  UNK     1      20.147  -2.288  33.142  1.00  0.00    -0.260 OA
HETATM    3  C1  UNK     1      19.311   0.737  30.532  1.00  0.00     0.004 A 
HETATM    4  C2  UNK     1      19.022   0.856  31.891  1.00  0.00     0.092 A 
HETATM    5  C3  UNK     1      19.930  -0.506  30.051  1.00  0.00    -0.043 A 
HETATM    6  C4  UNK     1      18.126   3.066  31.592  1.00  0.00     0.037 A 
HETATM    7  C5  UNK     1      18.434   2.002  32.432  1.00  0.00     0.067 A 
HETATM    8  C6  UNK     1      18.993   1.821  29.702  1.00  0.00     0.017 A 
HETATM    9  C7  UNK     1      18.405   2.977  30.229  1.00  0.00     0.030 A 
HETATM   10  C8  UNK     1      20.193  -1.482  30.930  1.00  0.00     0.090 A 
HETATM   11  C9  UNK     1      20.254  -0.664  28.593  1.00  0.00     0.049 C 
HETATM   12  C10 UNK     1      19.892  -1.372  32.367  1.00  0.00     0.288 A 
ENDROOT
BRANCH   6  13
HETATM   13  N1  UNK     1      17.538   4.221  32.110  1.00  0.00    -0.323 N 
HETATM   14  C11 UNK     1      18.039   5.538  32.103  1.00  0.00     0.257 C 
HETATM   15  O2  UNK     1      19.119   5.858  31.610  1.00  0.00    -0.267 OA
HETATM   16  H5  UNK     1      16.630   4.081  32.548  1.00  0.00     0.169 HD
BRANCH  14  17
HETATM   17  C12 UNK     1      17.188   6.535  32.776  1.00  0.00     0.054 A 
HETATM   18  C13 UNK     1      17.644   7.253  33.872  1.00  0.00     0.052 A 
HETATM   19 Cl1  UNK     1      19.231   7.029  34.516  1.00  0.00    -0.083 Cl
HETATM   20  C15 UNK     1      16.803   8.187  34.478  1.00  0.00     0.067 A 
HETATM   21  C17 UNK     1      15.516   8.392  33.982  1.00  0.00     0.118 A 
HETATM   22  C16 UNK     1      15.070   7.664  32.880  1.00  0.00     0.043 A 
HETATM   23  F1  UNK     1      14.709   9.289  34.563  1.00  0.00    -0.206 F 
HETATM   24  C14 UNK     1      15.910   6.730  32.274  1.00  0.00     0.022 A 
ENDBRANCH  14  17
ENDBRANCH   6  13
TORSDOF 2
ENDMDL
MODEL 5
REMARK VINA RESULT:      -8.9     19.206     20.468
REMARK  2 active torsions:
REMARK  status: ('A' for Active; 'I' for Inactive)
REMARK       I    between atoms: C11_17  and  N1_6 
REMARK    1  A    between atoms: C4_10  and  N1_6 
REMARK    2  A    between atoms: C11_17  and  C12_18 
ROOT
HETATM    1  O1  UNK     1      20.894  -5.058  14.856  1.00  0.00    -0.275 OA
HETATM    2  O3  UNK     1      21.677  -7.032  14.008  1.00  0.00    -0.260 OA
HETATM    3  C1  UNK     1      18.484  -4.715  15.051  1.00  0.00     0.004 A 
HETATM    4  C2  UNK     1      19.791  -4.257  15.215  1.00  0.00     0.092 A 
HETATM    5  C3  UNK     1      18.273  -6.056  14.489  1.00  0.00    -0.043 A 
HETATM    6  C4  UNK     1      19.033  -2.162  16.116  1.00  0.00     0.037 A 
HETATM    7  C5  UNK     1      20.081  -2.997  15.741  1.00  0.00     0.067 A 
HETATM    8  C6  UNK     1      17.442  -3.858  15.434  1.00  0.00     0.017 A 
HETATM    9  C7  UNK     1      17.716  -2.591  15.962  1.00  0.00     0.030 A 
HETATM   10  C8  UNK     1      19.339  -6.795  14.156  1.00  0.00     0.090 A 
HETATM   11  C9  UNK     1      16.877  -6.576  14.299  1.00  0.00     0.049 C 
HETATM   12  C10 UNK     1      20.725  -6.327  14.325  1.00  0.00     0.288 A 
ENDROOT
BRANCH   6  13
HETATM   13  N1  UNK     1      19.299  -0.898  16.644  1.00  0.00    -0.323 N 
HETATM   14  C11 UNK     1      18.549  -0.165  17.585  1.00  0.00     0.257 C 
HETATM   15  O2  UNK     1      17.504  -0.569  18.092  1.00  0.00    -0.267 OA
HETATM   16  H5  UNK     1      20.149  -0.458  16.296  1.00  0.00     0.169 HD
BRANCH  14  17
HETATM   17  C12 UNK     1      19.082   1.170  17.907  1.00  0.00     0.054 A 
HETATM   18  C13 UNK     1      19.450   1.508  19.201  1.00  0.00     0.052 A 
HETATM   19 Cl1  UNK     1      19.311   0.394  20.513  1.00  0.00    -0.083 Cl
HETATM   20  C15 UNK     1      19.950   2.785  19.460  1.00  0.00     0.067 A 
HETATM   21  C17 UNK     1      20.076   3.709  18.422  1.00  0.00     0.118 A 
HETATM   22  C16 UNK     1      19.702   3.356  17.126  1.00  0.00     0.043 A 
HETATM   23  F1  UNK     1      20.556   4.934  18.670  1.00  0.00    -0.206 F 
HETATM   24  C14 UNK     1      19.202   2.080  16.867  1.00  0.00     0.022 A 
ENDBRANCH  14  17
ENDBRANCH   6  13
TORSDOF 2
ENDMDL
MODEL 6
REMARK VINA RESULT:      -8.8      2.196      2.548
REMARK  2 active torsions:
REMARK  status: ('A' for Active; 'I' for Inactive)
REMARK       I    between atoms: C11_17  and  N1_6 
REMARK    1  A    between atoms: C4_10  and  N1_6 
REMARK    2  A    between atoms: C11_17  and  C12_18 
ROOT
HETATM    1  O1  UNK     1      22.517  -6.853  38.248  1.00  0.00    -0.275 OA
HETATM    2  O3  UNK     1      24.121  -8.233  39.116  1.00  0.00    -0.260 OA
HETATM    3  C1  UNK     1      21.226  -7.592  36.311  1.00  0.00     0.004 A 
HETATM    4  C2  UNK     1      21.518  -6.631  37.279  1.00  0.00     0.092 A 
HETATM    5  C3  UNK     1      21.985  -8.850  36.317  1.00  0.00    -0.043 A 
HETATM    6  C4  UNK     1      19.846  -5.135  36.417  1.00  0.00     0.037 A 
HETATM    7  C5  UNK     1      20.844  -5.410  37.346  1.00  0.00     0.067 A 
HETATM    8  C6  UNK     1      20.217  -7.295  35.384  1.00  0.00     0.017 A 
HETATM    9  C7  UNK     1      19.533  -6.075  35.437  1.00  0.00     0.030 A 
HETATM   10  C8  UNK     1      22.930  -9.034  37.249  1.00  0.00     0.090 A 
HETATM   11  C9  UNK     1      21.694  -9.904  35.287  1.00  0.00     0.049 C 
HETATM   12  C10 UNK     1      23.249  -8.030  38.278  1.00  0.00     0.288 A 
ENDROOT
BRANCH   6  13
HETATM   13  N1  UNK     1      19.160  -3.920  36.465  1.00  0.00    -0.323 N 
HETATM   14  C11 UNK     1      19.621  -2.638  36.106  1.00  0.00     0.257 C 
HETATM   15  O2  UNK     1      20.752  -2.411  35.679  1.00  0.00    -0.267 OA
HETATM   16  H5  UNK     1      18.202  -3.982  36.805  1.00  0.00     0.169 HD
BRANCH  14  17
HETATM   17  C12 UNK     1      18.656  -1.545  36.316  1.00  0.00     0.054 A 
HETATM   18  C13 UNK     1      18.163  -0.803  35.253  1.00  0.00     0.052 A 
HETATM   19 Cl1  UNK     1      18.642  -1.109  33.623  1.00  0.00    -0.083 Cl
HETATM   20  C15 UNK     1      17.250   0.224  35.499  1.00  0.00     0.067 A 
HETATM   21  C17 UNK     1      16.841   0.496  36.804  1.00  0.00     0.118 A 
HETATM   22  C16 UNK     1      17.345  -0.258  37.864  1.00  0.00     0.043 A 
HETATM   23  F1  UNK     1      15.965   1.481  37.040  1.00  0.00    -0.206 F 
HETATM   24  C14 UNK     1      18.257  -1.283  37.619  1.00  0.00     0.022 A 
ENDBRANCH  14  17
ENDBRANCH   6  13
TORSDOF 2
ENDMDL
MODEL 7
REMARK VINA RESULT:      -8.8      7.727     10.430
REMARK  2 active torsions:
REMARK  status: ('A' for Active; 'I' for Inactive)
REMARK       I    between atoms: C11_17  and  N1_6 
REMARK    1  A    between atoms: C4_10  and  N1_6 
REMARK    2  A    between atoms: C11_17  and  C12_18 
ROOT
HETATM    1  O1  UNK     1      19.246  -0.186  32.774  1.00  0.00    -0.275 OA
HETATM    2  O3  UNK     1      19.984  -2.325  33.112  1.00  0.00    -0.260 OA
HETATM    3  C1  UNK     1      19.252   0.736  30.512  1.00  0.00     0.004 A 
HETATM    4  C2  UNK     1      18.994   0.871  31.876  1.00  0.00     0.092 A 
HETATM    5  C3  UNK     1      19.798  -0.537  30.022  1.00  0.00    -0.043 A 
HETATM    6  C4  UNK     1      18.204   3.122  31.589  1.00  0.00     0.037 A 
HETATM    7  C5  UNK     1      18.475   2.044  32.426  1.00  0.00     0.067 A 
HETATM    8  C6  UNK     1      18.973   1.833  29.686  1.00  0.00     0.017 A 
HETATM    9  C7  UNK     1      18.453   3.018  30.221  1.00  0.00     0.030 A 
HETATM   10  C8  UNK     1      20.029  -1.525  30.898  1.00  0.00     0.090 A 
HETATM   11  C9  UNK     1      20.088  -0.713  28.559  1.00  0.00     0.049 C 
HETATM   12  C10 UNK     1      19.760  -1.398  32.340  1.00  0.00     0.288 A 
ENDROOT
BRANCH   6  13
HETATM   13  N1  UNK     1      17.685   4.306  32.116  1.00  0.00    -0.323 N 
HETATM   14  C11 UNK     1      18.383   5.424  32.613  1.00  0.00     0.257 C 
HETATM   15  O2  UNK     1      19.610   5.507  32.648  1.00  0.00    -0.267 OA
HETATM   16  H5  UNK     1      16.668   4.356  32.138  1.00  0.00     0.169 HD
BRANCH  14  17
HETATM   17  C12 UNK     1      17.535   6.506  33.143  1.00  0.00     0.054 A 
HETATM   18  C13 UNK     1      16.967   7.455  32.306  1.00  0.00     0.052 A 
HETATM   19 Cl1  UNK     1      17.214   7.432  30.597  1.00  0.00    -0.083 Cl
HETATM   20  C15 UNK     1      16.170   8.462  32.852  1.00  0.00     0.067 A 
HETATM   21  C17 UNK     1      15.951   8.509  34.229  1.00  0.00     0.118 A 
HETATM   22  C16 UNK     1      16.527   7.548  35.059  1.00  0.00     0.043 A 
HETATM   23  F1  UNK     1      15.185   9.475  34.753  1.00  0.00    -0.206 F 
HETATM   24  C14 UNK     1      17.324   6.542  34.514  1.00  0.00     0.022 A 
ENDBRANCH  14  17
ENDBRANCH   6  13
TORSDOF 2
ENDMDL
MODEL 8
REMARK VINA RESULT:      -8.8      7.963     10.658
REMARK  2 active torsions:
REMARK  status: ('A' for Active; 'I' for Inactive)
REMARK       I    between atoms: C11_17  and  N1_6 
REMARK    1  A    between atoms: C4_10  and  N1_6 
REMARK    2  A    between atoms: C11_17  and  C12_18 
ROOT
HETATM    1  O1  UNK     1      19.428   1.061  29.473  1.00  0.00    -0.275 OA
HETATM    2  O3  UNK     1      20.277  -0.558  28.099  1.00  0.00    -0.260 OA
HETATM    3  C1  UNK     1      19.052   0.551  31.831  1.00  0.00     0.004 A 
HETATM    4  C2  UNK     1      19.004   1.444  30.761  1.00  0.00     0.092 A 
HETATM    5  C3  UNK     1      19.555  -0.809  31.591  1.00  0.00    -0.043 A 
HETATM    6  C4  UNK     1      18.111   3.190  32.150  1.00  0.00     0.037 A 
HETATM    7  C5  UNK     1      18.541   2.754  30.902  1.00  0.00     0.067 A 
HETATM    8  C6  UNK     1      18.614   1.010  33.081  1.00  0.00     0.017 A 
HETATM    9  C7  UNK     1      18.146   2.320  33.239  1.00  0.00     0.030 A 
HETATM   10  C8  UNK     1      19.950  -1.146  30.356  1.00  0.00     0.090 A 
HETATM   11  C9  UNK     1      19.618  -1.793  32.723  1.00  0.00     0.049 C 
HETATM   12  C10 UNK     1      19.907  -0.214  29.216  1.00  0.00     0.288 A 
ENDROOT
BRANCH   6  13
HETATM   13  N1  UNK     1      17.644   4.495  32.314  1.00  0.00    -0.323 N 
HETATM   14  C11 UNK     1      18.374   5.700  32.263  1.00  0.00     0.257 C 
HETATM   15  O2  UNK     1      19.584   5.760  32.055  1.00  0.00    -0.267 OA
HETATM   16  H5  UNK     1      16.645   4.574  32.493  1.00  0.00     0.169 HD
BRANCH  14  17
HETATM   17  C12 UNK     1      17.588   6.919  32.522  1.00  0.00     0.054 A 
HETATM   18  C13 UNK     1      17.865   7.742  33.603  1.00  0.00     0.052 A 
HETATM   19 Cl1  UNK     1      19.143   7.396  34.712  1.00  0.00    -0.083 Cl
HETATM   20  C15 UNK     1      17.095   8.887  33.809  1.00  0.00     0.067 A 
HETATM   21  C17 UNK     1      16.055   9.195  32.932  1.00  0.00     0.118 A 
HETATM   22  C16 UNK     1      15.786   8.359  31.849  1.00  0.00     0.043 A 
HETATM   23  F1  UNK     1      15.315  10.294  33.129  1.00  0.00    -0.206 F 
HETATM   24  C14 UNK     1      16.556   7.215  31.642  1.00  0.00     0.022 A 
ENDBRANCH  14  17
ENDBRANCH   6  13
TORSDOF 2
ENDMDL
MODEL 9
REMARK VINA RESULT:      -8.7      3.769      8.425
REMARK  2 active torsions:
REMARK  status: ('A' for Active; 'I' for Inactive)
REMARK       I    between atoms: C11_17  and  N1_6 
REMARK    1  A    between atoms: C4_10  and  N1_6 
REMARK    2  A    between atoms: C11_17  and  C12_18 
ROOT
HETATM    1  O1  UNK     1      18.832  -0.295  34.046  1.00  0.00    -0.275 OA
HETATM    2  O3  UNK     1      18.213   1.632  32.981  1.00  0.00    -0.260 OA
HETATM    3  C1  UNK     1      18.407  -0.525  36.440  1.00  0.00     0.004 A 
HETATM    4  C2  UNK     1      18.900  -1.039  35.241  1.00  0.00     0.092 A 
HETATM    5  C3  UNK     1      17.813   0.819  36.438  1.00  0.00    -0.043 A 
HETATM    6  C4  UNK     1      19.573  -3.089  36.300  1.00  0.00     0.037 A 
HETATM    7  C5  UNK     1      19.480  -2.306  35.154  1.00  0.00     0.067 A 
HETATM    8  C6  UNK     1      18.511  -1.329  37.584  1.00  0.00     0.017 A 
HETATM    9  C7  UNK     1      19.090  -2.602  37.514  1.00  0.00     0.030 A 
HETATM   10  C8  UNK     1      17.762   1.504  35.289  1.00  0.00     0.090 A 
HETATM   11  C9  UNK     1      17.274   1.400  37.714  1.00  0.00     0.049 C 
HETATM   12  C10 UNK     1      18.277   0.975  34.014  1.00  0.00     0.288 A 
ENDROOT
BRANCH   6  13
HETATM   13  N1  UNK     1      20.149  -4.359  36.237  1.00  0.00    -0.323 N 
HETATM   14  C11 UNK     1      19.524  -5.613  36.387  1.00  0.00     0.257 C 
HETATM   15  O2  UNK     1      18.323  -5.759  36.605  1.00  0.00    -0.267 OA
HETATM   16  H5  UNK     1      21.151  -4.367  36.057  1.00  0.00     0.169 HD
BRANCH  14  17
HETATM   17  C12 UNK     1      20.426  -6.775  36.306  1.00  0.00     0.054 A 
HETATM   18  C13 UNK     1      21.245  -7.129  37.368  1.00  0.00     0.052 A 
HETATM   19 Cl1  UNK     1      21.262  -6.238  38.848  1.00  0.00    -0.083 Cl
HETATM   20  C15 UNK     1      22.084  -8.238  37.248  1.00  0.00     0.067 A 
HETATM   21  C17 UNK     1      22.094  -8.980  36.066  1.00  0.00     0.118 A 
HETATM   22  C16 UNK     1      21.265  -8.613  35.006  1.00  0.00     0.043 A 
HETATM   23  F1  UNK     1      22.898 -10.044  35.950  1.00  0.00    -0.206 F 
HETATM   24  C14 UNK     1      20.427  -7.505  35.126  1.00  0.00     0.022 A 
ENDBRANCH  14  17
ENDBRANCH   6  13
TORSDOF 2
ENDMDL
MODEL 10
REMARK VINA RESULT:      -8.7      1.820      2.025
REMARK  2 active torsions:
REMARK  status: ('A' for Active; 'I' for Inactive)
REMARK       I    between atoms: C11_17  and  N1_6 
REMARK    1  A    between atoms: C4_10  and  N1_6 
REMARK    2  A    between atoms: C11_17  and  C12_18 
ROOT
HETATM    1  O1  UNK     1      20.801  -8.039  35.084  1.00  0.00    -0.275 OA
HETATM    2  O3  UNK     1      21.574 -10.063  34.352  1.00  0.00    -0.260 OA
HETATM    3  C1  UNK     1      21.614  -7.147  37.207  1.00  0.00     0.004 A 
HETATM    4  C2  UNK     1      20.814  -7.032  36.070  1.00  0.00     0.092 A 
HETATM    5  C3  UNK     1      22.448  -8.347  37.363  1.00  0.00    -0.043 A 
HETATM    6  C4  UNK     1      19.964  -4.900  36.782  1.00  0.00     0.037 A 
HETATM    7  C5  UNK     1      19.992  -5.927  35.844  1.00  0.00     0.067 A 
HETATM    8  C6  UNK     1      21.571  -6.102  38.141  1.00  0.00     0.017 A 
HETATM    9  C7  UNK     1      20.752  -4.987  37.929  1.00  0.00     0.030 A 
HETATM   10  C8  UNK     1      22.415  -9.288  36.410  1.00  0.00     0.090 A 
HETATM   11  C9  UNK     1      23.319  -8.500  38.577  1.00  0.00     0.049 C 
HETATM   12  C10 UNK     1      21.578  -9.180  35.203  1.00  0.00     0.288 A 
ENDROOT
BRANCH   6  13
HETATM   13  N1  UNK     1      19.150  -3.785  36.576  1.00  0.00    -0.323 N 
HETATM   14  C11 UNK     1      19.528  -2.481  36.199  1.00  0.00     0.257 C 
HETATM   15  O2  UNK     1      20.690  -2.138  35.989  1.00  0.00    -0.267 OA
HETATM   16  H5  UNK     1      18.155  -3.948  36.721  1.00  0.00     0.169 HD
BRANCH  14  17
HETATM   17  C12 UNK     1      18.423  -1.511  36.107  1.00  0.00     0.054 A 
HETATM   18  C13 UNK     1      18.049  -0.955  34.892  1.00  0.00     0.052 A 
HETATM   19 Cl1  UNK     1      18.849  -1.359  33.416  1.00  0.00    -0.083 Cl
HETATM   20  C15 UNK     1      16.996  -0.040  34.852  1.00  0.00     0.067 A 
HETATM   21  C17 UNK     1      16.329   0.307  36.027  1.00  0.00     0.118 A 
HETATM   22  C16 UNK     1      16.715  -0.260  37.241  1.00  0.00     0.043 A 
HETATM   23  F1  UNK     1      15.318   1.185  35.988  1.00  0.00    -0.206 F 
HETATM   24  C14 UNK     1      17.767  -1.174  37.282  1.00  0.00     0.022 A 
ENDBRANCH  14  17
ENDBRANCH   6  13
TORSDOF 2
ENDMDL
