MODEL 1
REMARK VINA RESULT:      -8.1      0.000      0.000
REMARK  5 active torsions:
REMARK  status: ('A' for Active; 'I' for Inactive)
REMARK    1  A    between atoms: C11_15  and  O1_1 
REMARK    2  A    between atoms: C1_5  and  N1_4 
REMARK    3  A    between atoms: C2_6  and  N1_4 
REMARK    4  A    between atoms: C3_7  and  N1_4 
REMARK    5  A    between atoms: C10_14  and  C5_9 
ROOT
HETATM    1  C1  UNK     1      18.127  -0.834  35.692  1.00  0.00     0.032 A 
HETATM    2  C5  UNK     1      19.913  -2.725  36.732  1.00  0.00    -0.002 A 
HETATM    3  C8  UNK     1      19.072  -1.433  34.859  1.00  0.00     0.066 A 
HETATM    4  C9  UNK     1      18.072  -1.178  37.044  1.00  0.00     0.030 A 
HETATM    5  C11 UNK     1      19.961  -2.374  35.376  1.00  0.00     0.078 A 
HETATM    6  C14 UNK     1      18.961  -2.118  37.561  1.00  0.00     0.016 A 
ENDROOT
BRANCH   2   7
HETATM    7  C10 UNK     1      20.824  -3.697  37.292  1.00  0.00     0.033 C 
HETATM    8  C4  UNK     1      20.636  -5.007  37.447  1.00  0.00     0.067 A 
HETATM    9  C12 UNK     1      19.406  -5.742  37.054  1.00  0.00     0.197 A 
HETATM   10  C13 UNK     1      21.624  -5.947  38.034  1.00  0.00     0.197 A 
HETATM   11  O2  UNK     1      18.397  -5.304  36.546  1.00  0.00    -0.286 OA
HETATM   12  C6  UNK     1      19.683  -7.139  37.421  1.00  0.00     0.029 A 
HETATM   13  C17 UNK     1      18.856  -8.235  37.264  1.00  0.00     0.016 A 
HETATM   14  C7  UNK     1      20.958  -7.257  37.984  1.00  0.00     0.029 A 
HETATM   15  C19 UNK     1      19.342  -9.474  37.691  1.00  0.00     0.001 A 
HETATM   16  C20 UNK     1      20.626  -9.591  38.260  1.00  0.00     0.001 A 
HETATM   17  C18 UNK     1      21.452  -8.474  38.412  1.00  0.00     0.016 A 
HETATM   18  O3  UNK     1      22.731  -5.704  38.462  1.00  0.00    -0.286 OA
ENDBRANCH   2   7
BRANCH   5  19
HETATM   19  O1  UNK     1      20.875  -2.944  34.540  1.00  0.00    -0.360 OA
HETATM   20  H19 UNK     1      21.773  -2.862  34.900  1.00  0.00     0.217 HD
ENDBRANCH   5  19
BRANCH   1  21
HETATM   21  N1  UNK     1      17.227   0.116  35.169  1.00  0.00    -0.382 N 
BRANCH  21  22
HETATM   22  C2  UNK     1      17.718   1.280  34.459  1.00  0.00     0.118 C 
HETATM   23  C15 UNK     1      18.577   2.151  35.359  1.00  0.00     0.026 C 
ENDBRANCH  21  22
BRANCH  21  24
HETATM   24  C3  UNK     1      15.797  -0.065  35.324  1.00  0.00     0.118 C 
HETATM   25  C16 UNK     1      15.253   0.793  36.453  1.00  0.00     0.026 C 
ENDBRANCH  21  24
ENDBRANCH   1  21
TORSDOF 5
ENDMDL
MODEL 2
REMARK VINA RESULT:      -8.0      8.573     13.338
REMARK  5 active torsions:
REMARK  status: ('A' for Active; 'I' for Inactive)
REMARK    1  A    between atoms: C11_15  and  O1_1 
REMARK    2  A    between atoms: C1_5  and  N1_4 
REMARK    3  A    between atoms: C2_6  and  N1_4 
REMARK    4  A    between atoms: C3_7  and  N1_4 
REMARK    5  A    between atoms: C10_14  and  C5_9 
ROOT
HETATM    1  C1  UNK     1      18.634   3.367  30.906  1.00  0.00     0.032 A 
HETATM    2  C5  UNK     1      18.864   5.828  32.223  1.00  0.00    -0.002 A 
HETATM    3  C8  UNK     1      18.331   3.462  32.264  1.00  0.00     0.066 A 
HETATM    4  C9  UNK     1      19.051   4.499  30.204  1.00  0.00     0.030 A 
HETATM    5  C11 UNK     1      18.445   4.688  32.920  1.00  0.00     0.078 A 
HETATM    6  C14 UNK     1      19.166   5.723  30.859  1.00  0.00     0.016 A 
ENDROOT
BRANCH   2   7
HETATM    7  C10 UNK     1      18.991   7.110  32.880  1.00  0.00     0.033 C 
HETATM    8  C4  UNK     1      18.038   8.012  33.114  1.00  0.00     0.067 A 
HETATM    9  C12 UNK     1      16.611   7.862  32.730  1.00  0.00     0.197 A 
HETATM   10  C13 UNK     1      18.247   9.313  33.799  1.00  0.00     0.197 A 
HETATM   11  O2  UNK     1      16.078   6.935  32.160  1.00  0.00    -0.286 OA
HETATM   12  C6  UNK     1      15.975   9.101  33.200  1.00  0.00     0.029 A 
HETATM   13  C17 UNK     1      14.646   9.464  33.089  1.00  0.00     0.016 A 
HETATM   14  C7  UNK     1      16.914   9.935  33.814  1.00  0.00     0.029 A 
HETATM   15  C19 UNK     1      14.272  10.703  33.617  1.00  0.00     0.001 A 
HETATM   16  C20 UNK     1      15.220  11.544  34.235  1.00  0.00     0.001 A 
HETATM   17  C18 UNK     1      16.560  11.163  34.339  1.00  0.00     0.016 A 
HETATM   18  O3  UNK     1      19.275   9.771  34.247  1.00  0.00    -0.286 OA
ENDBRANCH   2   7
BRANCH   5  19
HETATM   19  O1  UNK     1      18.144   4.753  34.248  1.00  0.00    -0.360 OA
HETATM   20  H19 UNK     1      17.829   5.639  34.489  1.00  0.00     0.217 HD
ENDBRANCH   5  19
BRANCH   1  21
HETATM   21  N1  UNK     1      18.517   2.129  30.242  1.00  0.00    -0.382 N 
BRANCH  21  22
HETATM   22  C2  UNK     1      18.857   0.895  30.924  1.00  0.00     0.118 C 
HETATM   23  C15 UNK     1      20.307   0.514  30.680  1.00  0.00     0.026 C 
ENDBRANCH  21  22
BRANCH  21  24
HETATM   24  C3  UNK     1      18.043   2.072  28.874  1.00  0.00     0.118 C 
HETATM   25  C16 UNK     1      18.275   0.698  28.269  1.00  0.00     0.026 C 
ENDBRANCH  21  24
ENDBRANCH   1  21
TORSDOF 5
ENDMDL
MODEL 3
REMARK VINA RESULT:      -7.5     10.757     15.313
REMARK  5 active torsions:
REMARK  status: ('A' for Active; 'I' for Inactive)
REMARK    1  A    between atoms: C11_15  and  O1_1 
REMARK    2  A    between atoms: C1_5  and  N1_4 
REMARK    3  A    between atoms: C2_6  and  N1_4 
REMARK    4  A    between atoms: C3_7  and  N1_4 
REMARK    5  A    between atoms: C10_14  and  C5_9 
ROOT
HETATM    1  C1  UNK     1      17.813   5.896  31.971  1.00  0.00     0.032 A 
HETATM    2  C5  UNK     1      16.285   7.775  33.379  1.00  0.00    -0.002 A 
HETATM    3  C8  UNK     1      17.071   6.853  31.278  1.00  0.00     0.066 A 
HETATM    4  C9  UNK     1      17.793   5.876  33.366  1.00  0.00     0.030 A 
HETATM    5  C11 UNK     1      16.311   7.789  31.979  1.00  0.00     0.078 A 
HETATM    6  C14 UNK     1      17.033   6.811  34.067  1.00  0.00     0.016 A 
ENDROOT
BRANCH   2   7
HETATM    7  C10 UNK     1      15.505   8.733  34.129  1.00  0.00     0.033 C 
HETATM    8  C4  UNK     1      15.804  10.003  34.402  1.00  0.00     0.067 A 
HETATM    9  C12 UNK     1      17.043  10.699  33.968  1.00  0.00     0.197 A 
HETATM   10  C13 UNK     1      14.947  10.931  35.183  1.00  0.00     0.197 A 
HETATM   11  O2  UNK     1      17.964  10.258  33.317  1.00  0.00    -0.286 OA
HETATM   12  C6  UNK     1      16.905  12.060  34.507  1.00  0.00     0.029 A 
HETATM   13  C17 UNK     1      17.793  13.112  34.385  1.00  0.00     0.016 A 
HETATM   14  C7  UNK     1      15.701  12.194  35.205  1.00  0.00     0.029 A 
HETATM   15  C19 UNK     1      17.442  14.323  34.988  1.00  0.00     0.001 A 
HETATM   16  C20 UNK     1      16.228  14.457  35.692  1.00  0.00     0.001 A 
HETATM   17  C18 UNK     1      15.340  13.384  35.808  1.00  0.00     0.016 A 
HETATM   18  O3  UNK     1      13.869  10.712  35.691  1.00  0.00    -0.286 OA
ENDBRANCH   2   7
BRANCH   5  19
HETATM   19  O1  UNK     1      15.595   8.712  31.277  1.00  0.00    -0.360 OA
HETATM   20  H19 UNK     1      15.100   8.292  30.556  1.00  0.00     0.217 HD
ENDBRANCH   5  19
BRANCH   1  21
HETATM   21  N1  UNK     1      18.582   4.951  31.263  1.00  0.00    -0.382 N 
BRANCH  21  22
HETATM   22  C2  UNK     1      18.331   3.532  31.421  1.00  0.00     0.118 C 
HETATM   23  C15 UNK     1      18.555   2.785  30.118  1.00  0.00     0.026 C 
ENDBRANCH  21  22
BRANCH  21  24
HETATM   24  C3  UNK     1      19.627   5.386  30.357  1.00  0.00     0.118 C 
HETATM   25  C16 UNK     1      20.847   5.875  31.120  1.00  0.00     0.026 C 
ENDBRANCH  21  24
ENDBRANCH   1  21
TORSDOF 5
ENDMDL
MODEL 4
REMARK VINA RESULT:      -7.5     10.660     15.225
REMARK  5 active torsions:
REMARK  status: ('A' for Active; 'I' for Inactive)
REMARK    1  A    between atoms: C11_15  and  O1_1 
REMARK    2  A    between atoms: C1_5  and  N1_4 
REMARK    3  A    between atoms: C2_6  and  N1_4 
REMARK    4  A    between atoms: C3_7  and  N1_4 
REMARK    5  A    between atoms: C10_14  and  C5_9 
ROOT
HETATM    1  C1  UNK     1      17.780   5.821  31.974  1.00  0.00     0.032 A 
HETATM    2  C5  UNK     1      16.237   7.728  33.327  1.00  0.00    -0.002 A 
HETATM    3  C8  UNK     1      17.074   6.785  31.255  1.00  0.00     0.066 A 
HETATM    4  C9  UNK     1      17.717   5.807  33.368  1.00  0.00     0.030 A 
HETATM    5  C11 UNK     1      16.306   7.734  31.928  1.00  0.00     0.078 A 
HETATM    6  C14 UNK     1      16.949   6.755  34.041  1.00  0.00     0.016 A 
ENDROOT
BRANCH   2   7
HETATM    7  C10 UNK     1      15.448   8.700  34.048  1.00  0.00     0.033 C 
HETATM    8  C4  UNK     1      15.764   9.961  34.342  1.00  0.00     0.067 A 
HETATM    9  C12 UNK     1      17.037  10.629  33.966  1.00  0.00     0.197 A 
HETATM   10  C13 UNK     1      14.896  10.905  35.091  1.00  0.00     0.197 A 
HETATM   11  O2  UNK     1      17.975  10.170  33.353  1.00  0.00    -0.286 OA
HETATM   12  C6  UNK     1      16.908  11.990  34.508  1.00  0.00     0.029 A 
HETATM   13  C17 UNK     1      17.825  13.021  34.430  1.00  0.00     0.016 A 
HETATM   14  C7  UNK     1      15.678  12.149  35.154  1.00  0.00     0.029 A 
HETATM   15  C19 UNK     1      17.476  14.237  35.025  1.00  0.00     0.001 A 
HETATM   16  C20 UNK     1      16.237  14.396  35.677  1.00  0.00     0.001 A 
HETATM   17  C18 UNK     1      15.320  13.344  35.747  1.00  0.00     0.016 A 
HETATM   18  O3  UNK     1      13.793  10.709  35.551  1.00  0.00    -0.286 OA
ENDBRANCH   2   7
BRANCH   5  19
HETATM   19  O1  UNK     1      15.625   8.665  31.201  1.00  0.00    -0.360 OA
HETATM   20  H19 UNK     1      15.817   8.573  30.254  1.00  0.00     0.217 HD
ENDBRANCH   5  19
BRANCH   1  21
HETATM   21  N1  UNK     1      18.557   4.862  31.294  1.00  0.00    -0.382 N 
BRANCH  21  22
HETATM   22  C2  UNK     1      19.638   5.277  30.422  1.00  0.00     0.118 C 
HETATM   23  C15 UNK     1      20.803   5.837  31.218  1.00  0.00     0.026 C 
ENDBRANCH  21  22
BRANCH  21  24
HETATM   24  C3  UNK     1      18.294   3.447  31.468  1.00  0.00     0.118 C 
HETATM   25  C16 UNK     1      18.687   2.658  30.231  1.00  0.00     0.026 C 
ENDBRANCH  21  24
ENDBRANCH   1  21
TORSDOF 5
ENDMDL
MODEL 5
REMARK VINA RESULT:      -7.4     19.441     22.254
REMARK  5 active torsions:
REMARK  status: ('A' for Active; 'I' for Inactive)
REMARK    1  A    between atoms: C11_15  and  O1_1 
REMARK    2  A    between atoms: C1_5  and  N1_4 
REMARK    3  A    between atoms: C2_6  and  N1_4 
REMARK    4  A    between atoms: C3_7  and  N1_4 
REMARK    5  A    between atoms: C10_14  and  C5_9 
ROOT
HETATM    1  C1  UNK     1      19.268  -4.568  13.784  1.00  0.00     0.032 A 
HETATM    2  C5  UNK     1      19.247  -1.845  14.439  1.00  0.00    -0.002 A 
HETATM    3  C8  UNK     1      20.391  -3.781  13.531  1.00  0.00     0.066 A 
HETATM    4  C9  UNK     1      18.133  -3.998  14.363  1.00  0.00     0.030 A 
HETATM    5  C11 UNK     1      20.381  -2.425  13.857  1.00  0.00     0.078 A 
HETATM    6  C14 UNK     1      18.123  -2.643  14.689  1.00  0.00     0.016 A 
ENDROOT
BRANCH   2   7
HETATM    7  C10 UNK     1      19.211  -0.443  14.786  1.00  0.00     0.033 C 
HETATM    8  C4  UNK     1      19.166   0.103  16.001  1.00  0.00     0.067 A 
HETATM    9  C12 UNK     1      19.146  -0.659  17.277  1.00  0.00     0.197 A 
HETATM   10  C13 UNK     1      19.131   1.561  16.280  1.00  0.00     0.197 A 
HETATM   11  O2  UNK     1      19.165  -1.860  17.436  1.00  0.00    -0.286 OA
HETATM   12  C6  UNK     1      19.097   0.376  18.320  1.00  0.00     0.029 A 
HETATM   13  C17 UNK     1      19.063   0.196  19.689  1.00  0.00     0.016 A 
HETATM   14  C7  UNK     1      19.089   1.652  17.747  1.00  0.00     0.029 A 
HETATM   15  C19 UNK     1      19.021   1.342  20.488  1.00  0.00     0.001 A 
HETATM   16  C20 UNK     1      19.011   2.628  19.910  1.00  0.00     0.001 A 
HETATM   17  C18 UNK     1      19.046   2.794  18.523  1.00  0.00     0.016 A 
HETATM   18  O3  UNK     1      19.136   2.479  15.489  1.00  0.00    -0.286 OA
ENDBRANCH   2   7
BRANCH   5  19
HETATM   19  O1  UNK     1      21.492  -1.679  13.599  1.00  0.00    -0.360 OA
HETATM   20  H19 UNK     1      21.688  -1.665  12.649  1.00  0.00     0.217 HD
ENDBRANCH   5  19
BRANCH   1  21
HETATM   21  N1  UNK     1      19.278  -5.939  13.455  1.00  0.00    -0.382 N 
BRANCH  21  22
HETATM   22  C2  UNK     1      18.208  -6.810  13.902  1.00  0.00     0.118 C 
HETATM   23  C15 UNK     1      17.351  -7.272  12.737  1.00  0.00     0.026 C 
ENDBRANCH  21  22
BRANCH  21  24
HETATM   24  C3  UNK     1      20.351  -6.493  12.654  1.00  0.00     0.118 C 
HETATM   25  C16 UNK     1      21.231  -7.418  13.478  1.00  0.00     0.026 C 
ENDBRANCH  21  24
ENDBRANCH   1  21
TORSDOF 5
ENDMDL
MODEL 6
REMARK VINA RESULT:      -7.4     10.748     12.693
REMARK  5 active torsions:
REMARK  status: ('A' for Active; 'I' for Inactive)
REMARK    1  A    between atoms: C11_15  and  O1_1 
REMARK    2  A    between atoms: C1_5  and  N1_4 
REMARK    3  A    between atoms: C2_6  and  N1_4 
REMARK    4  A    between atoms: C3_7  and  N1_4 
REMARK    5  A    between atoms: C10_14  and  C5_9 
ROOT
HETATM    1  C1  UNK     1      30.358  -6.344  36.616  1.00  0.00     0.032 A 
HETATM    2  C5  UNK     1      28.909  -6.672  34.241  1.00  0.00    -0.002 A 
HETATM    3  C8  UNK     1      30.762  -5.683  35.455  1.00  0.00     0.066 A 
HETATM    4  C9  UNK     1      29.232  -7.167  36.593  1.00  0.00     0.030 A 
HETATM    5  C11 UNK     1      30.040  -5.846  34.273  1.00  0.00     0.078 A 
HETATM    6  C14 UNK     1      28.511  -7.331  35.411  1.00  0.00     0.016 A 
ENDROOT
BRANCH   2   7
HETATM    7  C10 UNK     1      28.145  -6.858  33.028  1.00  0.00     0.033 C 
HETATM    8  C4  UNK     1      28.369  -7.722  32.040  1.00  0.00     0.067 A 
HETATM    9  C12 UNK     1      29.490  -8.697  31.999  1.00  0.00     0.197 A 
HETATM   10  C13 UNK     1      27.534  -7.856  30.819  1.00  0.00     0.197 A 
HETATM   11  O2  UNK     1      30.364  -8.874  32.819  1.00  0.00    -0.286 OA
HETATM   12  C6  UNK     1      29.305  -9.412  30.727  1.00  0.00     0.029 A 
HETATM   13  C17 UNK     1      30.085 -10.427  30.207  1.00  0.00     0.016 A 
HETATM   14  C7  UNK     1      28.182  -8.929  30.049  1.00  0.00     0.029 A 
HETATM   15  C19 UNK     1      29.708 -10.958  28.970  1.00  0.00     0.001 A 
HETATM   16  C20 UNK     1      28.577 -10.470  28.286  1.00  0.00     0.001 A 
HETATM   17  C18 UNK     1      27.797  -9.443  28.825  1.00  0.00     0.016 A 
HETATM   18  O3  UNK     1      26.544  -7.230  30.513  1.00  0.00    -0.286 OA
ENDBRANCH   2   7
BRANCH   5  19
HETATM   19  O1  UNK     1      30.457  -5.190  33.153  1.00  0.00    -0.360 OA
HETATM   20  H19 UNK     1      30.271  -5.712  32.356  1.00  0.00     0.217 HD
ENDBRANCH   5  19
BRANCH   1  21
HETATM   21  N1  UNK     1      31.086  -6.178  37.811  1.00  0.00    -0.382 N 
BRANCH  21  22
HETATM   22  C2  UNK     1      31.745  -7.310  38.433  1.00  0.00     0.118 C 
HETATM   23  C15 UNK     1      33.068  -7.617  37.754  1.00  0.00     0.026 C 
ENDBRANCH  21  22
BRANCH  21  24
HETATM   24  C3  UNK     1      31.196  -4.871  38.428  1.00  0.00     0.118 C 
HETATM   25  C16 UNK     1      29.855  -4.403  38.968  1.00  0.00     0.026 C 
ENDBRANCH  21  24
ENDBRANCH   1  21
TORSDOF 5
ENDMDL
MODEL 7
REMARK VINA RESULT:      -7.3     10.715     12.681
REMARK  5 active torsions:
REMARK  status: ('A' for Active; 'I' for Inactive)
REMARK    1  A    between atoms: C11_15  and  O1_1 
REMARK    2  A    between atoms: C1_5  and  N1_4 
REMARK    3  A    between atoms: C2_6  and  N1_4 
REMARK    4  A    between atoms: C3_7  and  N1_4 
REMARK    5  A    between atoms: C10_14  and  C5_9 
ROOT
HETATM    1  C1  UNK     1      30.312  -6.335  36.572  1.00  0.00     0.032 A 
HETATM    2  C5  UNK     1      28.871  -6.664  34.192  1.00  0.00    -0.002 A 
HETATM    3  C8  UNK     1      30.740  -5.703  35.404  1.00  0.00     0.066 A 
HETATM    4  C9  UNK     1      29.166  -7.131  36.554  1.00  0.00     0.030 A 
HETATM    5  C11 UNK     1      30.023  -5.867  34.219  1.00  0.00     0.078 A 
HETATM    6  C14 UNK     1      28.449  -7.295  35.369  1.00  0.00     0.016 A 
ENDROOT
BRANCH   2   7
HETATM    7  C10 UNK     1      28.111  -6.850  32.977  1.00  0.00     0.033 C 
HETATM    8  C4  UNK     1      28.335  -7.718  31.992  1.00  0.00     0.067 A 
HETATM    9  C12 UNK     1      29.451  -8.698  31.957  1.00  0.00     0.197 A 
HETATM   10  C13 UNK     1      27.504  -7.851  30.768  1.00  0.00     0.197 A 
HETATM   11  O2  UNK     1      30.322  -8.876  32.781  1.00  0.00    -0.286 OA
HETATM   12  C6  UNK     1      29.269  -9.415  30.687  1.00  0.00     0.029 A 
HETATM   13  C17 UNK     1      30.046 -10.435  30.172  1.00  0.00     0.016 A 
HETATM   14  C7  UNK     1      28.150  -8.929  30.003  1.00  0.00     0.029 A 
HETATM   15  C19 UNK     1      29.671 -10.968  28.935  1.00  0.00     0.001 A 
HETATM   16  C20 UNK     1      28.545 -10.476  28.246  1.00  0.00     0.001 A 
HETATM   17  C18 UNK     1      27.768  -9.444  28.779  1.00  0.00     0.016 A 
HETATM   18  O3  UNK     1      26.518  -7.221  30.456  1.00  0.00    -0.286 OA
ENDBRANCH   2   7
BRANCH   5  19
HETATM   19  O1  UNK     1      30.463  -5.238  33.092  1.00  0.00    -0.360 OA
HETATM   20  H19 UNK     1      31.169  -5.749  32.664  1.00  0.00     0.217 HD
ENDBRANCH   5  19
BRANCH   1  21
HETATM   21  N1  UNK     1      31.036  -6.169  37.770  1.00  0.00    -0.382 N 
BRANCH  21  22
HETATM   22  C2  UNK     1      31.155  -4.860  38.381  1.00  0.00     0.118 C 
HETATM   23  C15 UNK     1      29.801  -4.336  38.826  1.00  0.00     0.026 C 
ENDBRANCH  21  22
BRANCH  21  24
HETATM   24  C3  UNK     1      31.660  -7.308  38.414  1.00  0.00     0.118 C 
HETATM   25  C16 UNK     1      32.882  -7.774  37.641  1.00  0.00     0.026 C 
ENDBRANCH  21  24
ENDBRANCH   1  21
TORSDOF 5
ENDMDL
MODEL 8
REMARK VINA RESULT:      -7.3      6.848     12.156
REMARK  5 active torsions:
REMARK  status: ('A' for Active; 'I' for Inactive)
REMARK    1  A    between atoms: C11_15  and  O1_1 
REMARK    2  A    between atoms: C1_5  and  N1_4 
REMARK    3  A    between atoms: C2_6  and  N1_4 
REMARK    4  A    between atoms: C3_7  and  N1_4 
REMARK    5  A    between atoms: C10_14  and  C5_9 
ROOT
HETATM    1  C1  UNK     1      19.090   1.395  31.152  1.00  0.00     0.032 A 
HETATM    2  C5  UNK     1      17.932   3.875  31.749  1.00  0.00    -0.002 A 
HETATM    3  C8  UNK     1      18.711   1.691  32.462  1.00  0.00     0.066 A 
HETATM    4  C9  UNK     1      18.892   2.335  30.140  1.00  0.00     0.030 A 
HETATM    5  C11 UNK     1      18.134   2.926  32.759  1.00  0.00     0.078 A 
HETATM    6  C14 UNK     1      18.316   3.569  30.437  1.00  0.00     0.016 A 
ENDROOT
BRANCH   2   7
HETATM    7  C10 UNK     1      17.337   5.161  32.031  1.00  0.00     0.033 C 
HETATM    8  C4  UNK     1      17.917   6.236  32.564  1.00  0.00     0.067 A 
HETATM    9  C12 UNK     1      19.340   6.317  32.983  1.00  0.00     0.197 A 
HETATM   10  C13 UNK     1      17.236   7.530  32.825  1.00  0.00     0.197 A 
HETATM   11  O2  UNK     1      20.193   5.458  32.919  1.00  0.00    -0.286 OA
HETATM   12  C6  UNK     1      19.492   7.685  33.499  1.00  0.00     0.029 A 
HETATM   13  C17 UNK     1      20.631   8.273  34.015  1.00  0.00     0.016 A 
HETATM   14  C7  UNK     1      18.283   8.383  33.408  1.00  0.00     0.029 A 
HETATM   15  C19 UNK     1      20.532   9.599  34.446  1.00  0.00     0.001 A 
HETATM   16  C20 UNK     1      19.313  10.301  34.356  1.00  0.00     0.001 A 
HETATM   17  C18 UNK     1      18.169   9.693  33.831  1.00  0.00     0.016 A 
HETATM   18  O3  UNK     1      16.082   7.830  32.611  1.00  0.00    -0.286 OA
ENDBRANCH   2   7
BRANCH   5  19
HETATM   19  O1  UNK     1      17.773   3.189  34.047  1.00  0.00    -0.360 OA
HETATM   20  H19 UNK     1      17.388   4.077  34.124  1.00  0.00     0.217 HD
ENDBRANCH   5  19
BRANCH   1  21
HETATM   21  N1  UNK     1      19.672   0.147  30.851  1.00  0.00    -0.382 N 
BRANCH  21  22
HETATM   22  C2  UNK     1      20.538  -0.000  29.698  1.00  0.00     0.118 C 
HETATM   23  C15 UNK     1      19.804  -0.651  28.539  1.00  0.00     0.026 C 
ENDBRANCH  21  22
BRANCH  21  24
HETATM   24  C3  UNK     1      19.422  -1.002  31.698  1.00  0.00     0.118 C 
HETATM   25  C16 UNK     1      20.642  -1.906  31.772  1.00  0.00     0.026 C 
ENDBRANCH  21  24
ENDBRANCH   1  21
TORSDOF 5
ENDMDL
MODEL 9
REMARK VINA RESULT:      -7.3      2.691      7.810
REMARK  5 active torsions:
REMARK  status: ('A' for Active; 'I' for Inactive)
REMARK    1  A    between atoms: C11_15  and  O1_1 
REMARK    2  A    between atoms: C1_5  and  N1_4 
REMARK    3  A    between atoms: C2_6  and  N1_4 
REMARK    4  A    between atoms: C3_7  and  N1_4 
REMARK    5  A    between atoms: C10_14  and  C5_9 
ROOT
HETATM    1  C1  UNK     1      20.900  -6.493  37.799  1.00  0.00     0.032 A 
HETATM    2  C5  UNK     1      19.787  -4.031  37.059  1.00  0.00    -0.002 A 
HETATM    3  C8  UNK     1      19.588  -6.433  37.328  1.00  0.00     0.066 A 
HETATM    4  C9  UNK     1      21.657  -5.325  37.901  1.00  0.00     0.030 A 
HETATM    5  C11 UNK     1      19.034  -5.207  36.960  1.00  0.00     0.078 A 
HETATM    6  C14 UNK     1      21.104  -4.100  37.534  1.00  0.00     0.016 A 
ENDROOT
BRANCH   2   7
HETATM    7  C10 UNK     1      19.237  -2.748  36.685  1.00  0.00     0.033 C 
HETATM    8  C4  UNK     1      19.280  -2.151  35.494  1.00  0.00     0.067 A 
HETATM    9  C12 UNK     1      19.927  -2.715  34.281  1.00  0.00     0.197 A 
HETATM   10  C13 UNK     1      18.687  -0.825  35.184  1.00  0.00     0.197 A 
HETATM   11  O2  UNK     1      20.506  -3.772  34.161  1.00  0.00    -0.286 OA
HETATM   12  C6  UNK     1      19.707  -1.697  33.243  1.00  0.00     0.029 A 
HETATM   13  C17 UNK     1      20.114  -1.734  31.923  1.00  0.00     0.016 A 
HETATM   14  C7  UNK     1      18.995  -0.611  33.762  1.00  0.00     0.029 A 
HETATM   15  C19 UNK     1      19.786  -0.639  31.119  1.00  0.00     0.001 A 
HETATM   16  C20 UNK     1      19.069   0.456  31.642  1.00  0.00     0.001 A 
HETATM   17  C18 UNK     1      18.664   0.479  32.979  1.00  0.00     0.016 A 
HETATM   18  O3  UNK     1      18.085  -0.079  35.924  1.00  0.00    -0.286 OA
ENDBRANCH   2   7
BRANCH   5  19
HETATM   19  O1  UNK     1      17.750  -5.177  36.503  1.00  0.00    -0.360 OA
HETATM   20  H19 UNK     1      17.351  -4.305  36.650  1.00  0.00     0.217 HD
ENDBRANCH   5  19
BRANCH   1  21
HETATM   21  N1  UNK     1      21.460  -7.732  38.171  1.00  0.00    -0.382 N 
BRANCH  21  22
HETATM   22  C2  UNK     1      22.441  -8.378  37.321  1.00  0.00     0.118 C 
HETATM   23  C15 UNK     1      21.813  -8.866  36.028  1.00  0.00     0.026 C 
ENDBRANCH  21  22
BRANCH  21  24
HETATM   24  C3  UNK     1      21.073  -8.369  39.413  1.00  0.00     0.118 C 
HETATM   25  C16 UNK     1      20.140  -9.542  39.162  1.00  0.00     0.026 C 
ENDBRANCH  21  24
ENDBRANCH   1  21
TORSDOF 5
ENDMDL
MODEL 10
REMARK VINA RESULT:      -7.3      6.881     10.556
REMARK  5 active torsions:
REMARK  status: ('A' for Active; 'I' for Inactive)
REMARK    1  A    between atoms: C11_15  and  O1_1 
REMARK    2  A    between atoms: C1_5  and  N1_4 
REMARK    3  A    between atoms: C2_6  and  N1_4 
REMARK    4  A    between atoms: C3_7  and  N1_4 
REMARK    5  A    between atoms: C10_14  and  C5_9 
ROOT
HETATM    1  C1  UNK     1      29.314  -8.393  37.671  1.00  0.00     0.032 A 
HETATM    2  C5  UNK     1      27.049  -9.808  36.827  1.00  0.00    -0.002 A 
HETATM    3  C8  UNK     1      28.623  -9.204  38.571  1.00  0.00     0.066 A 
HETATM    4  C9  UNK     1      28.877  -8.287  36.350  1.00  0.00     0.030 A 
HETATM    5  C11 UNK     1      27.495  -9.909  38.150  1.00  0.00     0.078 A 
HETATM    6  C14 UNK     1      27.749  -8.991  35.930  1.00  0.00     0.016 A 
ENDROOT
BRANCH   2   7
HETATM    7  C10 UNK     1      25.883 -10.528  36.367  1.00  0.00     0.033 C 
HETATM    8  C4  UNK     1      24.601 -10.184  36.494  1.00  0.00     0.067 A 
HETATM    9  C12 UNK     1      24.113  -8.948  37.158  1.00  0.00     0.197 A 
HETATM   10  C13 UNK     1      23.452 -10.980  35.992  1.00  0.00     0.197 A 
HETATM   11  O2  UNK     1      24.762  -8.068  37.680  1.00  0.00    -0.286 OA
HETATM   12  C6  UNK     1      22.649  -9.025  37.041  1.00  0.00     0.029 A 
HETATM   13  C17 UNK     1      21.716  -8.116  37.500  1.00  0.00     0.016 A 
HETATM   14  C7  UNK     1      22.269 -10.192  36.372  1.00  0.00     0.029 A 
HETATM   15  C19 UNK     1      20.368  -8.406  37.269  1.00  0.00     0.001 A 
HETATM   16  C20 UNK     1      19.985  -9.583  36.595  1.00  0.00     0.001 A 
HETATM   17  C18 UNK     1      20.941 -10.494  36.137  1.00  0.00     0.016 A 
HETATM   18  O3  UNK     1      23.470 -12.038  35.403  1.00  0.00    -0.286 OA
ENDBRANCH   2   7
BRANCH   5  19
HETATM   19  O1  UNK     1      26.837 -10.694  39.050  1.00  0.00    -0.360 OA
HETATM   20  H19 UNK     1      26.682 -11.581  38.688  1.00  0.00     0.217 HD
ENDBRANCH   5  19
BRANCH   1  21
HETATM   21  N1  UNK     1      30.455  -7.682  38.094  1.00  0.00    -0.382 N 
BRANCH  21  22
HETATM   22  C2  UNK     1      31.688  -8.382  38.394  1.00  0.00     0.118 C 
HETATM   23  C15 UNK     1      32.897  -7.600  37.910  1.00  0.00     0.026 C 
ENDBRANCH  21  22
BRANCH  21  24
HETATM   24  C3  UNK     1      30.413  -6.239  38.224  1.00  0.00     0.118 C 
HETATM   25  C16 UNK     1      29.202  -5.794  39.027  1.00  0.00     0.026 C 
ENDBRANCH  21  24
ENDBRANCH   1  21
TORSDOF 5
ENDMDL
