MODEL 1
REMARK VINA RESULT:      -7.3      0.000      0.000
REMARK  2 active torsions:
REMARK  status: ('A' for Active; 'I' for Inactive)
REMARK    1  A    between atoms: C11_15  and  O3_3 
REMARK    2  A    between atoms: C11_15  and  C8_12 
ROOT
HETATM    1  O1  UNK     1      18.500   0.680  31.282  1.00  0.00    -0.303 OA
HETATM    2  O2  UNK     1      21.249  -1.252  28.971  1.00  0.00    -0.287 OA
HETATM    3  C1  UNK     1      20.173  -1.071  31.070  1.00  0.00     0.048 A 
HETATM    4  C2  UNK     1      19.218  -0.367  31.806  1.00  0.00     0.091 A 
HETATM    5  C3  UNK     1      19.659  -1.776  33.715  1.00  0.00    -0.059 A 
HETATM    6  C4  UNK     1      18.959  -0.720  33.130  1.00  0.00     0.045 A 
HETATM    7  C5  UNK     1      20.874  -2.129  31.653  1.00  0.00     0.019 A 
HETATM    8  C6  UNK     1      20.427  -0.679  29.673  1.00  0.00     0.187 A 
HETATM    9  C7  UNK     1      20.613  -2.478  32.979  1.00  0.00     0.008 A 
HETATM   10  C8  UNK     1      18.745   1.038  29.973  1.00  0.00     0.153 A 
HETATM   11  C9  UNK     1      19.630   0.453  29.156  1.00  0.00     0.100 A 
HETATM   12  C10 UNK     1      19.385  -2.155  35.131  1.00  0.00     0.048 C 
ENDROOT
BRANCH  10  13
HETATM   13  C11 UNK     1      17.970   2.157  29.435  1.00  0.00     0.201 C 
HETATM   14  O4  UNK     1      17.991   2.516  28.271  1.00  0.00    -0.645 OA
BRANCH  13  15
HETATM   15  O3  UNK     1      17.238   2.717  30.422  1.00  0.00    -0.771 OA
HETATM   16  H8  UNK     1      16.807   2.043  30.989  1.00  0.00     0.167 HD
ENDBRANCH  13  15
ENDBRANCH  10  13
TORSDOF 2
ENDMDL
MODEL 2
REMARK VINA RESULT:      -7.3      2.167      3.529
REMARK  2 active torsions:
REMARK  status: ('A' for Active; 'I' for Inactive)
REMARK    1  A    between atoms: C11_15  and  O3_3 
REMARK    2  A    between atoms: C11_15  and  C8_12 
ROOT
HETATM    1  O1  UNK     1      18.887   1.428  31.829  1.00  0.00    -0.303 OA
HETATM    2  O2  UNK     1      18.044   2.429  27.967  1.00  0.00    -0.287 OA
HETATM    3  C1  UNK     1      18.965   0.851  29.470  1.00  0.00     0.048 A 
HETATM    4  C2  UNK     1      19.225   0.570  30.812  1.00  0.00     0.091 A 
HETATM    5  C3  UNK     1      20.219  -1.534  30.174  1.00  0.00    -0.059 A 
HETATM    6  C4  UNK     1      19.852  -0.624  31.166  1.00  0.00     0.045 A 
HETATM    7  C5  UNK     1      19.331  -0.058  28.475  1.00  0.00     0.019 A 
HETATM    8  C6  UNK     1      18.301   2.120  29.123  1.00  0.00     0.187 A 
HETATM    9  C7  UNK     1      19.959  -1.252  28.832  1.00  0.00     0.008 A 
HETATM   10  C8  UNK     1      18.265   2.612  31.494  1.00  0.00     0.153 A 
HETATM   11  C9  UNK     1      17.958   3.008  30.252  1.00  0.00     0.100 A 
HETATM   12  C10 UNK     1      20.890  -2.812  30.548  1.00  0.00     0.048 C 
ENDROOT
BRANCH  10  13
HETATM   13  C11 UNK     1      17.914   3.512  32.594  1.00  0.00     0.201 C 
HETATM   14  O4  UNK     1      17.574   4.674  32.454  1.00  0.00    -0.645 OA
BRANCH  13  15
HETATM   15  O3  UNK     1      18.025   2.856  33.769  1.00  0.00    -0.771 OA
HETATM   16  H8  UNK     1      18.800   2.256  33.783  1.00  0.00     0.167 HD
ENDBRANCH  13  15
ENDBRANCH  10  13
TORSDOF 2
ENDMDL
MODEL 3
REMARK VINA RESULT:      -7.2      7.070      8.541
REMARK  2 active torsions:
REMARK  status: ('A' for Active; 'I' for Inactive)
REMARK    1  A    between atoms: C11_15  and  O3_3 
REMARK    2  A    between atoms: C11_15  and  C8_12 
ROOT
HETATM    1  O1  UNK     1      16.376   6.661  31.951  1.00  0.00    -0.303 OA
HETATM    2  O2  UNK     1      17.212   8.004  35.709  1.00  0.00    -0.287 OA
HETATM    3  C1  UNK     1      18.032   7.155  33.659  1.00  0.00     0.048 A 
HETATM    4  C2  UNK     1      17.677   6.707  32.386  1.00  0.00     0.091 A 
HETATM    5  C3  UNK     1      20.004   6.305  31.885  1.00  0.00    -0.059 A 
HETATM    6  C4  UNK     1      18.663   6.282  31.496  1.00  0.00     0.045 A 
HETATM    7  C5  UNK     1      19.373   7.180  34.050  1.00  0.00     0.019 A 
HETATM    8  C6  UNK     1      16.971   7.599  34.580  1.00  0.00     0.187 A 
HETATM    9  C7  UNK     1      20.357   6.753  33.158  1.00  0.00     0.008 A 
HETATM   10  C8  UNK     1      15.390   7.080  32.820  1.00  0.00     0.153 A 
HETATM   11  C9  UNK     1      15.588   7.531  34.065  1.00  0.00     0.100 A 
HETATM   12  C10 UNK     1      21.061   5.850  30.936  1.00  0.00     0.048 C 
ENDROOT
BRANCH  10  13
HETATM   13  C11 UNK     1      14.010   7.022  32.335  1.00  0.00     0.201 C 
HETATM   14  O4  UNK     1      13.691   7.011  31.159  1.00  0.00    -0.645 OA
BRANCH  13  15
HETATM   15  O3  UNK     1      13.163   6.984  33.385  1.00  0.00    -0.771 OA
HETATM   16  H8  UNK     1      13.007   7.875  33.765  1.00  0.00     0.167 HD
ENDBRANCH  13  15
ENDBRANCH  10  13
TORSDOF 2
ENDMDL
MODEL 4
REMARK VINA RESULT:      -7.1      2.154      4.797
REMARK  2 active torsions:
REMARK  status: ('A' for Active; 'I' for Inactive)
REMARK    1  A    between atoms: C11_15  and  O3_3 
REMARK    2  A    between atoms: C11_15  and  C8_12 
ROOT
HETATM    1  O1  UNK     1      19.945  -0.341  31.839  1.00  0.00    -0.303 OA
HETATM    2  O2  UNK     1      19.668  -0.733  27.789  1.00  0.00    -0.287 OA
HETATM    3  C1  UNK     1      19.278   0.604  29.702  1.00  0.00     0.048 A 
HETATM    4  C2  UNK     1      19.402   0.673  31.091  1.00  0.00     0.091 A 
HETATM    5  C3  UNK     1      18.405   2.871  31.065  1.00  0.00    -0.059 A 
HETATM    6  C4  UNK     1      18.966   1.808  31.774  1.00  0.00     0.045 A 
HETATM    7  C5  UNK     1      18.717   1.666  28.990  1.00  0.00     0.019 A 
HETATM    8  C6  UNK     1      19.746  -0.606  29.004  1.00  0.00     0.187 A 
HETATM    9  C7  UNK     1      18.281   2.800  29.677  1.00  0.00     0.008 A 
HETATM   10  C8  UNK     1      20.382  -1.469  31.176  1.00  0.00     0.153 A 
HETATM   11  C9  UNK     1      20.323  -1.668  29.853  1.00  0.00     0.100 A 
HETATM   12  C10 UNK     1      17.937   4.085  31.793  1.00  0.00     0.048 C 
ENDROOT
BRANCH  10  13
HETATM   13  C11 UNK     1      20.957  -2.539  31.994  1.00  0.00     0.201 C 
HETATM   14  O4  UNK     1      21.284  -2.416  33.161  1.00  0.00    -0.645 OA
BRANCH  13  15
HETATM   15  O3  UNK     1      21.065  -3.664  31.257  1.00  0.00    -0.771 OA
HETATM   16  H8  UNK     1      20.240  -4.195  31.274  1.00  0.00     0.167 HD
ENDBRANCH  13  15
ENDBRANCH  10  13
TORSDOF 2
ENDMDL
MODEL 5
REMARK VINA RESULT:      -6.9     22.392     24.250
REMARK  2 active torsions:
REMARK  status: ('A' for Active; 'I' for Inactive)
REMARK    1  A    between atoms: C11_15  and  O3_3 
REMARK    2  A    between atoms: C11_15  and  C8_12 
ROOT
HETATM    1  O1  UNK     1      13.383   7.419   8.049  1.00  0.00    -0.303 OA
HETATM    2  O2  UNK     1      15.325   4.261   9.747  1.00  0.00    -0.287 OA
HETATM    3  C1  UNK     1      15.165   6.607   9.488  1.00  0.00     0.048 A 
HETATM    4  C2  UNK     1      14.456   7.642   8.875  1.00  0.00     0.091 A 
HETATM    5  C3  UNK     1      15.915   9.254   9.921  1.00  0.00    -0.059 A 
HETATM    6  C4  UNK     1      14.830   8.967   9.092  1.00  0.00     0.045 A 
HETATM    7  C5  UNK     1      16.251   6.891  10.319  1.00  0.00     0.019 A 
HETATM    8  C6  UNK     1      14.749   5.215   9.242  1.00  0.00     0.187 A 
HETATM    9  C7  UNK     1      16.623   8.219  10.534  1.00  0.00     0.008 A 
HETATM   10  C8  UNK     1      13.000   6.113   7.826  1.00  0.00     0.153 A 
HETATM   11  C9  UNK     1      13.589   5.028   8.347  1.00  0.00     0.100 A 
HETATM   12  C10 UNK     1      16.319  10.671  10.156  1.00  0.00     0.048 C 
ENDROOT
BRANCH  10  13
HETATM   13  C11 UNK     1      11.853   5.898   6.943  1.00  0.00     0.201 C 
HETATM   14  O4  UNK     1      10.770   5.476   7.307  1.00  0.00    -0.645 OA
BRANCH  13  15
HETATM   15  O3  UNK     1      12.185   6.238   5.679  1.00  0.00    -0.771 OA
HETATM   16  H8  UNK     1      11.595   5.816   5.018  1.00  0.00     0.167 HD
ENDBRANCH  13  15
ENDBRANCH  10  13
TORSDOF 2
ENDMDL
MODEL 6
REMARK VINA RESULT:      -6.8     12.510     14.839
REMARK  2 active torsions:
REMARK  status: ('A' for Active; 'I' for Inactive)
REMARK    1  A    between atoms: C11_15  and  O3_3 
REMARK    2  A    between atoms: C11_15  and  C8_12 
ROOT
HETATM    1  O1  UNK     1      18.399  -0.935  18.001  1.00  0.00    -0.303 OA
HETATM    2  O2  UNK     1      19.810   1.974  15.517  1.00  0.00    -0.287 OA
HETATM    3  C1  UNK     1      19.072  -0.259  15.766  1.00  0.00     0.048 A 
HETATM    4  C2  UNK     1      18.592  -1.209  16.670  1.00  0.00     0.091 A 
HETATM    5  C3  UNK     1      18.465  -2.833  14.890  1.00  0.00    -0.059 A 
HETATM    6  C4  UNK     1      18.287  -2.497  16.232  1.00  0.00     0.045 A 
HETATM    7  C5  UNK     1      19.250  -0.593  14.422  1.00  0.00     0.019 A 
HETATM    8  C6  UNK     1      19.386   1.094  16.254  1.00  0.00     0.187 A 
HETATM    9  C7  UNK     1      18.944  -1.883  13.987  1.00  0.00     0.008 A 
HETATM   10  C8  UNK     1      18.695   0.335  18.448  1.00  0.00     0.153 A 
HETATM   11  C9  UNK     1      19.161   1.339  17.694  1.00  0.00     0.100 A 
HETATM   12  C10 UNK     1      18.140  -4.210  14.418  1.00  0.00     0.048 C 
ENDROOT
BRANCH  10  13
HETATM   13  C11 UNK     1      18.482   0.605  19.871  1.00  0.00     0.201 C 
HETATM   14  O4  UNK     1      18.061   1.658  20.319  1.00  0.00    -0.645 OA
BRANCH  13  15
HETATM   15  O3  UNK     1      18.819  -0.483  20.594  1.00  0.00    -0.771 OA
HETATM   16  H8  UNK     1      18.948  -0.268  21.543  1.00  0.00     0.167 HD
ENDBRANCH  13  15
ENDBRANCH  10  13
TORSDOF 2
ENDMDL
MODEL 7
REMARK VINA RESULT:      -6.8      2.269      4.950
REMARK  2 active torsions:
REMARK  status: ('A' for Active; 'I' for Inactive)
REMARK    1  A    between atoms: C11_15  and  O3_3 
REMARK    2  A    between atoms: C11_15  and  C8_12 
ROOT
HETATM    1  O1  UNK     1      19.628  -0.804  32.785  1.00  0.00    -0.303 OA
HETATM    2  O2  UNK     1      21.240  -3.402  30.086  1.00  0.00    -0.287 OA
HETATM    3  C1  UNK     1      20.171  -1.328  30.474  1.00  0.00     0.048 A 
HETATM    4  C2  UNK     1      19.636  -0.485  31.449  1.00  0.00     0.091 A 
HETATM    5  C3  UNK     1      19.057   1.117  29.739  1.00  0.00    -0.059 A 
HETATM    6  C4  UNK     1      19.078   0.740  31.083  1.00  0.00     0.045 A 
HETATM    7  C5  UNK     1      20.151  -0.953  29.129  1.00  0.00     0.019 A 
HETATM    8  C6  UNK     1      20.754  -2.616  30.888  1.00  0.00     0.187 A 
HETATM    9  C7  UNK     1      19.593   0.273  28.766  1.00  0.00     0.008 A 
HETATM   10  C8  UNK     1      20.177  -2.011  33.162  1.00  0.00     0.153 A 
HETATM   11  C9  UNK     1      20.722  -2.913  32.335  1.00  0.00     0.100 A 
HETATM   12  C10 UNK     1      18.461   2.425  29.343  1.00  0.00     0.048 C 
ENDROOT
BRANCH  10  13
HETATM   13  C11 UNK     1      20.159  -2.332  34.590  1.00  0.00     0.201 C 
HETATM   14  O4  UNK     1      20.397  -3.433  35.054  1.00  0.00    -0.645 OA
BRANCH  13  15
HETATM   15  O3  UNK     1      19.841  -1.227  35.298  1.00  0.00    -0.771 OA
HETATM   16  H8  UNK     1      18.937  -1.279  35.674  1.00  0.00     0.167 HD
ENDBRANCH  13  15
ENDBRANCH  10  13
TORSDOF 2
ENDMDL
MODEL 8
REMARK VINA RESULT:      -6.8      3.033      5.030
REMARK  2 active torsions:
REMARK  status: ('A' for Active; 'I' for Inactive)
REMARK    1  A    between atoms: C11_15  and  O3_3 
REMARK    2  A    between atoms: C11_15  and  C8_12 
ROOT
HETATM    1  O1  UNK     1      17.746  -0.444  33.684  1.00  0.00    -0.303 OA
HETATM    2  O2  UNK     1      20.084  -2.528  36.296  1.00  0.00    -0.287 OA
HETATM    3  C1  UNK     1      19.661  -1.893  34.057  1.00  0.00     0.048 A 
HETATM    4  C2  UNK     1      18.821  -1.159  33.218  1.00  0.00     0.091 A 
HETATM    5  C3  UNK     1      20.138  -1.840  31.313  1.00  0.00    -0.059 A 
HETATM    6  C4  UNK     1      19.059  -1.131  31.844  1.00  0.00     0.045 A 
HETATM    7  C5  UNK     1      20.742  -2.604  33.528  1.00  0.00     0.019 A 
HETATM    8  C6  UNK     1      19.388  -1.906  35.504  1.00  0.00     0.187 A 
HETATM    9  C7  UNK     1      20.976  -2.574  32.153  1.00  0.00     0.008 A 
HETATM   10  C8  UNK     1      17.500  -0.462  35.041  1.00  0.00     0.153 A 
HETATM   11  C9  UNK     1      18.221  -1.121  35.956  1.00  0.00     0.100 A 
HETATM   12  C10 UNK     1      20.395  -1.813  29.844  1.00  0.00     0.048 C 
ENDROOT
BRANCH  10  13
HETATM   13  C11 UNK     1      16.349   0.307  35.516  1.00  0.00     0.201 C 
HETATM   14  O4  UNK     1      16.144   0.594  36.683  1.00  0.00    -0.645 OA
BRANCH  13  15
HETATM   15  O3  UNK     1      15.564   0.641  34.470  1.00  0.00    -0.771 OA
HETATM   16  H8  UNK     1      15.226   1.559  34.543  1.00  0.00     0.167 HD
ENDBRANCH  13  15
ENDBRANCH  10  13
TORSDOF 2
ENDMDL
MODEL 9
REMARK VINA RESULT:      -6.7     22.627     24.620
REMARK  2 active torsions:
REMARK  status: ('A' for Active; 'I' for Inactive)
REMARK    1  A    between atoms: C11_15  and  O3_3 
REMARK    2  A    between atoms: C11_15  and  C8_12 
ROOT
HETATM    1  O1  UNK     1      14.305   6.016   8.309  1.00  0.00    -0.303 OA
HETATM    2  O2  UNK     1      12.754   8.412  11.222  1.00  0.00    -0.287 OA
HETATM    3  C1  UNK     1      12.418   7.281   9.171  1.00  0.00     0.048 A 
HETATM    4  C2  UNK     1      13.010   6.459   8.211  1.00  0.00     0.091 A 
HETATM    5  C3  UNK     1      10.959   6.477   6.938  1.00  0.00    -0.059 A 
HETATM    6  C4  UNK     1      12.280   6.055   7.093  1.00  0.00     0.045 A 
HETATM    7  C5  UNK     1      11.095   7.704   9.019  1.00  0.00     0.019 A 
HETATM    8  C6  UNK     1      13.210   7.693  10.342  1.00  0.00     0.187 A 
HETATM    9  C7  UNK     1      10.368   7.298   7.900  1.00  0.00     0.008 A 
HETATM   10  C8  UNK     1      15.038   6.406   9.410  1.00  0.00     0.153 A 
HETATM   11  C9  UNK     1      14.598   7.189  10.403  1.00  0.00     0.100 A 
HETATM   12  C10 UNK     1      10.176   6.047   5.744  1.00  0.00     0.048 C 
ENDROOT
BRANCH  10  13
HETATM   13  C11 UNK     1      16.417   5.922   9.496  1.00  0.00     0.201 C 
HETATM   14  O4  UNK     1      17.398   6.640   9.576  1.00  0.00    -0.645 OA
BRANCH  13  15
HETATM   15  O3  UNK     1      16.425   4.572   9.473  1.00  0.00    -0.771 OA
HETATM   16  H8  UNK     1      16.088   4.188  10.311  1.00  0.00     0.167 HD
ENDBRANCH  13  15
ENDBRANCH  10  13
TORSDOF 2
ENDMDL
MODEL 10
REMARK VINA RESULT:      -6.7     22.496     24.941
REMARK  2 active torsions:
REMARK  status: ('A' for Active; 'I' for Inactive)
REMARK    1  A    between atoms: C11_15  and  O3_3 
REMARK    2  A    between atoms: C11_15  and  C8_12 
ROOT
HETATM    1  O1  UNK     1      11.832   5.397   9.778  1.00  0.00    -0.303 OA
HETATM    2  O2  UNK     1      12.123   6.494   5.861  1.00  0.00    -0.287 OA
HETATM    3  C1  UNK     1      10.723   5.936   7.684  1.00  0.00     0.048 A 
HETATM    4  C2  UNK     1      10.694   5.562   9.029  1.00  0.00     0.091 A 
HETATM    5  C3  UNK     1       8.283   5.493   8.953  1.00  0.00    -0.059 A 
HETATM    6  C4  UNK     1       9.473   5.341   9.665  1.00  0.00     0.045 A 
HETATM    7  C5  UNK     1       9.532   6.090   6.969  1.00  0.00     0.019 A 
HETATM    8  C6  UNK     1      12.025   6.164   7.035  1.00  0.00     0.187 A 
HETATM    9  C7  UNK     1       8.313   5.867   7.609  1.00  0.00     0.008 A 
HETATM   10  C8  UNK     1      13.047   5.613   9.161  1.00  0.00     0.153 A 
HETATM   11  C9  UNK     1      13.220   5.974   7.883  1.00  0.00     0.100 A 
HETATM   12  C10 UNK     1       6.975   5.257   9.631  1.00  0.00     0.048 C 
ENDROOT
BRANCH  10  13
HETATM   13  C11 UNK     1      14.248   5.431   9.978  1.00  0.00     0.201 C 
HETATM   14  O4  UNK     1      14.740   6.294  10.684  1.00  0.00    -0.645 OA
BRANCH  13  15
HETATM   15  O3  UNK     1      14.713   4.174   9.825  1.00  0.00    -0.771 OA
HETATM   16  H8  UNK     1      14.065   3.502  10.128  1.00  0.00     0.167 HD
ENDBRANCH  13  15
ENDBRANCH  10  13
TORSDOF 2
ENDMDL
