MODEL 1
REMARK VINA RESULT:      -9.3      0.000      0.000
REMARK  5 active torsions:
REMARK  status: ('A' for Active; 'I' for Inactive)
REMARK    1  A    between atoms: C17_23  and  O2_3 
REMARK    2  A    between atoms: C5_11  and  N1_5 
REMARK    3  A    between atoms: C6_12  and  N2_6 
REMARK    4  A    between atoms: C5_11  and  C7_13 
REMARK    5  A    between atoms: C6_12  and  C8_14 
ROOT
HETATM    1  N1  UNK     1      18.017   5.122  31.555  1.00  0.00     0.096 N 
HETATM    2  N2  UNK     1      18.946   2.808  30.092  1.00  0.00     0.096 N 
HETATM    3  C1  UNK     1      19.044   5.241  30.512  1.00  0.00     0.303 C 
HETATM    4  C2  UNK     1      18.077   3.797  32.183  1.00  0.00     0.303 C 
HETATM    5  C3  UNK     1      18.889   4.134  29.464  1.00  0.00     0.303 C 
HETATM    6  C4  UNK     1      17.921   2.690  31.135  1.00  0.00     0.303 C 
ENDROOT
BRANCH   1   7
HETATM    7  C5  UNK     1      18.167   6.177  32.554  1.00  0.00     0.312 C 
BRANCH   7   8
HETATM    8  C7  UNK     1      16.958   7.041  32.647  1.00  0.00    -0.011 A 
HETATM    9  C10 UNK     1      15.754   6.591  32.262  1.00  0.00     0.092 A 
HETATM   10  C15 UNK     1      14.531   7.407  32.336  1.00  0.00     0.288 A 
HETATM   11  O1  UNK     1      14.669   8.694  32.832  1.00  0.00    -0.275 OA
HETATM   12  O3  UNK     1      13.448   6.963  31.973  1.00  0.00    -0.260 OA
HETATM   13  C11 UNK     1      15.921   9.194  33.244  1.00  0.00     0.090 A 
HETATM   14  C9  UNK     1      17.072   8.409  33.169  1.00  0.00     0.009 A 
HETATM   15  C16 UNK     1      15.941  10.504  33.726  1.00  0.00     0.041 A 
HETATM   16  C14 UNK     1      18.277   8.981  33.599  1.00  0.00     0.051 A 
HETATM   17  C17 UNK     1      18.314  10.292  34.085  1.00  0.00     0.069 A 
HETATM   18  C20 UNK     1      17.147  11.053  34.149  1.00  0.00     0.039 A 
BRANCH  17  19
HETATM   19  O2  UNK     1      19.496  10.829  34.498  1.00  0.00    -0.356 OA
HETATM   20  C22 UNK     1      20.614   9.947  34.586  1.00  0.00     0.210 C 
ENDBRANCH  17  19
ENDBRANCH   7   8
ENDBRANCH   1   7
BRANCH   2  21
HETATM   21  C6  UNK     1      18.795   1.753  29.092  1.00  0.00     0.314 C 
BRANCH  21  22
HETATM   22  C8  UNK     1      19.490   0.483  29.505  1.00  0.00     0.009 A 
HETATM   23  C12 UNK     1      19.501  -0.619  28.651  1.00  0.00     0.124 A 
HETATM   24  F1  UNK     1      18.894  -0.560  27.458  1.00  0.00    -0.205 F 
HETATM   25  C18 UNK     1      20.147  -1.794  29.037  1.00  0.00     0.043 A 
HETATM   26  C21 UNK     1      20.779  -1.867  30.278  1.00  0.00     0.003 A 
HETATM   27  C19 UNK     1      20.768  -0.764  31.133  1.00  0.00     0.001 A 
HETATM   28  C13 UNK     1      20.123   0.411  30.746  1.00  0.00     0.012 A 
ENDBRANCH  21  22
ENDBRANCH   2  21
TORSDOF 5
ENDMDL
MODEL 2
REMARK VINA RESULT:      -9.0      4.484      9.321
REMARK  5 active torsions:
REMARK  status: ('A' for Active; 'I' for Inactive)
REMARK    1  A    between atoms: C17_23  and  O2_3 
REMARK    2  A    between atoms: C5_11  and  N1_5 
REMARK    3  A    between atoms: C6_12  and  N2_6 
REMARK    4  A    between atoms: C5_11  and  C7_13 
REMARK    5  A    between atoms: C6_12  and  C8_14 
ROOT
HETATM    1  N1  UNK     1      18.883   3.705  31.547  1.00  0.00     0.096 N 
HETATM    2  N2  UNK     1      19.206   6.311  32.757  1.00  0.00     0.096 N 
HETATM    3  C1  UNK     1      19.318   4.864  30.757  1.00  0.00     0.303 C 
HETATM    4  C2  UNK     1      18.036   4.137  32.665  1.00  0.00     0.303 C 
HETATM    5  C3  UNK     1      20.053   5.880  31.637  1.00  0.00     0.303 C 
HETATM    6  C4  UNK     1      18.772   5.152  33.546  1.00  0.00     0.303 C 
ENDROOT
BRANCH   1   7
HETATM    7  C5  UNK     1      18.181   2.738  30.707  1.00  0.00     0.312 C 
BRANCH   7   8
HETATM    8  C7  UNK     1      18.905   1.439  30.619  1.00  0.00    -0.011 A 
HETATM    9  C10 UNK     1      19.565   1.088  29.505  1.00  0.00     0.092 A 
HETATM   10  C15 UNK     1      20.295  -0.184  29.372  1.00  0.00     0.288 A 
HETATM   11  O1  UNK     1      20.277  -1.031  30.469  1.00  0.00    -0.275 OA
HETATM   12  O3  UNK     1      20.887  -0.472  28.338  1.00  0.00    -0.260 OA
HETATM   13  C11 UNK     1      19.592  -0.689  31.653  1.00  0.00     0.090 A 
HETATM   14  C9  UNK     1      18.905   0.520  31.765  1.00  0.00     0.009 A 
HETATM   15  C16 UNK     1      19.641  -1.619  32.693  1.00  0.00     0.041 A 
HETATM   16  C14 UNK     1      18.249   0.785  32.975  1.00  0.00     0.051 A 
HETATM   17  C17 UNK     1      18.289  -0.137  34.027  1.00  0.00     0.069 A 
HETATM   18  C20 UNK     1      18.985  -1.337  33.886  1.00  0.00     0.039 A 
BRANCH  17  19
HETATM   19  O2  UNK     1      17.645   0.140  35.195  1.00  0.00    -0.356 OA
HETATM   20  C22 UNK     1      16.232   0.325  35.129  1.00  0.00     0.210 C 
ENDBRANCH  17  19
ENDBRANCH   7   8
ENDBRANCH   1   7
BRANCH   2  21
HETATM   21  C6  UNK     1      19.910   7.278  33.597  1.00  0.00     0.314 C 
BRANCH  21  22
HETATM   22  C8  UNK     1      19.112   8.540  33.790  1.00  0.00     0.009 A 
HETATM   23  C12 UNK     1      19.749   9.718  34.178  1.00  0.00     0.124 A 
HETATM   24  F1  UNK     1      21.073   9.739  34.385  1.00  0.00    -0.205 F 
HETATM   25  C18 UNK     1      19.007  10.887  34.355  1.00  0.00     0.043 A 
HETATM   26  C21 UNK     1      17.628  10.875  34.144  1.00  0.00     0.003 A 
HETATM   27  C19 UNK     1      16.991   9.696  33.755  1.00  0.00     0.001 A 
HETATM   28  C13 UNK     1      17.733   8.529  33.579  1.00  0.00     0.012 A 
ENDBRANCH  21  22
ENDBRANCH   2  21
TORSDOF 5
ENDMDL
MODEL 3
REMARK VINA RESULT:      -8.4     22.099     24.115
REMARK  5 active torsions:
REMARK  status: ('A' for Active; 'I' for Inactive)
REMARK    1  A    between atoms: C17_23  and  O2_3 
REMARK    2  A    between atoms: C5_11  and  N1_5 
REMARK    3  A    between atoms: C6_12  and  N2_6 
REMARK    4  A    between atoms: C5_11  and  C7_13 
REMARK    5  A    between atoms: C6_12  and  C8_14 
ROOT
HETATM    1  N1  UNK     1      11.930   6.327   7.452  1.00  0.00     0.096 N 
HETATM    2  N2  UNK     1       9.126   6.239   8.153  1.00  0.00     0.096 N 
HETATM    3  C1  UNK     1      11.490   6.434   8.849  1.00  0.00     0.303 C 
HETATM    4  C2  UNK     1      10.902   6.858   6.549  1.00  0.00     0.303 C 
HETATM    5  C3  UNK     1      10.155   5.710   9.057  1.00  0.00     0.303 C 
HETATM    6  C4  UNK     1       9.568   6.133   6.757  1.00  0.00     0.303 C 
ENDROOT
BRANCH   1   7
HETATM    7  C5  UNK     1      13.202   7.019   7.255  1.00  0.00     0.312 C 
BRANCH   7   8
HETATM    8  C7  UNK     1      14.182   6.712   8.332  1.00  0.00    -0.011 A 
HETATM    9  C10 UNK     1      14.599   5.457   8.554  1.00  0.00     0.092 A 
HETATM   10  C15 UNK     1      15.567   5.106   9.606  1.00  0.00     0.288 A 
HETATM   11  O1  UNK     1      16.048   6.148  10.384  1.00  0.00    -0.275 OA
HETATM   12  O3  UNK     1      15.925   3.947   9.780  1.00  0.00    -0.260 OA
HETATM   13  C11 UNK     1      15.629   7.478  10.174  1.00  0.00     0.090 A 
HETATM   14  C9  UNK     1      14.711   7.796   9.173  1.00  0.00     0.009 A 
HETATM   15  C16 UNK     1      16.178   8.446  11.017  1.00  0.00     0.041 A 
HETATM   16  C14 UNK     1      14.345   9.141   9.030  1.00  0.00     0.051 A 
HETATM   17  C17 UNK     1      14.887  10.123   9.867  1.00  0.00     0.069 A 
HETATM   18  C20 UNK     1      15.803   9.776  10.859  1.00  0.00     0.039 A 
BRANCH  17  19
HETATM   19  O2  UNK     1      14.518  11.424   9.711  1.00  0.00    -0.356 OA
HETATM   20  C22 UNK     1      15.201  12.178   8.711  1.00  0.00     0.210 C 
ENDBRANCH  17  19
ENDBRANCH   7   8
ENDBRANCH   1   7
BRANCH   2  21
HETATM   21  C6  UNK     1       7.855   5.546   8.350  1.00  0.00     0.314 C 
BRANCH  21  22
HETATM   22  C8  UNK     1       7.262   5.836   9.704  1.00  0.00     0.009 A 
HETATM   23  C12 UNK     1       7.033   4.797  10.605  1.00  0.00     0.124 A 
HETATM   24  F1  UNK     1       7.337   3.533  10.276  1.00  0.00    -0.205 F 
HETATM   25  C18 UNK     1       6.484   5.069  11.858  1.00  0.00     0.043 A 
HETATM   26  C21 UNK     1       6.162   6.380  12.209  1.00  0.00     0.003 A 
HETATM   27  C19 UNK     1       6.391   7.420  11.307  1.00  0.00     0.001 A 
HETATM   28  C13 UNK     1       6.940   7.147  10.054  1.00  0.00     0.012 A 
ENDBRANCH  21  22
ENDBRANCH   2  21
TORSDOF 5
ENDMDL
MODEL 4
REMARK VINA RESULT:      -8.4     16.604     17.775
REMARK  5 active torsions:
REMARK  status: ('A' for Active; 'I' for Inactive)
REMARK    1  A    between atoms: C17_23  and  O2_3 
REMARK    2  A    between atoms: C5_11  and  N1_5 
REMARK    3  A    between atoms: C6_12  and  N2_6 
REMARK    4  A    between atoms: C5_11  and  C7_13 
REMARK    5  A    between atoms: C6_12  and  C8_14 
ROOT
HETATM    1  N1  UNK     1      31.698  -6.454  33.871  1.00  0.00     0.096 N 
HETATM    2  N2  UNK     1      30.465  -7.112  31.340  1.00  0.00     0.096 N 
HETATM    3  C1  UNK     1      32.170  -7.586  33.066  1.00  0.00     0.303 C 
HETATM    4  C2  UNK     1      30.269  -6.218  33.636  1.00  0.00     0.303 C 
HETATM    5  C3  UNK     1      31.895  -7.350  31.577  1.00  0.00     0.303 C 
HETATM    6  C4  UNK     1      29.994  -5.980  32.147  1.00  0.00     0.303 C 
ENDROOT
BRANCH   1   7
HETATM    7  C5  UNK     1      31.960  -6.681  35.291  1.00  0.00     0.312 C 
BRANCH   7   8
HETATM    8  C7  UNK     1      31.452  -5.571  36.142  1.00  0.00    -0.011 A 
HETATM    9  C10 UNK     1      31.922  -4.322  36.006  1.00  0.00     0.092 A 
HETATM   10  C15 UNK     1      31.450  -3.192  36.824  1.00  0.00     0.288 A 
HETATM   11  O1  UNK     1      30.474  -3.471  37.767  1.00  0.00    -0.275 OA
HETATM   12  O3  UNK     1      31.904  -2.064  36.672  1.00  0.00    -0.260 OA
HETATM   13  C11 UNK     1      29.959  -4.773  37.933  1.00  0.00     0.090 A 
HETATM   14  C9  UNK     1      30.416  -5.834  37.151  1.00  0.00     0.009 A 
HETATM   15  C16 UNK     1      28.980  -4.937  38.914  1.00  0.00     0.041 A 
HETATM   16  C14 UNK     1      29.855  -7.098  37.378  1.00  0.00     0.051 A 
HETATM   17  C17 UNK     1      28.872  -7.279  38.357  1.00  0.00     0.069 A 
HETATM   18  C20 UNK     1      28.434  -6.199  39.124  1.00  0.00     0.039 A 
BRANCH  17  19
HETATM   19  O2  UNK     1      28.339  -8.515  38.562  1.00  0.00    -0.356 OA
HETATM   20  C22 UNK     1      27.634  -8.723  39.785  1.00  0.00     0.210 C 
ENDBRANCH  17  19
ENDBRANCH   7   8
ENDBRANCH   1   7
BRANCH   2  21
HETATM   21  C6  UNK     1      30.205  -6.883  29.921  1.00  0.00     0.314 C 
BRANCH  21  22
HETATM   22  C8  UNK     1      29.676  -8.118  29.240  1.00  0.00     0.009 A 
HETATM   23  C12 UNK     1      28.372  -8.547  29.484  1.00  0.00     0.124 A 
HETATM   24  F1  UNK     1      27.579  -7.868  30.325  1.00  0.00    -0.205 F 
HETATM   25  C18 UNK     1      27.885  -9.691  28.852  1.00  0.00     0.043 A 
HETATM   26  C21 UNK     1      28.703 -10.406  27.977  1.00  0.00     0.003 A 
HETATM   27  C19 UNK     1      30.007  -9.977  27.733  1.00  0.00     0.001 A 
HETATM   28  C13 UNK     1      30.494  -8.833  28.366  1.00  0.00     0.012 A 
ENDBRANCH  21  22
ENDBRANCH   2  21
TORSDOF 5
ENDMDL
MODEL 5
REMARK VINA RESULT:      -8.4     16.575     17.821
REMARK  5 active torsions:
REMARK  status: ('A' for Active; 'I' for Inactive)
REMARK    1  A    between atoms: C17_23  and  O2_3 
REMARK    2  A    between atoms: C5_11  and  N1_5 
REMARK    3  A    between atoms: C6_12  and  N2_6 
REMARK    4  A    between atoms: C5_11  and  C7_13 
REMARK    5  A    between atoms: C6_12  and  C8_14 
ROOT
HETATM    1  N1  UNK     1      30.000  -6.762  34.904  1.00  0.00     0.096 N 
HETATM    2  N2  UNK     1      29.701  -6.910  32.032  1.00  0.00     0.096 N 
HETATM    3  C1  UNK     1      30.784  -5.900  34.010  1.00  0.00     0.303 C 
HETATM    4  C2  UNK     1      29.671  -8.027  34.237  1.00  0.00     0.303 C 
HETATM    5  C3  UNK     1      30.032  -5.645  32.700  1.00  0.00     0.303 C 
HETATM    6  C4  UNK     1      28.918  -7.772  32.926  1.00  0.00     0.303 C 
ENDROOT
BRANCH   1   7
HETATM    7  C5  UNK     1      30.719  -7.005  36.152  1.00  0.00     0.312 C 
BRANCH   7   8
HETATM    8  C7  UNK     1      29.976  -6.495  37.338  1.00  0.00    -0.011 A 
HETATM    9  C10 UNK     1      30.275  -5.307  37.884  1.00  0.00     0.092 A 
HETATM   10  C15 UNK     1      29.569  -4.760  39.055  1.00  0.00     0.288 A 
HETATM   11  O1  UNK     1      28.554  -5.538  39.590  1.00  0.00    -0.275 OA
HETATM   12  O3  UNK     1      29.870  -3.670  39.527  1.00  0.00    -0.260 OA
HETATM   13  C11 UNK     1      28.217  -6.791  39.037  1.00  0.00     0.090 A 
HETATM   14  C9  UNK     1      28.895  -7.296  37.927  1.00  0.00     0.009 A 
HETATM   15  C16 UNK     1      27.179  -7.488  39.658  1.00  0.00     0.041 A 
HETATM   16  C14 UNK     1      28.500  -8.549  37.439  1.00  0.00     0.051 A 
HETATM   17  C17 UNK     1      27.461  -9.260  38.050  1.00  0.00     0.069 A 
HETATM   18  C20 UNK     1      26.801  -8.730  39.158  1.00  0.00     0.039 A 
BRANCH  17  19
HETATM   19  O2  UNK     1      27.092 -10.476  37.560  1.00  0.00    -0.356 OA
HETATM   20  C22 UNK     1      26.040 -10.496  36.597  1.00  0.00     0.210 C 
ENDBRANCH  17  19
ENDBRANCH   7   8
ENDBRANCH   1   7
BRANCH   2  21
HETATM   21  C6  UNK     1      28.981  -6.666  30.784  1.00  0.00     0.314 C 
BRANCH  21  22
HETATM   22  C8  UNK     1      29.133  -7.808  29.815  1.00  0.00     0.009 A 
HETATM   23  C12 UNK     1      28.087  -8.710  29.626  1.00  0.00     0.124 A 
HETATM   24  F1  UNK     1      26.939  -8.571  30.304  1.00  0.00    -0.205 F 
HETATM   25  C18 UNK     1      28.231  -9.767  28.727  1.00  0.00     0.043 A 
HETATM   26  C21 UNK     1      29.423  -9.922  28.018  1.00  0.00     0.003 A 
HETATM   27  C19 UNK     1      30.469  -9.020  28.207  1.00  0.00     0.001 A 
HETATM   28  C13 UNK     1      30.325  -7.963  29.106  1.00  0.00     0.012 A 
ENDBRANCH  21  22
ENDBRANCH   2  21
TORSDOF 5
ENDMDL
MODEL 6
REMARK VINA RESULT:      -8.3      4.669      9.638
REMARK  5 active torsions:
REMARK  status: ('A' for Active; 'I' for Inactive)
REMARK    1  A    between atoms: C17_23  and  O2_3 
REMARK    2  A    between atoms: C5_11  and  N1_5 
REMARK    3  A    between atoms: C6_12  and  N2_6 
REMARK    4  A    between atoms: C5_11  and  C7_13 
REMARK    5  A    between atoms: C6_12  and  C8_14 
ROOT
HETATM    1  N1  UNK     1      17.127   6.291  33.222  1.00  0.00     0.096 N 
HETATM    2  N2  UNK     1      15.480   8.663  33.370  1.00  0.00     0.096 N 
HETATM    3  C1  UNK     1      16.473   6.687  34.475  1.00  0.00     0.303 C 
HETATM    4  C2  UNK     1      17.415   7.472  32.399  1.00  0.00     0.303 C 
HETATM    5  C3  UNK     1      15.193   7.482  34.195  1.00  0.00     0.303 C 
HETATM    6  C4  UNK     1      16.135   8.266  32.118  1.00  0.00     0.303 C 
ENDROOT
BRANCH   1   7
HETATM    7  C5  UNK     1      18.348   5.535  33.490  1.00  0.00     0.312 C 
BRANCH   7   8
HETATM    8  C7  UNK     1      18.322   4.183  32.866  1.00  0.00    -0.011 A 
HETATM    9  C10 UNK     1      18.279   4.036  31.533  1.00  0.00     0.092 A 
HETATM   10  C15 UNK     1      18.253   2.721  30.871  1.00  0.00     0.288 A 
HETATM   11  O1  UNK     1      18.274   1.607  31.695  1.00  0.00    -0.275 OA
HETATM   12  O3  UNK     1      18.214   2.626  29.649  1.00  0.00    -0.260 OA
HETATM   13  C11 UNK     1      18.318   1.730  33.099  1.00  0.00     0.090 A 
HETATM   14  C9  UNK     1      18.343   2.983  33.713  1.00  0.00     0.009 A 
HETATM   15  C16 UNK     1      18.334   0.541  33.829  1.00  0.00     0.041 A 
HETATM   16  C14 UNK     1      18.386   3.019  35.113  1.00  0.00     0.051 A 
HETATM   17  C17 UNK     1      18.403   1.836  35.860  1.00  0.00     0.069 A 
HETATM   18  C20 UNK     1      18.378   0.598  35.219  1.00  0.00     0.039 A 
BRANCH  17  19
HETATM   19  O2  UNK     1      18.445   1.893  37.220  1.00  0.00    -0.356 OA
HETATM   20  C22 UNK     1      17.640   0.957  37.934  1.00  0.00     0.210 C 
ENDBRANCH  17  19
ENDBRANCH   7   8
ENDBRANCH   1   7
BRANCH   2  21
HETATM   21  C6  UNK     1      14.258   9.417  33.101  1.00  0.00     0.314 C 
BRANCH  21  22
HETATM   22  C8  UNK     1      14.139  10.628  33.989  1.00  0.00     0.009 A 
HETATM   23  C12 UNK     1      13.041  11.480  33.868  1.00  0.00     0.124 A 
HETATM   24  F1  UNK     1      12.086  11.231  32.962  1.00  0.00    -0.205 F 
HETATM   25  C18 UNK     1      12.934  12.600  34.692  1.00  0.00     0.043 A 
HETATM   26  C21 UNK     1      13.925  12.869  35.637  1.00  0.00     0.003 A 
HETATM   27  C19 UNK     1      15.022  12.016  35.758  1.00  0.00     0.001 A 
HETATM   28  C13 UNK     1      15.129  10.896  34.934  1.00  0.00     0.012 A 
ENDBRANCH  21  22
ENDBRANCH   2  21
TORSDOF 5
ENDMDL
MODEL 7
REMARK VINA RESULT:      -8.3     14.588     18.581
REMARK  5 active torsions:
REMARK  status: ('A' for Active; 'I' for Inactive)
REMARK    1  A    between atoms: C17_23  and  O2_3 
REMARK    2  A    between atoms: C5_11  and  N1_5 
REMARK    3  A    between atoms: C6_12  and  N2_6 
REMARK    4  A    between atoms: C5_11  and  C7_13 
REMARK    5  A    between atoms: C6_12  and  C8_14 
ROOT
HETATM    1  N1  UNK     1      26.788  -9.336  37.562  1.00  0.00     0.096 N 
HETATM    2  N2  UNK     1      29.619  -8.980  38.026  1.00  0.00     0.096 N 
HETATM    3  C1  UNK     1      27.607  -8.505  36.672  1.00  0.00     0.303 C 
HETATM    4  C2  UNK     1      27.342  -9.332  38.921  1.00  0.00     0.303 C 
HETATM    5  C3  UNK     1      29.064  -8.982  36.667  1.00  0.00     0.303 C 
HETATM    6  C4  UNK     1      28.799  -9.810  38.916  1.00  0.00     0.303 C 
ENDROOT
BRANCH   1   7
HETATM    7  C5  UNK     1      25.400  -8.880  37.567  1.00  0.00     0.312 C 
BRANCH   7   8
HETATM    8  C7  UNK     1      24.502  -9.801  36.816  1.00  0.00    -0.011 A 
HETATM    9  C10 UNK     1      24.963 -10.947  36.296  1.00  0.00     0.092 A 
HETATM   10  C15 UNK     1      24.114 -11.889  35.548  1.00  0.00     0.288 A 
HETATM   11  O1  UNK     1      22.782 -11.540  35.394  1.00  0.00    -0.275 OA
HETATM   12  O3  UNK     1      24.571 -12.928  35.086  1.00  0.00    -0.260 OA
HETATM   13  C11 UNK     1      22.267 -10.341  35.930  1.00  0.00     0.090 A 
HETATM   14  C9  UNK     1      23.084  -9.458  36.637  1.00  0.00     0.009 A 
HETATM   15  C16 UNK     1      20.911 -10.092  35.713  1.00  0.00     0.041 A 
HETATM   16  C14 UNK     1      22.497  -8.288  37.137  1.00  0.00     0.051 A 
HETATM   17  C17 UNK     1      21.139  -8.024  36.929  1.00  0.00     0.069 A 
HETATM   18  C20 UNK     1      20.347  -8.925  36.218  1.00  0.00     0.039 A 
BRANCH  17  19
HETATM   19  O2  UNK     1      20.587  -6.881  37.423  1.00  0.00    -0.356 OA
HETATM   20  C22 UNK     1      21.484  -5.837  37.798  1.00  0.00     0.210 C 
ENDBRANCH  17  19
ENDBRANCH   7   8
ENDBRANCH   1   7
BRANCH   2  21
HETATM   21  C6  UNK     1      31.007  -9.438  38.021  1.00  0.00     0.314 C 
BRANCH  21  22
HETATM   22  C8  UNK     1      31.961  -8.335  37.647  1.00  0.00     0.009 A 
HETATM   23  C12 UNK     1      32.816  -8.488  36.556  1.00  0.00     0.124 A 
HETATM   24  F1  UNK     1      32.799  -9.616  35.833  1.00  0.00    -0.205 F 
HETATM   25  C18 UNK     1      33.699  -7.464  36.212  1.00  0.00     0.043 A 
HETATM   26  C21 UNK     1      33.726  -6.287  36.960  1.00  0.00     0.003 A 
HETATM   27  C19 UNK     1      32.870  -6.133  38.051  1.00  0.00     0.001 A 
HETATM   28  C13 UNK     1      31.988  -7.158  38.395  1.00  0.00     0.012 A 
ENDBRANCH  21  22
ENDBRANCH   2  21
TORSDOF 5
ENDMDL
MODEL 8
REMARK VINA RESULT:      -8.3     15.977     18.126
REMARK  5 active torsions:
REMARK  status: ('A' for Active; 'I' for Inactive)
REMARK    1  A    between atoms: C17_23  and  O2_3 
REMARK    2  A    between atoms: C5_11  and  N1_5 
REMARK    3  A    between atoms: C6_12  and  N2_6 
REMARK    4  A    between atoms: C5_11  and  C7_13 
REMARK    5  A    between atoms: C6_12  and  C8_14 
ROOT
HETATM    1  N1  UNK     1      29.334  -7.023  34.790  1.00  0.00     0.096 N 
HETATM    2  N2  UNK     1      28.720  -7.183  31.969  1.00  0.00     0.096 N 
HETATM    3  C1  UNK     1      29.912  -8.074  33.942  1.00  0.00     0.303 C 
HETATM    4  C2  UNK     1      28.026  -6.608  34.270  1.00  0.00     0.303 C 
HETATM    5  C3  UNK     1      30.029  -7.601  32.489  1.00  0.00     0.303 C 
HETATM    6  C4  UNK     1      28.143  -6.134  32.817  1.00  0.00     0.303 C 
ENDROOT
BRANCH   1   7
HETATM    7  C5  UNK     1      29.222  -7.475  36.174  1.00  0.00     0.312 C 
BRANCH   7   8
HETATM    8  C7  UNK     1      29.767  -6.479  37.138  1.00  0.00    -0.011 A 
HETATM    9  C10 UNK     1      28.952  -5.712  37.877  1.00  0.00     0.092 A 
HETATM   10  C15 UNK     1      29.444  -4.716  38.842  1.00  0.00     0.288 A 
HETATM   11  O1  UNK     1      30.819  -4.592  38.965  1.00  0.00    -0.275 OA
HETATM   12  O3  UNK     1      28.669  -4.032  39.501  1.00  0.00    -0.260 OA
HETATM   13  C11 UNK     1      31.701  -5.384  38.201  1.00  0.00     0.090 A 
HETATM   14  C9  UNK     1      31.220  -6.326  37.290  1.00  0.00     0.009 A 
HETATM   15  C16 UNK     1      33.066  -5.174  38.407  1.00  0.00     0.041 A 
HETATM   16  C14 UNK     1      32.162  -7.072  36.570  1.00  0.00     0.051 A 
HETATM   17  C17 UNK     1      33.533  -6.873  36.764  1.00  0.00     0.069 A 
HETATM   18  C20 UNK     1      33.985  -5.926  37.682  1.00  0.00     0.039 A 
BRANCH  17  19
HETATM   19  O2  UNK     1      34.432  -7.609  36.054  1.00  0.00    -0.356 OA
HETATM   20  C22 UNK     1      35.455  -6.894  35.363  1.00  0.00     0.210 C 
ENDBRANCH  17  19
ENDBRANCH   7   8
ENDBRANCH   1   7
BRANCH   2  21
HETATM   21  C6  UNK     1      28.834  -6.729  30.584  1.00  0.00     0.314 C 
BRANCH  21  22
HETATM   22  C8  UNK     1      29.171  -7.860  29.648  1.00  0.00     0.009 A 
HETATM   23  C12 UNK     1      28.259  -8.896  29.445  1.00  0.00     0.124 A 
HETATM   24  F1  UNK     1      27.078  -8.896  30.079  1.00  0.00    -0.205 F 
HETATM   25  C18 UNK     1      28.574  -9.942  28.577  1.00  0.00     0.043 A 
HETATM   26  C21 UNK     1      29.802  -9.952  27.914  1.00  0.00     0.003 A 
HETATM   27  C19 UNK     1      30.713  -8.916  28.118  1.00  0.00     0.001 A 
HETATM   28  C13 UNK     1      30.398  -7.871  28.986  1.00  0.00     0.012 A 
ENDBRANCH  21  22
ENDBRANCH   2  21
TORSDOF 5
ENDMDL
MODEL 9
REMARK VINA RESULT:      -8.2     16.742     17.776
REMARK  5 active torsions:
REMARK  status: ('A' for Active; 'I' for Inactive)
REMARK    1  A    between atoms: C17_23  and  O2_3 
REMARK    2  A    between atoms: C5_11  and  N1_5 
REMARK    3  A    between atoms: C6_12  and  N2_6 
REMARK    4  A    between atoms: C5_11  and  C7_13 
REMARK    5  A    between atoms: C6_12  and  C8_14 
ROOT
HETATM    1  N1  UNK     1      30.248  -7.971  35.119  1.00  0.00     0.096 N 
HETATM    2  N2  UNK     1      29.696  -7.976  32.281  1.00  0.00     0.096 N 
HETATM    3  C1  UNK     1      31.278  -8.346  34.143  1.00  0.00     0.303 C 
HETATM    4  C2  UNK     1      28.912  -8.293  34.603  1.00  0.00     0.303 C 
HETATM    5  C3  UNK     1      31.033  -7.656  32.797  1.00  0.00     0.303 C 
HETATM    6  C4  UNK     1      28.666  -7.601  33.258  1.00  0.00     0.303 C 
ENDROOT
BRANCH   1   7
HETATM    7  C5  UNK     1      30.483  -8.631  36.401  1.00  0.00     0.312 C 
BRANCH   7   8
HETATM    8  C7  UNK     1      29.686  -8.022  37.502  1.00  0.00    -0.011 A 
HETATM    9  C10 UNK     1      28.822  -8.754  38.219  1.00  0.00     0.092 A 
HETATM   10  C15 UNK     1      28.014  -8.197  39.317  1.00  0.00     0.288 A 
HETATM   11  O1  UNK     1      28.182  -6.848  39.592  1.00  0.00    -0.275 OA
HETATM   12  O3  UNK     1      27.233  -8.897  39.950  1.00  0.00    -0.260 OA
HETATM   13  C11 UNK     1      29.083  -6.053  38.855  1.00  0.00     0.090 A 
HETATM   14  C9  UNK     1      29.843  -6.595  37.817  1.00  0.00     0.009 A 
HETATM   15  C16 UNK     1      29.169  -4.708  39.219  1.00  0.00     0.041 A 
HETATM   16  C14 UNK     1      30.715  -5.737  37.134  1.00  0.00     0.051 A 
HETATM   17  C17 UNK     1      30.813  -4.387  37.487  1.00  0.00     0.069 A 
HETATM   18  C20 UNK     1      30.042  -3.873  38.528  1.00  0.00     0.039 A 
BRANCH  17  19
HETATM   19  O2  UNK     1      31.667  -3.570  36.810  1.00  0.00    -0.356 OA
HETATM   20  C22 UNK     1      32.492  -4.175  35.815  1.00  0.00     0.210 C 
ENDBRANCH  17  19
ENDBRANCH   7   8
ENDBRANCH   1   7
BRANCH   2  21
HETATM   21  C6  UNK     1      29.462  -7.314  31.000  1.00  0.00     0.314 C 
BRANCH  21  22
HETATM   22  C8  UNK     1      29.281  -8.305  29.880  1.00  0.00     0.009 A 
HETATM   23  C12 UNK     1      28.043  -8.914  29.678  1.00  0.00     0.124 A 
HETATM   24  F1  UNK     1      27.005  -8.626  30.476  1.00  0.00    -0.205 F 
HETATM   25  C18 UNK     1      27.879  -9.832  28.640  1.00  0.00     0.043 A 
HETATM   26  C21 UNK     1      28.953 -10.140  27.806  1.00  0.00     0.003 A 
HETATM   27  C19 UNK     1      30.191  -9.530  28.008  1.00  0.00     0.001 A 
HETATM   28  C13 UNK     1      30.355  -8.613  29.046  1.00  0.00     0.012 A 
ENDBRANCH  21  22
ENDBRANCH   2  21
TORSDOF 5
ENDMDL
MODEL 10
REMARK VINA RESULT:      -8.2      8.327     11.025
REMARK  5 active torsions:
REMARK  status: ('A' for Active; 'I' for Inactive)
REMARK    1  A    between atoms: C17_23  and  O2_3 
REMARK    2  A    between atoms: C5_11  and  N1_5 
REMARK    3  A    between atoms: C6_12  and  N2_6 
REMARK    4  A    between atoms: C5_11  and  C7_13 
REMARK    5  A    between atoms: C6_12  and  C8_14 
ROOT
HETATM    1  N1  UNK     1      20.277  -3.521  36.544  1.00  0.00     0.096 N 
HETATM    2  N2  UNK     1      20.330  -6.330  37.230  1.00  0.00     0.096 N 
HETATM    3  C1  UNK     1      19.937  -4.553  35.557  1.00  0.00     0.303 C 
HETATM    4  C2  UNK     1      21.232  -4.048  37.527  1.00  0.00     0.303 C 
HETATM    5  C3  UNK     1      19.376  -5.803  36.245  1.00  0.00     0.303 C 
HETATM    6  C4  UNK     1      20.671  -5.297  38.216  1.00  0.00     0.303 C 
ENDROOT
BRANCH   1   7
HETATM    7  C5  UNK     1      20.812  -2.331  35.888  1.00  0.00     0.312 C 
BRANCH   7   8
HETATM    8  C7  UNK     1      19.934  -1.855  34.783  1.00  0.00    -0.011 A 
HETATM    9  C10 UNK     1      20.209  -2.149  33.504  1.00  0.00     0.092 A 
HETATM   10  C15 UNK     1      19.371  -1.703  32.379  1.00  0.00     0.288 A 
HETATM   11  O1  UNK     1      18.254  -0.945  32.696  1.00  0.00    -0.275 OA
HETATM   12  O3  UNK     1      19.654  -1.990  31.221  1.00  0.00    -0.260 OA
HETATM   13  C11 UNK     1      17.940  -0.619  34.031  1.00  0.00     0.090 A 
HETATM   14  C9  UNK     1      18.744  -1.050  35.088  1.00  0.00     0.009 A 
HETATM   15  C16 UNK     1      16.792   0.150  34.233  1.00  0.00     0.041 A 
HETATM   16  C14 UNK     1      18.363  -0.684  36.385  1.00  0.00     0.051 A 
HETATM   17  C17 UNK     1      17.215   0.086  36.604  1.00  0.00     0.069 A 
HETATM   18  C20 UNK     1      16.430   0.502  35.529  1.00  0.00     0.039 A 
BRANCH  17  19
HETATM   19  O2  UNK     1      16.862   0.431  37.873  1.00  0.00    -0.356 OA
HETATM   20  C22 UNK     1      17.676   1.399  38.533  1.00  0.00     0.210 C 
ENDBRANCH  17  19
ENDBRANCH   7   8
ENDBRANCH   1   7
BRANCH   2  21
HETATM   21  C6  UNK     1      19.793  -7.519  37.888  1.00  0.00     0.314 C 
BRANCH  21  22
HETATM   22  C8  UNK     1      20.469  -8.778  37.411  1.00  0.00     0.009 A 
HETATM   23  C12 UNK     1      19.893 -10.021  37.667  1.00  0.00     0.124 A 
HETATM   24  F1  UNK     1      18.737 -10.110  38.339  1.00  0.00    -0.205 F 
HETATM   25  C18 UNK     1      20.522 -11.185  37.223  1.00  0.00     0.043 A 
HETATM   26  C21 UNK     1      21.726 -11.104  36.524  1.00  0.00     0.003 A 
HETATM   27  C19 UNK     1      22.302  -9.860  36.268  1.00  0.00     0.001 A 
HETATM   28  C13 UNK     1      21.673  -8.697  36.712  1.00  0.00     0.012 A 
ENDBRANCH  21  22
ENDBRANCH   2  21
TORSDOF 5
ENDMDL
