MODEL 1
REMARK VINA RESULT:      -9.7      0.000      0.000
REMARK  3 active torsions:
REMARK  status: ('A' for Active; 'I' for Inactive)
REMARK    1  A    between atoms: C5_11  and  N1_5 
REMARK       I    between atoms: C6_12  and  N1_5 
REMARK       I    between atoms: C17_23  and  N2_6 
REMARK    2  A    between atoms: C7_13  and  N2_6 
REMARK    3  A    between atoms: C2_8  and  C6_12 
ROOT
HETATM    1  O2  UNK     1      17.614   3.371  32.847  1.00  0.00    -0.267 OA
HETATM    2  N1  UNK     1      19.137   4.747  31.683  1.00  0.00    -0.323 N 
HETATM    3  C6  UNK     1      18.438   3.581  31.958  1.00  0.00     0.262 C 
HETATM    4  H2  UNK     1      19.773   4.764  30.889  1.00  0.00     0.169 HD
ENDROOT
BRANCH   2   5
HETATM    5  C5  UNK     1      19.040   5.952  32.385  1.00  0.00     0.037 A 
HETATM    6  C12 UNK     1      20.184   6.529  32.934  1.00  0.00     0.029 A 
HETATM    7  C15 UNK     1      20.087   7.731  33.635  1.00  0.00     0.004 A 
HETATM    8  C13 UNK     1      18.848   8.353  33.787  1.00  0.00     0.029 A 
HETATM    9  C7  UNK     1      17.705   7.774  33.237  1.00  0.00     0.036 A 
HETATM   10  C8  UNK     1      17.802   6.571  32.535  1.00  0.00     0.059 A 
BRANCH   9  11
HETATM   11  N2  UNK     1      16.466   8.396  33.389  1.00  0.00    -0.327 N 
HETATM   12  C17 UNK     1      15.574   8.803  32.388  1.00  0.00     0.218 C 
HETATM   13  O4  UNK     1      15.712   8.686  31.173  1.00  0.00    -0.274 OA
HETATM   14  C18 UNK     1      14.337   9.440  32.966  1.00  0.00     0.117 C 
HETATM   15  H11 UNK     1      16.183   8.572  34.351  1.00  0.00     0.169 HD
ENDBRANCH   9  11
ENDBRANCH   2   5
BRANCH   3  16
HETATM   16  C2  UNK     1      18.781   2.503  31.021  1.00  0.00     0.108 A 
HETATM   17  C10 UNK     1      18.685   2.677  29.555  1.00  0.00     0.304 A 
HETATM   18  O1  UNK     1      19.038   1.582  28.770  1.00  0.00    -0.274 OA
HETATM   19  O3  UNK     1      18.313   3.730  29.050  1.00  0.00    -0.259 OA
HETATM   20  C3  UNK     1      19.467   0.368  29.341  1.00  0.00     0.089 A 
HETATM   21  C1  UNK     1      19.551   0.226  30.722  1.00  0.00    -0.001 A 
HETATM   22  C11 UNK     1      19.801  -0.672  28.475  1.00  0.00     0.038 A 
HETATM   23  C4  UNK     1      19.188   1.352  31.569  1.00  0.00     0.037 A 
HETATM   24  C9  UNK     1      19.980  -0.995  31.250  1.00  0.00     0.014 A 
HETATM   25  C14 UNK     1      20.318  -2.047  30.393  1.00  0.00     0.001 A 
HETATM   26  C16 UNK     1      20.228  -1.885  29.009  1.00  0.00     0.003 A 
ENDBRANCH   3  16
TORSDOF 3
ENDMDL
MODEL 2
REMARK VINA RESULT:      -9.6      2.238      8.507
REMARK  3 active torsions:
REMARK  status: ('A' for Active; 'I' for Inactive)
REMARK    1  A    between atoms: C5_11  and  N1_5 
REMARK       I    between atoms: C6_12  and  N1_5 
REMARK       I    between atoms: C17_23  and  N2_6 
REMARK    2  A    between atoms: C7_13  and  N2_6 
REMARK    3  A    between atoms: C2_8  and  C6_12 
ROOT
HETATM    1  O2  UNK     1      19.985   5.480  30.064  1.00  0.00    -0.267 OA
HETATM    2  N1  UNK     1      18.385   4.128  31.150  1.00  0.00    -0.323 N 
HETATM    3  C6  UNK     1      19.088   5.294  30.885  1.00  0.00     0.262 C 
HETATM    4  H2  UNK     1      17.650   4.145  31.853  1.00  0.00     0.169 HD
ENDROOT
BRANCH   2   5
HETATM    5  C5  UNK     1      18.564   2.895  30.516  1.00  0.00     0.037 A 
HETATM    6  C12 UNK     1      18.132   2.721  29.202  1.00  0.00     0.029 A 
HETATM    7  C15 UNK     1      18.310   1.491  28.570  1.00  0.00     0.004 A 
HETATM    8  C13 UNK     1      18.920   0.437  29.251  1.00  0.00     0.029 A 
HETATM    9  C7  UNK     1      19.351   0.613  30.565  1.00  0.00     0.036 A 
HETATM   10  C8  UNK     1      19.173   1.844  31.198  1.00  0.00     0.059 A 
BRANCH   9  11
HETATM   11  N2  UNK     1      19.960  -0.440  31.246  1.00  0.00    -0.327 N 
HETATM   12  C17 UNK     1      19.390  -1.305  32.191  1.00  0.00     0.218 C 
HETATM   13  O4  UNK     1      18.233  -1.302  32.601  1.00  0.00    -0.274 OA
HETATM   14  C18 UNK     1      20.387  -2.316  32.696  1.00  0.00     0.117 C 
HETATM   15  H11 UNK     1      20.942  -0.593  31.023  1.00  0.00     0.169 HD
ENDBRANCH   9  11
ENDBRANCH   2   5
BRANCH   3  16
HETATM   16  C2  UNK     1      18.645   6.406  31.736  1.00  0.00     0.108 A 
HETATM   17  C10 UNK     1      19.500   6.962  32.808  1.00  0.00     0.304 A 
HETATM   18  O1  UNK     1      18.970   8.016  33.548  1.00  0.00    -0.274 OA
HETATM   19  O3  UNK     1      20.621   6.522  33.038  1.00  0.00    -0.259 OA
HETATM   20  C3  UNK     1      17.684   8.530  33.292  1.00  0.00     0.089 A 
HETATM   21  C1  UNK     1      16.896   7.992  32.279  1.00  0.00    -0.001 A 
HETATM   22  C11 UNK     1      17.239   9.586  34.084  1.00  0.00     0.038 A 
HETATM   23  C4  UNK     1      17.422   6.890  31.488  1.00  0.00     0.037 A 
HETATM   24  C9  UNK     1      15.625   8.529  32.055  1.00  0.00     0.014 A 
HETATM   25  C14 UNK     1      15.166   9.588  32.842  1.00  0.00     0.001 A 
HETATM   26  C16 UNK     1      15.971  10.115  33.855  1.00  0.00     0.003 A 
ENDBRANCH   3  16
TORSDOF 3
ENDMDL
MODEL 3
REMARK VINA RESULT:      -9.5      1.274      2.020
REMARK  3 active torsions:
REMARK  status: ('A' for Active; 'I' for Inactive)
REMARK    1  A    between atoms: C5_11  and  N1_5 
REMARK       I    between atoms: C6_12  and  N1_5 
REMARK       I    between atoms: C17_23  and  N2_6 
REMARK    2  A    between atoms: C7_13  and  N2_6 
REMARK    3  A    between atoms: C2_8  and  C6_12 
ROOT
HETATM    1  O2  UNK     1      17.225   4.283  31.343  1.00  0.00    -0.267 OA
HETATM    2  N1  UNK     1      18.889   4.526  32.998  1.00  0.00    -0.323 N 
HETATM    3  C6  UNK     1      18.131   3.849  32.053  1.00  0.00     0.262 C 
HETATM    4  H2  UNK     1      19.623   4.024  33.491  1.00  0.00     0.169 HD
ENDROOT
BRANCH   2   5
HETATM    5  C5  UNK     1      18.768   5.876  33.339  1.00  0.00     0.037 A 
HETATM    6  C12 UNK     1      19.904   6.611  33.673  1.00  0.00     0.029 A 
HETATM    7  C15 UNK     1      19.784   7.958  34.014  1.00  0.00     0.004 A 
HETATM    8  C13 UNK     1      18.530   8.568  34.020  1.00  0.00     0.029 A 
HETATM    9  C7  UNK     1      17.394   7.830  33.685  1.00  0.00     0.036 A 
HETATM   10  C8  UNK     1      17.515   6.483  33.344  1.00  0.00     0.059 A 
BRANCH   9  11
HETATM   11  N2  UNK     1      16.140   8.440  33.691  1.00  0.00    -0.327 N 
HETATM   12  C17 UNK     1      15.388   8.883  32.595  1.00  0.00     0.218 C 
HETATM   13  O4  UNK     1      15.691   8.817  31.407  1.00  0.00    -0.274 OA
HETATM   14  C18 UNK     1      14.077   9.490  33.024  1.00  0.00     0.117 C 
HETATM   15  H11 UNK     1      15.726   8.575  34.612  1.00  0.00     0.169 HD
ENDBRANCH   9  11
ENDBRANCH   2   5
BRANCH   3  16
HETATM   16  C2  UNK     1      18.521   2.438  31.947  1.00  0.00     0.108 A 
HETATM   17  C10 UNK     1      18.367   1.494  33.076  1.00  0.00     0.304 A 
HETATM   18  O1  UNK     1      18.772   0.180  32.853  1.00  0.00    -0.274 OA
HETATM   19  O3  UNK     1      17.905   1.845  34.156  1.00  0.00    -0.259 OA
HETATM   20  C3  UNK     1      19.303  -0.233  31.615  1.00  0.00     0.089 A 
HETATM   21  C1  UNK     1      19.439   0.671  30.567  1.00  0.00    -0.001 A 
HETATM   22  C11 UNK     1      19.680  -1.568  31.486  1.00  0.00     0.038 A 
HETATM   23  C4  UNK     1      19.024   2.051  30.769  1.00  0.00     0.037 A 
HETATM   24  C9  UNK     1      19.970   0.223  29.354  1.00  0.00     0.014 A 
HETATM   25  C14 UNK     1      20.353  -1.114  29.211  1.00  0.00     0.001 A 
HETATM   26  C16 UNK     1      20.209  -2.006  30.274  1.00  0.00     0.003 A 
ENDBRANCH   3  16
TORSDOF 3
ENDMDL
MODEL 4
REMARK VINA RESULT:      -9.5      8.886     12.994
REMARK  3 active torsions:
REMARK  status: ('A' for Active; 'I' for Inactive)
REMARK    1  A    between atoms: C5_11  and  N1_5 
REMARK       I    between atoms: C6_12  and  N1_5 
REMARK       I    between atoms: C17_23  and  N2_6 
REMARK    2  A    between atoms: C7_13  and  N2_6 
REMARK    3  A    between atoms: C2_8  and  C6_12 
ROOT
HETATM    1  O2  UNK     1      20.111  -5.239  35.525  1.00  0.00    -0.267 OA
HETATM    2  N1  UNK     1      20.308  -4.633  37.797  1.00  0.00    -0.323 N 
HETATM    3  C6  UNK     1      20.053  -4.429  36.449  1.00  0.00     0.262 C 
HETATM    4  H2  UNK     1      20.193  -3.856  38.443  1.00  0.00     0.169 HD
ENDROOT
BRANCH   2   5
HETATM    5  C5  UNK     1      20.692  -5.840  38.390  1.00  0.00     0.037 A 
HETATM    6  C12 UNK     1      19.720  -6.741  38.822  1.00  0.00     0.029 A 
HETATM    7  C15 UNK     1      20.104  -7.944  39.413  1.00  0.00     0.004 A 
HETATM    8  C13 UNK     1      21.456  -8.245  39.573  1.00  0.00     0.029 A 
HETATM    9  C7  UNK     1      22.427  -7.341  39.140  1.00  0.00     0.036 A 
HETATM   10  C8  UNK     1      22.044  -6.138  38.547  1.00  0.00     0.059 A 
BRANCH   9  11
HETATM   11  N2  UNK     1      23.780  -7.642  39.299  1.00  0.00    -0.327 N 
HETATM   12  C17 UNK     1      24.643  -8.256  38.383  1.00  0.00     0.218 C 
HETATM   13  O4  UNK     1      24.373  -8.649  37.251  1.00  0.00    -0.274 OA
HETATM   14  C18 UNK     1      26.037  -8.403  38.939  1.00  0.00     0.117 C 
HETATM   15  H11 UNK     1      24.181  -7.378  40.197  1.00  0.00     0.169 HD
ENDBRANCH   9  11
ENDBRANCH   2   5
BRANCH   3  16
HETATM   16  C2  UNK     1      19.672  -3.038  36.168  1.00  0.00     0.108 A 
HETATM   17  C10 UNK     1      20.068  -2.353  34.918  1.00  0.00     0.304 A 
HETATM   18  O1  UNK     1      19.645  -1.035  34.767  1.00  0.00    -0.274 OA
HETATM   19  O3  UNK     1      20.734  -2.913  34.054  1.00  0.00    -0.259 OA
HETATM   20  C3  UNK     1      18.879  -0.382  35.752  1.00  0.00     0.089 A 
HETATM   21  C1  UNK     1      18.518  -1.046  36.921  1.00  0.00    -0.001 A 
HETATM   22  C11 UNK     1      18.503   0.937  35.512  1.00  0.00     0.038 A 
HETATM   23  C4  UNK     1      18.944  -2.424  37.109  1.00  0.00     0.037 A 
HETATM   24  C9  UNK     1      17.758  -0.364  37.876  1.00  0.00     0.014 A 
HETATM   25  C14 UNK     1      17.373   0.959  37.647  1.00  0.00     0.001 A 
HETATM   26  C16 UNK     1      17.745   1.608  36.468  1.00  0.00     0.003 A 
ENDBRANCH   3  16
TORSDOF 3
ENDMDL
MODEL 5
REMARK VINA RESULT:      -9.4      2.219      8.328
REMARK  3 active torsions:
REMARK  status: ('A' for Active; 'I' for Inactive)
REMARK    1  A    between atoms: C5_11  and  N1_5 
REMARK       I    between atoms: C6_12  and  N1_5 
REMARK       I    between atoms: C17_23  and  N2_6 
REMARK    2  A    between atoms: C7_13  and  N2_6 
REMARK    3  A    between atoms: C2_8  and  C6_12 
ROOT
HETATM    1  O2  UNK     1      17.888   3.545  33.303  1.00  0.00    -0.267 OA
HETATM    2  N1  UNK     1      18.425   4.173  31.094  1.00  0.00    -0.323 N 
HETATM    3  C6  UNK     1      18.103   4.380  32.427  1.00  0.00     0.262 C 
HETATM    4  H2  UNK     1      18.595   4.979  30.497  1.00  0.00     0.169 HD
ENDROOT
BRANCH   2   5
HETATM    5  C5  UNK     1      18.573   2.933  30.464  1.00  0.00     0.037 A 
HETATM    6  C12 UNK     1      18.081   2.747  29.173  1.00  0.00     0.029 A 
HETATM    7  C15 UNK     1      18.228   1.511  28.545  1.00  0.00     0.004 A 
HETATM    8  C13 UNK     1      18.866   0.463  29.208  1.00  0.00     0.029 A 
HETATM    9  C7  UNK     1      19.357   0.650  30.500  1.00  0.00     0.036 A 
HETATM   10  C8  UNK     1      19.211   1.888  31.128  1.00  0.00     0.059 A 
BRANCH   9  11
HETATM   11  N2  UNK     1      19.995  -0.398  31.163  1.00  0.00    -0.327 N 
HETATM   12  C17 UNK     1      19.447  -1.299  32.085  1.00  0.00     0.218 C 
HETATM   13  O4  UNK     1      18.287  -1.342  32.487  1.00  0.00    -0.274 OA
HETATM   14  C18 UNK     1      20.471  -2.290  32.576  1.00  0.00     0.117 C 
HETATM   15  H11 UNK     1      20.983  -0.514  30.944  1.00  0.00     0.169 HD
ENDBRANCH   9  11
ENDBRANCH   2   5
BRANCH   3  16
HETATM   16  C2  UNK     1      18.028   5.809  32.756  1.00  0.00     0.108 A 
HETATM   17  C10 UNK     1      16.796   6.600  32.542  1.00  0.00     0.304 A 
HETATM   18  O1  UNK     1      16.848   7.947  32.893  1.00  0.00    -0.274 OA
HETATM   19  O3  UNK     1      15.777   6.100  32.079  1.00  0.00    -0.259 OA
HETATM   20  C3  UNK     1      18.013   8.531  33.427  1.00  0.00     0.089 A 
HETATM   21  C1  UNK     1      19.161   7.768  33.620  1.00  0.00    -0.001 A 
HETATM   22  C11 UNK     1      17.970   9.885  33.749  1.00  0.00     0.038 A 
HETATM   23  C4  UNK     1      19.139   6.358  33.263  1.00  0.00     0.037 A 
HETATM   24  C9  UNK     1      20.298   8.384  34.152  1.00  0.00     0.014 A 
HETATM   25  C14 UNK     1      20.268   9.742  34.479  1.00  0.00     0.001 A 
HETATM   26  C16 UNK     1      19.107  10.491  34.278  1.00  0.00     0.003 A 
ENDBRANCH   3  16
TORSDOF 3
ENDMDL
MODEL 6
REMARK VINA RESULT:      -9.3      6.733      9.448
REMARK  3 active torsions:
REMARK  status: ('A' for Active; 'I' for Inactive)
REMARK    1  A    between atoms: C5_11  and  N1_5 
REMARK       I    between atoms: C6_12  and  N1_5 
REMARK       I    between atoms: C17_23  and  N2_6 
REMARK    2  A    between atoms: C7_13  and  N2_6 
REMARK    3  A    between atoms: C2_8  and  C6_12 
ROOT
HETATM    1  O2  UNK     1      20.587  -3.450  34.216  1.00  0.00    -0.267 OA
HETATM    2  N1  UNK     1      19.027  -2.358  35.610  1.00  0.00    -0.323 N 
HETATM    3  C6  UNK     1      19.880  -3.381  35.220  1.00  0.00     0.262 C 
HETATM    4  H2  UNK     1      18.523  -2.446  36.489  1.00  0.00     0.169 HD
ENDROOT
BRANCH   2   5
HETATM    5  C5  UNK     1      18.798  -1.166  34.916  1.00  0.00     0.037 A 
HETATM    6  C12 UNK     1      18.457  -0.011  35.617  1.00  0.00     0.029 A 
HETATM    7  C15 UNK     1      18.227   1.178  34.926  1.00  0.00     0.004 A 
HETATM    8  C13 UNK     1      18.339   1.210  33.536  1.00  0.00     0.029 A 
HETATM    9  C7  UNK     1      18.681   0.053  32.836  1.00  0.00     0.036 A 
HETATM   10  C8  UNK     1      18.911  -1.137  33.528  1.00  0.00     0.059 A 
BRANCH   9  11
HETATM   11  N2  UNK     1      18.792   0.085  31.447  1.00  0.00    -0.327 N 
HETATM   12  C17 UNK     1      19.958   0.037  30.671  1.00  0.00     0.218 C 
HETATM   13  O4  UNK     1      21.117  -0.047  31.070  1.00  0.00    -0.274 OA
HETATM   14  C18 UNK     1      19.652   0.096  29.196  1.00  0.00     0.117 C 
HETATM   15  H11 UNK     1      17.911   0.152  30.941  1.00  0.00     0.169 HD
ENDBRANCH   9  11
ENDBRANCH   2   5
BRANCH   3  16
HETATM   16  C2  UNK     1      19.881  -4.490  36.183  1.00  0.00     0.108 A 
HETATM   17  C10 UNK     1      20.320  -4.312  37.585  1.00  0.00     0.304 A 
HETATM   18  O1  UNK     1      20.276  -5.438  38.402  1.00  0.00    -0.274 OA
HETATM   19  O3  UNK     1      20.705  -3.228  38.010  1.00  0.00    -0.259 OA
HETATM   20  C3  UNK     1      19.835  -6.686  37.923  1.00  0.00     0.089 A 
HETATM   21  C1  UNK     1      19.426  -6.832  36.601  1.00  0.00    -0.001 A 
HETATM   22  C11 UNK     1      19.824  -7.756  38.815  1.00  0.00     0.038 A 
HETATM   23  C4  UNK     1      19.461  -5.674  35.721  1.00  0.00     0.037 A 
HETATM   24  C9  UNK     1      18.996  -8.088  36.163  1.00  0.00     0.014 A 
HETATM   25  C14 UNK     1      18.980  -9.169  37.047  1.00  0.00     0.001 A 
HETATM   26  C16 UNK     1      19.394  -9.003  38.371  1.00  0.00     0.003 A 
ENDBRANCH   3  16
TORSDOF 3
ENDMDL
MODEL 7
REMARK VINA RESULT:      -9.2      8.011     10.105
REMARK  3 active torsions:
REMARK  status: ('A' for Active; 'I' for Inactive)
REMARK    1  A    between atoms: C5_11  and  N1_5 
REMARK       I    between atoms: C6_12  and  N1_5 
REMARK       I    between atoms: C17_23  and  N2_6 
REMARK    2  A    between atoms: C7_13  and  N2_6 
REMARK    3  A    between atoms: C2_8  and  C6_12 
ROOT
HETATM    1  O2  UNK     1      21.245  -3.721  37.289  1.00  0.00    -0.267 OA
HETATM    2  N1  UNK     1      18.942  -3.651  36.784  1.00  0.00    -0.323 N 
HETATM    3  C6  UNK     1      20.169  -4.253  37.025  1.00  0.00     0.262 C 
HETATM    4  H2  UNK     1      18.133  -4.240  36.598  1.00  0.00     0.169 HD
ENDROOT
BRANCH   2   5
HETATM    5  C5  UNK     1      18.681  -2.278  36.795  1.00  0.00     0.037 A 
HETATM    6  C12 UNK     1      18.194  -1.674  37.953  1.00  0.00     0.029 A 
HETATM    7  C15 UNK     1      17.933  -0.304  37.964  1.00  0.00     0.004 A 
HETATM    8  C13 UNK     1      18.158   0.459  36.818  1.00  0.00     0.029 A 
HETATM    9  C7  UNK     1      18.645  -0.147  35.660  1.00  0.00     0.036 A 
HETATM   10  C8  UNK     1      18.907  -1.518  35.649  1.00  0.00     0.059 A 
BRANCH   9  11
HETATM   11  N2  UNK     1      18.871   0.615  34.515  1.00  0.00    -0.327 N 
HETATM   12  C17 UNK     1      17.927   1.265  33.708  1.00  0.00     0.218 C 
HETATM   13  O4  UNK     1      16.708   1.289  33.858  1.00  0.00    -0.274 OA
HETATM   14  C18 UNK     1      18.577   1.988  32.557  1.00  0.00     0.117 C 
HETATM   15  H11 UNK     1      19.846   0.706  34.238  1.00  0.00     0.169 HD
ENDBRANCH   9  11
ENDBRANCH   2   5
BRANCH   3  16
HETATM   16  C2  UNK     1      20.088  -5.716  36.933  1.00  0.00     0.108 A 
HETATM   17  C10 UNK     1      20.125  -6.425  35.635  1.00  0.00     0.304 A 
HETATM   18  O1  UNK     1      20.041  -7.814  35.677  1.00  0.00    -0.274 OA
HETATM   19  O3  UNK     1      20.225  -5.823  34.571  1.00  0.00    -0.259 OA
HETATM   20  C3  UNK     1      19.927  -8.514  36.894  1.00  0.00     0.089 A 
HETATM   21  C1  UNK     1      19.895  -7.829  38.104  1.00  0.00    -0.001 A 
HETATM   22  C11 UNK     1      19.850  -9.904  36.836  1.00  0.00     0.038 A 
HETATM   23  C4  UNK     1      19.980  -6.376  38.093  1.00  0.00     0.037 A 
HETATM   24  C9  UNK     1      19.780  -8.559  39.290  1.00  0.00     0.014 A 
HETATM   25  C14 UNK     1      19.702  -9.953  39.247  1.00  0.00     0.001 A 
HETATM   26  C16 UNK     1      19.737 -10.624  38.023  1.00  0.00     0.003 A 
ENDBRANCH   3  16
TORSDOF 3
ENDMDL
MODEL 8
REMARK VINA RESULT:      -9.1      4.782      8.511
REMARK  3 active torsions:
REMARK  status: ('A' for Active; 'I' for Inactive)
REMARK    1  A    between atoms: C5_11  and  N1_5 
REMARK       I    between atoms: C6_12  and  N1_5 
REMARK       I    between atoms: C17_23  and  N2_6 
REMARK    2  A    between atoms: C7_13  and  N2_6 
REMARK    3  A    between atoms: C2_8  and  C6_12 
ROOT
HETATM    1  O2  UNK     1      16.392   1.031  34.082  1.00  0.00    -0.267 OA
HETATM    2  N1  UNK     1      18.648   0.740  34.707  1.00  0.00    -0.323 N 
HETATM    3  C6  UNK     1      17.597   1.241  33.953  1.00  0.00     0.262 C 
HETATM    4  H2  UNK     1      19.596   1.031  34.483  1.00  0.00     0.169 HD
ENDROOT
BRANCH   2   5
HETATM    5  C5  UNK     1      18.540  -0.129  35.797  1.00  0.00     0.037 A 
HETATM    6  C12 UNK     1      18.212   0.372  37.055  1.00  0.00     0.029 A 
HETATM    7  C15 UNK     1      18.105  -0.495  38.142  1.00  0.00     0.004 A 
HETATM    8  C13 UNK     1      18.327  -1.861  37.969  1.00  0.00     0.029 A 
HETATM    9  C7  UNK     1      18.655  -2.361  36.710  1.00  0.00     0.036 A 
HETATM   10  C8  UNK     1      18.762  -1.493  35.622  1.00  0.00     0.059 A 
BRANCH   9  11
HETATM   11  N2  UNK     1      18.877  -3.727  36.537  1.00  0.00    -0.327 N 
HETATM   12  C17 UNK     1      20.082  -4.430  36.660  1.00  0.00     0.218 C 
HETATM   13  O4  UNK     1      21.185  -3.975  36.948  1.00  0.00    -0.274 OA
HETATM   14  C18 UNK     1      19.901  -5.903  36.392  1.00  0.00     0.117 C 
HETATM   15  H11 UNK     1      18.053  -4.273  36.291  1.00  0.00     0.169 HD
ENDBRANCH   9  11
ENDBRANCH   2   5
BRANCH   3  16
HETATM   16  C2  UNK     1      18.066   2.129  32.882  1.00  0.00     0.108 A 
HETATM   17  C10 UNK     1      18.631   1.604  31.619  1.00  0.00     0.304 A 
HETATM   18  O1  UNK     1      19.041   2.545  30.678  1.00  0.00    -0.274 OA
HETATM   19  O3  UNK     1      18.734   0.401  31.406  1.00  0.00    -0.259 OA
HETATM   20  C3  UNK     1      18.925   3.929  30.912  1.00  0.00     0.089 A 
HETATM   21  C1  UNK     1      18.391   4.401  32.107  1.00  0.00    -0.001 A 
HETATM   22  C11 UNK     1      19.361   4.794  29.912  1.00  0.00     0.038 A 
HETATM   23  C4  UNK     1      17.953   3.443  33.111  1.00  0.00     0.037 A 
HETATM   24  C9  UNK     1      18.293   5.782  32.303  1.00  0.00     0.014 A 
HETATM   25  C14 UNK     1      18.727   6.661  31.307  1.00  0.00     0.001 A 
HETATM   26  C16 UNK     1      19.260   6.168  30.115  1.00  0.00     0.003 A 
ENDBRANCH   3  16
TORSDOF 3
ENDMDL
MODEL 9
REMARK VINA RESULT:      -9.1      8.846     13.229
REMARK  3 active torsions:
REMARK  status: ('A' for Active; 'I' for Inactive)
REMARK    1  A    between atoms: C5_11  and  N1_5 
REMARK       I    between atoms: C6_12  and  N1_5 
REMARK       I    between atoms: C17_23  and  N2_6 
REMARK    2  A    between atoms: C7_13  and  N2_6 
REMARK    3  A    between atoms: C2_8  and  C6_12 
ROOT
HETATM    1  O2  UNK     1      20.137  -5.401  35.220  1.00  0.00    -0.267 OA
HETATM    2  N1  UNK     1      20.118  -5.042  37.551  1.00  0.00    -0.323 N 
HETATM    3  C6  UNK     1      20.009  -4.689  36.214  1.00  0.00     0.262 C 
HETATM    4  H2  UNK     1      19.960  -4.332  38.262  1.00  0.00     0.169 HD
ENDROOT
BRANCH   2   5
HETATM    5  C5  UNK     1      20.403  -6.318  38.047  1.00  0.00     0.037 A 
HETATM    6  C12 UNK     1      19.827  -6.743  39.243  1.00  0.00     0.029 A 
HETATM    7  C15 UNK     1      20.113  -8.015  39.737  1.00  0.00     0.004 A 
HETATM    8  C13 UNK     1      20.973  -8.860  39.036  1.00  0.00     0.029 A 
HETATM    9  C7  UNK     1      21.548  -8.433  37.840  1.00  0.00     0.036 A 
HETATM   10  C8  UNK     1      21.262  -7.161  37.344  1.00  0.00     0.059 A 
BRANCH   9  11
HETATM   11  N2  UNK     1      22.408  -9.278  37.138  1.00  0.00    -0.327 N 
HETATM   12  C17 UNK     1      22.083 -10.423  36.398  1.00  0.00     0.218 C 
HETATM   13  O4  UNK     1      20.967 -10.904  36.220  1.00  0.00    -0.274 OA
HETATM   14  C18 UNK     1      23.305 -11.061  35.789  1.00  0.00     0.117 C 
HETATM   15  H11 UNK     1      23.393  -9.024  37.175  1.00  0.00     0.169 HD
ENDBRANCH   9  11
ENDBRANCH   2   5
BRANCH   3  16
HETATM   16  C2  UNK     1      19.700  -3.263  36.048  1.00  0.00     0.108 A 
HETATM   17  C10 UNK     1      20.174  -2.488  34.880  1.00  0.00     0.304 A 
HETATM   18  O1  UNK     1      19.815  -1.144  34.834  1.00  0.00    -0.274 OA
HETATM   19  O3  UNK     1      20.849  -3.000  33.993  1.00  0.00    -0.259 OA
HETATM   20  C3  UNK     1      19.040  -0.547  35.847  1.00  0.00     0.089 A 
HETATM   21  C1  UNK     1      18.604  -1.294  36.936  1.00  0.00    -0.001 A 
HETATM   22  C11 UNK     1      18.730   0.805  35.714  1.00  0.00     0.038 A 
HETATM   23  C4  UNK     1      18.962  -2.702  37.014  1.00  0.00     0.037 A 
HETATM   24  C9  UNK     1      17.837  -0.666  37.922  1.00  0.00     0.014 A 
HETATM   25  C14 UNK     1      17.519   0.689  37.801  1.00  0.00     0.001 A 
HETATM   26  C16 UNK     1      17.965   1.423  36.700  1.00  0.00     0.003 A 
ENDBRANCH   3  16
TORSDOF 3
ENDMDL
MODEL 10
REMARK VINA RESULT:      -9.1      3.246      4.155
REMARK  3 active torsions:
REMARK  status: ('A' for Active; 'I' for Inactive)
REMARK    1  A    between atoms: C5_11  and  N1_5 
REMARK       I    between atoms: C6_12  and  N1_5 
REMARK       I    between atoms: C17_23  and  N2_6 
REMARK    2  A    between atoms: C7_13  and  N2_6 
REMARK    3  A    between atoms: C2_8  and  C6_12 
ROOT
HETATM    1  O2  UNK     1      17.779   3.480  32.250  1.00  0.00    -0.267 OA
HETATM    2  N1  UNK     1      18.556   4.356  34.298  1.00  0.00    -0.323 N 
HETATM    3  C6  UNK     1      18.164   3.363  33.412  1.00  0.00     0.262 C 
HETATM    4  H2  UNK     1      18.872   4.090  35.227  1.00  0.00     0.169 HD
ENDROOT
BRANCH   2   5
HETATM    5  C5  UNK     1      18.591   5.729  34.035  1.00  0.00     0.037 A 
HETATM    6  C12 UNK     1      19.815   6.365  33.833  1.00  0.00     0.029 A 
HETATM    7  C15 UNK     1      19.850   7.735  33.571  1.00  0.00     0.004 A 
HETATM    8  C13 UNK     1      18.663   8.465  33.512  1.00  0.00     0.029 A 
HETATM    9  C7  UNK     1      17.440   7.826  33.715  1.00  0.00     0.036 A 
HETATM   10  C8  UNK     1      17.405   6.456  33.976  1.00  0.00     0.059 A 
BRANCH   9  11
HETATM   11  N2  UNK     1      16.253   8.556  33.655  1.00  0.00    -0.327 N 
HETATM   12  C17 UNK     1      15.529   8.939  32.519  1.00  0.00     0.218 C 
HETATM   13  O4  UNK     1      15.800   8.700  31.346  1.00  0.00    -0.274 OA
HETATM   14  C18 UNK     1      14.294   9.723  32.881  1.00  0.00     0.117 C 
HETATM   15  H11 UNK     1      15.874   8.843  34.556  1.00  0.00     0.169 HD
ENDBRANCH   9  11
ENDBRANCH   2   5
BRANCH   3  16
HETATM   16  C2  UNK     1      18.248   2.027  34.015  1.00  0.00     0.108 A 
HETATM   17  C10 UNK     1      18.571   0.824  33.217  1.00  0.00     0.304 A 
HETATM   18  O1  UNK     1      18.623  -0.387  33.902  1.00  0.00    -0.274 OA
HETATM   19  O3  UNK     1      18.785   0.884  32.011  1.00  0.00    -0.259 OA
HETATM   20  C3  UNK     1      18.379  -0.468  35.287  1.00  0.00     0.089 A 
HETATM   21  C1  UNK     1      18.077   0.676  36.019  1.00  0.00    -0.001 A 
HETATM   22  C11 UNK     1      18.454  -1.723  35.886  1.00  0.00     0.038 A 
HETATM   23  C4  UNK     1      18.016   1.957  35.331  1.00  0.00     0.037 A 
HETATM   24  C9  UNK     1      17.842   0.556  37.392  1.00  0.00     0.014 A 
HETATM   25  C14 UNK     1      17.913  -0.697  38.006  1.00  0.00     0.001 A 
HETATM   26  C16 UNK     1      18.218  -1.834  37.254  1.00  0.00     0.003 A 
ENDBRANCH   3  16
TORSDOF 3
ENDMDL
