MODEL 1
REMARK VINA RESULT:      -7.9      0.000      0.000
REMARK  5 active torsions:
REMARK  status: ('A' for Active; 'I' for Inactive)
REMARK    1  A    between atoms: C12_18  and  O2_2 
REMARK    2  A    between atoms: C13_19  and  O2_2 
REMARK       I    between atoms: C6_12  and  N1_6 
REMARK    3  A    between atoms: C9_15  and  N1_6 
REMARK    4  A    between atoms: C2_8  and  C6_12 
REMARK    5  A    between atoms: C12_18  and  C9_15 
ROOT
HETATM    1  O1  UNK     1      18.918   0.364  32.272  1.00  0.00    -0.274 OA
HETATM    2  O4  UNK     1      17.991   2.450  32.389  1.00  0.00    -0.259 OA
HETATM    3  C1  UNK     1      19.922  -0.388  30.190  1.00  0.00    -0.001 A 
HETATM    4  C2  UNK     1      18.942   1.824  30.311  1.00  0.00     0.108 A 
HETATM    5  C3  UNK     1      19.584  -0.623  31.518  1.00  0.00     0.089 A 
HETATM    6  C4  UNK     1      19.576   0.892  29.591  1.00  0.00     0.037 A 
HETATM    7  C5  UNK     1      20.583  -1.390  29.476  1.00  0.00     0.014 A 
HETATM    8  C7  UNK     1      18.572   1.597  31.726  1.00  0.00     0.304 A 
HETATM    9  C8  UNK     1      19.886  -1.826  32.152  1.00  0.00     0.038 A 
HETATM   10  C10 UNK     1      20.894  -2.604  30.097  1.00  0.00     0.001 A 
HETATM   11  C11 UNK     1      20.546  -2.821  31.432  1.00  0.00     0.003 A 
ENDROOT
BRANCH   4  12
HETATM   12  C6  UNK     1      18.636   3.081  29.619  1.00  0.00     0.258 C 
HETATM   13  O3  UNK     1      17.966   3.089  28.587  1.00  0.00    -0.267 OA
HETATM   14  N1  UNK     1      19.176   4.188  30.249  1.00  0.00    -0.347 N 
HETATM   15  H6  UNK     1      19.703   4.079  31.111  1.00  0.00     0.163 HD
BRANCH  14  16
HETATM   16  C9  UNK     1      19.012   5.536  29.754  1.00  0.00     0.233 C 
BRANCH  16  17
HETATM   17  C12 UNK     1      18.641   6.453  30.890  1.00  0.00     0.276 C 
HETATM   18  O5  UNK     1      17.563   7.017  31.021  1.00  0.00    -0.263 OA
BRANCH  17  19
HETATM   19  O2  UNK     1      19.703   6.548  31.744  1.00  0.00    -0.321 OA
BRANCH  19  20
HETATM   20  C13 UNK     1      19.373   6.829  33.109  1.00  0.00     0.174 C 
HETATM   21  C14 UNK     1      19.128   5.523  33.836  1.00  0.00     0.034 C 
ENDBRANCH  19  20
ENDBRANCH  17  19
ENDBRANCH  16  17
ENDBRANCH  14  16
ENDBRANCH   4  12
TORSDOF 5
ENDMDL
MODEL 2
REMARK VINA RESULT:      -7.7      1.798      6.986
REMARK  5 active torsions:
REMARK  status: ('A' for Active; 'I' for Inactive)
REMARK    1  A    between atoms: C12_18  and  O2_2 
REMARK    2  A    between atoms: C13_19  and  O2_2 
REMARK       I    between atoms: C6_12  and  N1_6 
REMARK    3  A    between atoms: C9_15  and  N1_6 
REMARK    4  A    between atoms: C2_8  and  C6_12 
REMARK    5  A    between atoms: C12_18  and  C9_15 
ROOT
HETATM    1  O1  UNK     1      19.600   6.623  31.749  1.00  0.00    -0.274 OA
HETATM    2  O4  UNK     1      20.141   5.122  30.113  1.00  0.00    -0.259 OA
HETATM    3  C1  UNK     1      17.843   6.082  33.339  1.00  0.00    -0.001 A 
HETATM    4  C2  UNK     1      18.415   4.488  31.607  1.00  0.00     0.108 A 
HETATM    5  C3  UNK     1      18.809   6.962  32.864  1.00  0.00     0.089 A 
HETATM    6  C4  UNK     1      17.662   4.805  32.666  1.00  0.00     0.037 A 
HETATM    7  C5  UNK     1      17.079   6.454  34.448  1.00  0.00     0.014 A 
HETATM    8  C7  UNK     1      19.449   5.409  31.083  1.00  0.00     0.304 A 
HETATM    9  C8  UNK     1      19.033   8.200  33.462  1.00  0.00     0.038 A 
HETATM   10  C10 UNK     1      17.292   7.694  35.060  1.00  0.00     0.001 A 
HETATM   11  C11 UNK     1      18.266   8.564  34.568  1.00  0.00     0.003 A 
ENDROOT
BRANCH   4  12
HETATM   12  C6  UNK     1      18.158   3.179  30.997  1.00  0.00     0.258 C 
HETATM   13  O3  UNK     1      17.009   2.768  30.841  1.00  0.00    -0.267 OA
HETATM   14  N1  UNK     1      19.317   2.512  30.645  1.00  0.00    -0.347 N 
HETATM   15  H6  UNK     1      20.223   2.944  30.801  1.00  0.00     0.163 HD
BRANCH  14  16
HETATM   16  C9  UNK     1      19.320   1.203  30.030  1.00  0.00     0.233 C 
BRANCH  16  17
HETATM   17  C12 UNK     1      19.754   0.170  31.036  1.00  0.00     0.276 C 
HETATM   18  O5  UNK     1      20.912  -0.155  31.262  1.00  0.00    -0.263 OA
BRANCH  17  19
HETATM   19  O2  UNK     1      18.645  -0.340  31.650  1.00  0.00    -0.321 OA
BRANCH  19  20
HETATM   20  C13 UNK     1      18.756  -0.529  33.065  1.00  0.00     0.174 C 
HETATM   21  C14 UNK     1      18.364   0.754  33.766  1.00  0.00     0.034 C 
ENDBRANCH  19  20
ENDBRANCH  17  19
ENDBRANCH  16  17
ENDBRANCH  14  16
ENDBRANCH   4  12
TORSDOF 5
ENDMDL
MODEL 3
REMARK VINA RESULT:      -7.7      6.242     10.521
REMARK  5 active torsions:
REMARK  status: ('A' for Active; 'I' for Inactive)
REMARK    1  A    between atoms: C12_18  and  O2_2 
REMARK    2  A    between atoms: C13_19  and  O2_2 
REMARK       I    between atoms: C6_12  and  N1_6 
REMARK    3  A    between atoms: C9_15  and  N1_6 
REMARK    4  A    between atoms: C2_8  and  C6_12 
REMARK    5  A    between atoms: C12_18  and  C9_15 
ROOT
HETATM    1  O1  UNK     1      19.743  -1.198  34.687  1.00  0.00    -0.274 OA
HETATM    2  O4  UNK     1      20.838  -3.010  33.828  1.00  0.00    -0.259 OA
HETATM    3  C1  UNK     1      18.646  -1.373  36.850  1.00  0.00    -0.001 A 
HETATM    4  C2  UNK     1      19.807  -3.296  35.942  1.00  0.00     0.108 A 
HETATM    5  C3  UNK     1      18.984  -0.625  35.727  1.00  0.00     0.089 A 
HETATM    6  C4  UNK     1      19.088  -2.757  36.933  1.00  0.00     0.037 A 
HETATM    7  C5  UNK     1      17.893  -0.769  37.860  1.00  0.00     0.014 A 
HETATM    8  C7  UNK     1      20.179  -2.519  34.738  1.00  0.00     0.304 A 
HETATM    9  C8  UNK     1      18.593   0.705  35.585  1.00  0.00     0.038 A 
HETATM   10  C10 UNK     1      17.492   0.565  37.732  1.00  0.00     0.001 A 
HETATM   11  C11 UNK     1      17.841   1.299  36.597  1.00  0.00     0.003 A 
ENDROOT
BRANCH   4  12
HETATM   12  C6  UNK     1      20.206  -4.697  36.118  1.00  0.00     0.258 C 
HETATM   13  O3  UNK     1      21.027  -5.017  36.976  1.00  0.00    -0.267 OA
HETATM   14  N1  UNK     1      19.569  -5.552  35.238  1.00  0.00    -0.347 N 
HETATM   15  H6  UNK     1      18.890  -5.191  34.574  1.00  0.00     0.163 HD
BRANCH  14  16
HETATM   16  C9  UNK     1      19.800  -6.979  35.218  1.00  0.00     0.233 C 
BRANCH  16  17
HETATM   17  C12 UNK     1      20.692  -7.333  34.057  1.00  0.00     0.276 C 
HETATM   18  O5  UNK     1      20.848  -6.654  33.051  1.00  0.00    -0.263 OA
BRANCH  17  19
HETATM   19  O2  UNK     1      21.294  -8.532  34.315  1.00  0.00    -0.321 OA
BRANCH  19  20
HETATM   20  C13 UNK     1      21.561  -8.802  35.696  1.00  0.00     0.174 C 
HETATM   21  C14 UNK     1      21.534 -10.300  35.919  1.00  0.00     0.034 C 
ENDBRANCH  19  20
ENDBRANCH  17  19
ENDBRANCH  16  17
ENDBRANCH  14  16
ENDBRANCH   4  12
TORSDOF 5
ENDMDL
MODEL 4
REMARK VINA RESULT:      -7.7      1.364      2.383
REMARK  5 active torsions:
REMARK  status: ('A' for Active; 'I' for Inactive)
REMARK    1  A    between atoms: C12_18  and  O2_2 
REMARK    2  A    between atoms: C13_19  and  O2_2 
REMARK       I    between atoms: C6_12  and  N1_6 
REMARK    3  A    between atoms: C9_15  and  N1_6 
REMARK    4  A    between atoms: C2_8  and  C6_12 
REMARK    5  A    between atoms: C12_18  and  C9_15 
ROOT
HETATM    1  O1  UNK     1      18.974   0.725  28.562  1.00  0.00    -0.274 OA
HETATM    2  O4  UNK     1      18.042   2.773  28.167  1.00  0.00    -0.259 OA
HETATM    3  C1  UNK     1      19.708   0.154  30.809  1.00  0.00    -0.001 A 
HETATM    4  C2  UNK     1      18.718   2.326  30.393  1.00  0.00     0.108 A 
HETATM    5  C3  UNK     1      19.552  -0.186  29.469  1.00  0.00     0.089 A 
HETATM    6  C4  UNK     1      19.265   1.464  31.259  1.00  0.00     0.037 A 
HETATM    7  C5  UNK     1      20.284  -0.777  31.677  1.00  0.00     0.014 A 
HETATM    8  C7  UNK     1      18.543   1.986  28.963  1.00  0.00     0.304 A 
HETATM    9  C8  UNK     1      19.955  -1.424  28.973  1.00  0.00     0.038 A 
HETATM   10  C10 UNK     1      20.694  -2.024  31.195  1.00  0.00     0.001 A 
HETATM   11  C11 UNK     1      20.529  -2.346  29.846  1.00  0.00     0.003 A 
ENDROOT
BRANCH   4  12
HETATM   12  C6  UNK     1      18.303   3.621  30.943  1.00  0.00     0.258 C 
HETATM   13  O3  UNK     1      17.462   3.689  31.837  1.00  0.00    -0.267 OA
HETATM   14  N1  UNK     1      18.950   4.690  30.348  1.00  0.00    -0.347 N 
HETATM   15  H6  UNK     1      19.645   4.529  29.625  1.00  0.00     0.163 HD
BRANCH  14  16
HETATM   16  C9  UNK     1      18.706   6.066  30.720  1.00  0.00     0.233 C 
BRANCH  16  17
HETATM   17  C12 UNK     1      19.516   6.413  31.942  1.00  0.00     0.276 C 
HETATM   18  O5  UNK     1      20.693   6.129  32.115  1.00  0.00    -0.263 OA
BRANCH  17  19
HETATM   19  O2  UNK     1      18.719   7.095  32.818  1.00  0.00    -0.321 OA
BRANCH  19  20
HETATM   20  C13 UNK     1      17.387   7.357  32.361  1.00  0.00     0.174 C 
HETATM   21  C14 UNK     1      16.407   6.953  33.443  1.00  0.00     0.034 C 
ENDBRANCH  19  20
ENDBRANCH  17  19
ENDBRANCH  16  17
ENDBRANCH  14  16
ENDBRANCH   4  12
TORSDOF 5
ENDMDL
MODEL 5
REMARK VINA RESULT:      -7.7      3.356      5.578
REMARK  5 active torsions:
REMARK  status: ('A' for Active; 'I' for Inactive)
REMARK    1  A    between atoms: C12_18  and  O2_2 
REMARK    2  A    between atoms: C13_19  and  O2_2 
REMARK       I    between atoms: C6_12  and  N1_6 
REMARK    3  A    between atoms: C9_15  and  N1_6 
REMARK    4  A    between atoms: C2_8  and  C6_12 
REMARK    5  A    between atoms: C12_18  and  C9_15 
ROOT
HETATM    1  O1  UNK     1      18.774  -0.789  34.412  1.00  0.00    -0.274 OA
HETATM    2  O4  UNK     1      18.999  -0.152  32.229  1.00  0.00    -0.259 OA
HETATM    3  C1  UNK     1      18.021   0.829  36.063  1.00  0.00    -0.001 A 
HETATM    4  C2  UNK     1      18.257   1.507  33.749  1.00  0.00     0.108 A 
HETATM    5  C3  UNK     1      18.439  -0.458  35.740  1.00  0.00     0.089 A 
HETATM    6  C4  UNK     1      17.936   1.827  35.008  1.00  0.00     0.037 A 
HETATM    7  C5  UNK     1      17.697   1.118  37.390  1.00  0.00     0.014 A 
HETATM    8  C7  UNK     1      18.705   0.145  33.382  1.00  0.00     0.304 A 
HETATM    9  C8  UNK     1      18.542  -1.460  36.701  1.00  0.00     0.038 A 
HETATM   10  C10 UNK     1      17.795   0.123  38.368  1.00  0.00     0.001 A 
HETATM   11  C11 UNK     1      18.216  -1.163  38.024  1.00  0.00     0.003 A 
ENDROOT
BRANCH   4  12
HETATM   12  C6  UNK     1      18.139   2.582  32.757  1.00  0.00     0.258 C 
HETATM   13  O3  UNK     1      17.971   3.749  33.105  1.00  0.00    -0.267 OA
HETATM   14  N1  UNK     1      18.236   2.125  31.455  1.00  0.00    -0.347 N 
HETATM   15  H6  UNK     1      18.393   1.139  31.269  1.00  0.00     0.163 HD
BRANCH  14  16
HETATM   16  C9  UNK     1      18.148   2.996  30.304  1.00  0.00     0.233 C 
BRANCH  16  17
HETATM   17  C12 UNK     1      18.408   2.207  29.048  1.00  0.00     0.276 C 
HETATM   18  O5  UNK     1      17.799   2.333  27.994  1.00  0.00    -0.263 OA
BRANCH  17  19
HETATM   19  O2  UNK     1      19.432   1.334  29.282  1.00  0.00    -0.321 OA
BRANCH  19  20
HETATM   20  C13 UNK     1      19.349   0.086  28.584  1.00  0.00     0.174 C 
HETATM   21  C14 UNK     1      20.566  -0.749  28.922  1.00  0.00     0.034 C 
ENDBRANCH  19  20
ENDBRANCH  17  19
ENDBRANCH  16  17
ENDBRANCH  14  16
ENDBRANCH   4  12
TORSDOF 5
ENDMDL
MODEL 6
REMARK VINA RESULT:      -7.7      1.711      2.036
REMARK  5 active torsions:
REMARK  status: ('A' for Active; 'I' for Inactive)
REMARK    1  A    between atoms: C12_18  and  O2_2 
REMARK    2  A    between atoms: C13_19  and  O2_2 
REMARK       I    between atoms: C6_12  and  N1_6 
REMARK    3  A    between atoms: C9_15  and  N1_6 
REMARK    4  A    between atoms: C2_8  and  C6_12 
REMARK    5  A    between atoms: C12_18  and  C9_15 
ROOT
HETATM    1  O1  UNK     1      18.742   0.549  32.648  1.00  0.00    -0.274 OA
HETATM    2  O4  UNK     1      17.917   2.433  33.644  1.00  0.00    -0.259 OA
HETATM    3  C1  UNK     1      19.513   0.649  30.345  1.00  0.00    -0.001 A 
HETATM    4  C2  UNK     1      18.641   2.649  31.399  1.00  0.00     0.108 A 
HETATM    5  C3  UNK     1      19.293  -0.075  31.511  1.00  0.00     0.089 A 
HETATM    6  C4  UNK     1      19.165   2.062  30.317  1.00  0.00     0.037 A 
HETATM    7  C5  UNK     1      20.062  -0.004  29.239  1.00  0.00     0.014 A 
HETATM    8  C7  UNK     1      18.397   1.898  32.651  1.00  0.00     0.304 A 
HETATM    9  C8  UNK     1      19.603  -1.430  31.604  1.00  0.00     0.038 A 
HETATM   10  C10 UNK     1      20.380  -1.364  29.317  1.00  0.00     0.001 A 
HETATM   11  C11 UNK     1      20.151  -2.075  30.496  1.00  0.00     0.003 A 
ENDROOT
BRANCH   4  12
HETATM   12  C6  UNK     1      18.324   4.076  31.272  1.00  0.00     0.258 C 
HETATM   13  O3  UNK     1      18.760   4.740  30.334  1.00  0.00    -0.267 OA
HETATM   14  N1  UNK     1      17.517   4.540  32.295  1.00  0.00    -0.347 N 
HETATM   15  H6  UNK     1      17.193   3.906  33.020  1.00  0.00     0.163 HD
BRANCH  14  16
HETATM   16  C9  UNK     1      17.072   5.913  32.388  1.00  0.00     0.233 C 
BRANCH  16  17
HETATM   17  C12 UNK     1      17.346   6.443  33.772  1.00  0.00     0.276 C 
HETATM   18  O5  UNK     1      16.503   6.885  34.540  1.00  0.00    -0.263 OA
BRANCH  17  19
HETATM   19  O2  UNK     1      18.686   6.346  34.022  1.00  0.00    -0.321 OA
BRANCH  19  20
HETATM   20  C13 UNK     1      19.499   7.361  33.422  1.00  0.00     0.174 C 
HETATM   21  C14 UNK     1      19.699   8.485  34.416  1.00  0.00     0.034 C 
ENDBRANCH  19  20
ENDBRANCH  17  19
ENDBRANCH  16  17
ENDBRANCH  14  16
ENDBRANCH   4  12
TORSDOF 5
ENDMDL
MODEL 7
REMARK VINA RESULT:      -7.6     13.688     16.455
REMARK  5 active torsions:
REMARK  status: ('A' for Active; 'I' for Inactive)
REMARK    1  A    between atoms: C12_18  and  O2_2 
REMARK    2  A    between atoms: C13_19  and  O2_2 
REMARK       I    between atoms: C6_12  and  N1_6 
REMARK    3  A    between atoms: C9_15  and  N1_6 
REMARK    4  A    between atoms: C2_8  and  C6_12 
REMARK    5  A    between atoms: C12_18  and  C9_15 
ROOT
HETATM    1  O1  UNK     1      19.289   1.066  15.302  1.00  0.00    -0.274 OA
HETATM    2  O4  UNK     1      19.281  -0.547  13.682  1.00  0.00    -0.259 OA
HETATM    3  C1  UNK     1      18.926   0.438  17.622  1.00  0.00    -0.001 A 
HETATM    4  C2  UNK     1      18.918  -1.275  15.908  1.00  0.00     0.108 A 
HETATM    5  C3  UNK     1      19.167   1.414  16.661  1.00  0.00     0.089 A 
HETATM    6  C4  UNK     1      18.802  -0.949  17.200  1.00  0.00     0.037 A 
HETATM    7  C5  UNK     1      18.812   0.822  18.960  1.00  0.00     0.014 A 
HETATM    8  C7  UNK     1      19.174  -0.252  14.868  1.00  0.00     0.304 A 
HETATM    9  C8  UNK     1      19.296   2.760  16.998  1.00  0.00     0.038 A 
HETATM   10  C10 UNK     1      18.939   2.169  19.314  1.00  0.00     0.001 A 
HETATM   11  C11 UNK     1      19.180   3.135  18.335  1.00  0.00     0.003 A 
ENDROOT
BRANCH   4  12
HETATM   12  C6  UNK     1      18.778  -2.698  15.582  1.00  0.00     0.258 C 
HETATM   13  O3  UNK     1      17.694  -3.165  15.237  1.00  0.00    -0.267 OA
HETATM   14  N1  UNK     1      19.964  -3.399  15.712  1.00  0.00    -0.347 N 
HETATM   15  H6  UNK     1      20.814  -2.918  15.989  1.00  0.00     0.163 HD
BRANCH  14  16
HETATM   16  C9  UNK     1      20.075  -4.816  15.449  1.00  0.00     0.233 C 
BRANCH  16  17
HETATM   17  C12 UNK     1      21.525  -5.226  15.482  1.00  0.00     0.276 C 
HETATM   18  O5  UNK     1      21.936  -6.377  15.425  1.00  0.00    -0.263 OA
BRANCH  17  19
HETATM   19  O2  UNK     1      22.297  -4.104  15.585  1.00  0.00    -0.321 OA
BRANCH  19  20
HETATM   20  C13 UNK     1      23.346  -4.165  16.557  1.00  0.00     0.174 C 
HETATM   21  C14 UNK     1      22.861  -3.535  17.846  1.00  0.00     0.034 C 
ENDBRANCH  19  20
ENDBRANCH  17  19
ENDBRANCH  16  17
ENDBRANCH  14  16
ENDBRANCH   4  12
TORSDOF 5
ENDMDL
MODEL 8
REMARK VINA RESULT:      -7.5      6.470     10.462
REMARK  5 active torsions:
REMARK  status: ('A' for Active; 'I' for Inactive)
REMARK    1  A    between atoms: C12_18  and  O2_2 
REMARK    2  A    between atoms: C13_19  and  O2_2 
REMARK       I    between atoms: C6_12  and  N1_6 
REMARK    3  A    between atoms: C9_15  and  N1_6 
REMARK    4  A    between atoms: C2_8  and  C6_12 
REMARK    5  A    between atoms: C12_18  and  C9_15 
ROOT
HETATM    1  O1  UNK     1      19.659  -0.868  34.858  1.00  0.00    -0.274 OA
HETATM    2  O4  UNK     1      20.723  -2.795  34.245  1.00  0.00    -0.259 OA
HETATM    3  C1  UNK     1      18.440  -0.786  36.959  1.00  0.00    -0.001 A 
HETATM    4  C2  UNK     1      19.568  -2.831  36.314  1.00  0.00     0.108 A 
HETATM    5  C3  UNK     1      18.869  -0.167  35.791  1.00  0.00     0.089 A 
HETATM    6  C4  UNK     1      18.819  -2.169  37.203  1.00  0.00     0.037 A 
HETATM    7  C5  UNK     1      17.659  -0.058  37.860  1.00  0.00     0.014 A 
HETATM    8  C7  UNK     1      20.036  -2.192  35.063  1.00  0.00     0.304 A 
HETATM    9  C8  UNK     1      18.541   1.155  35.496  1.00  0.00     0.038 A 
HETATM   10  C10 UNK     1      17.321   1.270  37.579  1.00  0.00     0.001 A 
HETATM   11  C11 UNK     1      17.761   1.874  36.400  1.00  0.00     0.003 A 
ENDROOT
BRANCH   4  12
HETATM   12  C6  UNK     1      19.898  -4.220  36.649  1.00  0.00     0.258 C 
HETATM   13  O3  UNK     1      20.475  -4.497  37.699  1.00  0.00    -0.267 OA
HETATM   14  N1  UNK     1      19.495  -5.118  35.678  1.00  0.00    -0.347 N 
HETATM   15  H6  UNK     1      19.008  -4.791  34.849  1.00  0.00     0.163 HD
BRANCH  14  16
HETATM   16  C9  UNK     1      19.712  -6.544  35.783  1.00  0.00     0.233 C 
BRANCH  16  17
HETATM   17  C12 UNK     1      18.440  -7.221  36.222  1.00  0.00     0.276 C 
HETATM   18  O5  UNK     1      17.571  -7.648  35.474  1.00  0.00    -0.263 OA
BRANCH  17  19
HETATM   19  O2  UNK     1      18.421  -7.278  37.587  1.00  0.00    -0.321 OA
BRANCH  19  20
HETATM   20  C13 UNK     1      19.370  -8.172  38.179  1.00  0.00     0.174 C 
HETATM   21  C14 UNK     1      19.943  -7.528  39.424  1.00  0.00     0.034 C 
ENDBRANCH  19  20
ENDBRANCH  17  19
ENDBRANCH  16  17
ENDBRANCH  14  16
ENDBRANCH   4  12
TORSDOF 5
ENDMDL
MODEL 9
REMARK VINA RESULT:      -7.4      1.911      7.389
REMARK  5 active torsions:
REMARK  status: ('A' for Active; 'I' for Inactive)
REMARK    1  A    between atoms: C12_18  and  O2_2 
REMARK    2  A    between atoms: C13_19  and  O2_2 
REMARK       I    between atoms: C6_12  and  N1_6 
REMARK    3  A    between atoms: C9_15  and  N1_6 
REMARK    4  A    between atoms: C2_8  and  C6_12 
REMARK    5  A    between atoms: C12_18  and  C9_15 
ROOT
HETATM    1  O1  UNK     1      18.988   6.872  31.769  1.00  0.00    -0.274 OA
HETATM    2  O4  UNK     1      19.722   5.146  30.463  1.00  0.00    -0.259 OA
HETATM    3  C1  UNK     1      17.503   6.414  33.638  1.00  0.00    -0.001 A 
HETATM    4  C2  UNK     1      18.280   4.582  32.256  1.00  0.00     0.108 A 
HETATM    5  C3  UNK     1      18.223   7.318  32.865  1.00  0.00     0.089 A 
HETATM    6  C4  UNK     1      17.553   5.000  33.298  1.00  0.00     0.037 A 
HETATM    7  C5  UNK     1      16.757   6.895  34.717  1.00  0.00     0.014 A 
HETATM    8  C7  UNK     1      19.054   5.526  31.419  1.00  0.00     0.304 A 
HETATM    9  C8  UNK     1      18.218   8.684  33.136  1.00  0.00     0.038 A 
HETATM   10  C10 UNK     1      16.742   8.264  35.002  1.00  0.00     0.001 A 
HETATM   11  C11 UNK     1      17.471   9.156  34.214  1.00  0.00     0.003 A 
ENDROOT
BRANCH   4  12
HETATM   12  C6  UNK     1      18.267   3.138  31.994  1.00  0.00     0.258 C 
HETATM   13  O3  UNK     1      17.786   2.352  32.808  1.00  0.00    -0.267 OA
HETATM   14  N1  UNK     1      18.838   2.807  30.779  1.00  0.00    -0.347 N 
HETATM   15  H6  UNK     1      19.195   3.535  30.166  1.00  0.00     0.163 HD
BRANCH  14  16
HETATM   16  C9  UNK     1      18.943   1.447  30.301  1.00  0.00     0.233 C 
BRANCH  16  17
HETATM   17  C12 UNK     1      18.635   1.401  28.827  1.00  0.00     0.276 C 
HETATM   18  O5  UNK     1      18.001   2.245  28.210  1.00  0.00    -0.263 OA
BRANCH  17  19
HETATM   19  O2  UNK     1      19.181   0.265  28.299  1.00  0.00    -0.321 OA
BRANCH  19  20
HETATM   20  C13 UNK     1      20.380  -0.194  28.933  1.00  0.00     0.174 C 
HETATM   21  C14 UNK     1      20.234  -1.665  29.261  1.00  0.00     0.034 C 
ENDBRANCH  19  20
ENDBRANCH  17  19
ENDBRANCH  16  17
ENDBRANCH  14  16
ENDBRANCH   4  12
TORSDOF 5
ENDMDL
MODEL 10
REMARK VINA RESULT:      -7.4      3.992      7.734
REMARK  5 active torsions:
REMARK  status: ('A' for Active; 'I' for Inactive)
REMARK    1  A    between atoms: C12_18  and  O2_2 
REMARK    2  A    between atoms: C13_19  and  O2_2 
REMARK       I    between atoms: C6_12  and  N1_6 
REMARK    3  A    between atoms: C9_15  and  N1_6 
REMARK    4  A    between atoms: C2_8  and  C6_12 
REMARK    5  A    between atoms: C12_18  and  C9_15 
ROOT
HETATM    1  O1  UNK     1      18.690   1.011  32.160  1.00  0.00    -0.274 OA
HETATM    2  O4  UNK     1      17.847   1.363  34.255  1.00  0.00    -0.259 OA
HETATM    3  C1  UNK     1      19.620  -1.162  31.591  1.00  0.00    -0.001 A 
HETATM    4  C2  UNK     1      18.726  -0.792  33.812  1.00  0.00     0.108 A 
HETATM    5  C3  UNK     1      19.303   0.145  31.234  1.00  0.00     0.089 A 
HETATM    6  C4  UNK     1      19.308  -1.619  32.936  1.00  0.00     0.037 A 
HETATM    7  C5  UNK     1      20.227  -1.990  30.644  1.00  0.00     0.014 A 
HETATM    8  C7  UNK     1      18.381   0.602  33.455  1.00  0.00     0.304 A 
HETATM    9  C8  UNK     1      19.575   0.646  29.963  1.00  0.00     0.038 A 
HETATM   10  C10 UNK     1      20.506  -1.503  29.363  1.00  0.00     0.001 A 
HETATM   11  C11 UNK     1      20.181  -0.188  29.024  1.00  0.00     0.003 A 
ENDROOT
BRANCH   4  12
HETATM   12  C6  UNK     1      18.452  -1.346  35.143  1.00  0.00     0.258 C 
HETATM   13  O3  UNK     1      17.431  -1.040  35.757  1.00  0.00    -0.267 OA
HETATM   14  N1  UNK     1      19.441  -2.206  35.583  1.00  0.00    -0.347 N 
HETATM   15  H6  UNK     1      20.243  -2.408  34.992  1.00  0.00     0.163 HD
BRANCH  14  16
HETATM   16  C9  UNK     1      19.395  -2.873  36.865  1.00  0.00     0.233 C 
BRANCH  16  17
HETATM   17  C12 UNK     1      20.282  -4.090  36.837  1.00  0.00     0.276 C 
HETATM   18  O5  UNK     1      21.038  -4.436  37.734  1.00  0.00    -0.263 OA
BRANCH  17  19
HETATM   19  O2  UNK     1      20.099  -4.739  35.648  1.00  0.00    -0.321 OA
BRANCH  19  20
HETATM   20  C13 UNK     1      19.806  -6.137  35.749  1.00  0.00     0.174 C 
HETATM   21  C14 UNK     1      20.248  -6.827  34.476  1.00  0.00     0.034 C 
ENDBRANCH  19  20
ENDBRANCH  17  19
ENDBRANCH  16  17
ENDBRANCH  14  16
ENDBRANCH   4  12
TORSDOF 5
ENDMDL
