MODEL 1
REMARK VINA RESULT:     -10.2      0.000      0.000
REMARK  3 active torsions:
REMARK  status: ('A' for Active; 'I' for Inactive)
REMARK       I    between atoms: C11_22  and  N1_7 
REMARK    1  A    between atoms: C4_15  and  N1_7 
REMARK    2  A    between atoms: C3_14  and  C9_20 
REMARK    3  A    between atoms: C11_22  and  C12_23 
ROOT
HETATM    1  O1  UNK     1      19.183  -0.463  33.362  1.00  0.00    -0.275 OA
HETATM    2  O2  UNK     1      19.908  -2.531  34.015  1.00  0.00    -0.260 OA
HETATM    3  C1  UNK     1      19.426   0.205  31.025  1.00  0.00     0.013 A 
HETATM    4  C2  UNK     1      19.017   0.482  32.330  1.00  0.00     0.092 A 
HETATM    5  C3  UNK     1      20.039  -1.100  30.742  1.00  0.00     0.066 A 
HETATM    6  C4  UNK     1      18.234   2.668  31.708  1.00  0.00     0.037 A 
HETATM    7  C5  UNK     1      18.425   1.696  32.685  1.00  0.00     0.067 A 
HETATM    8  C6  UNK     1      19.225   1.197  30.056  1.00  0.00     0.017 A 
HETATM    9  C7  UNK     1      18.633   2.419  30.396  1.00  0.00     0.030 A 
HETATM   10  C8  UNK     1      20.185  -1.979  31.743  1.00  0.00     0.099 A 
HETATM   11  C10 UNK     1      19.759  -1.702  33.125  1.00  0.00     0.289 A 
ENDROOT
BRANCH   6  12
HETATM   12  N1  UNK     1      17.646   3.888  32.040  1.00  0.00    -0.320 N 
HETATM   13  C11 UNK     1      18.293   5.116  32.103  1.00  0.00     0.296 C 
HETATM   14  O3  UNK     1      19.475   5.358  31.883  1.00  0.00    -0.264 OA
HETATM   15  H5  UNK     1      16.650   3.865  32.251  1.00  0.00     0.169 HD
BRANCH  13  16
HETATM   16  C12 UNK     1      17.411   6.261  32.453  1.00  0.00     0.256 A 
HETATM   17  N3  UNK     1      16.959   6.370  33.670  1.00  0.00    -0.126 NA
HETATM   18  N2  UNK     1      16.226   7.502  33.550  1.00  0.00    -0.069 N 
HETATM   19  C13 UNK     1      16.312   7.974  32.237  1.00  0.00     0.751 A 
HETATM   20  C14 UNK     1      15.477   8.164  34.514  1.00  0.00     0.139 A 
HETATM   21  N4  UNK     1      17.080   7.165  31.536  1.00  0.00    -0.034 NA
HETATM   22  N5  UNK     1      15.655   9.110  31.858  1.00  0.00    -0.073 NA
HETATM   23  C16 UNK     1      14.964   9.706  32.782  1.00  0.00     0.138 A 
HETATM   24  C15 UNK     1      14.816   9.281  34.198  1.00  0.00     0.040 A 
ENDBRANCH  13  16
ENDBRANCH   6  12
BRANCH   5  25
HETATM   25  C9  UNK     1      20.490  -1.429  29.349  1.00  0.00     0.418 C 
HETATM   26  F1  UNK     1      21.053  -2.653  29.304  1.00  0.00    -0.166 F 
HETATM   27  F2  UNK     1      19.451  -1.418  28.491  1.00  0.00    -0.166 F 
HETATM   28  F3  UNK     1      21.400  -0.536  28.912  1.00  0.00    -0.166 F 
ENDBRANCH   5  25
TORSDOF 3
ENDMDL
MODEL 2
REMARK VINA RESULT:      -9.7      7.364     10.008
REMARK  3 active torsions:
REMARK  status: ('A' for Active; 'I' for Inactive)
REMARK       I    between atoms: C11_22  and  N1_7 
REMARK    1  A    between atoms: C4_15  and  N1_7 
REMARK    2  A    between atoms: C3_14  and  C9_20 
REMARK    3  A    between atoms: C11_22  and  C12_23 
ROOT
HETATM    1  O1  UNK     1      19.146  -8.968  38.367  1.00  0.00    -0.275 OA
HETATM    2  O2  UNK     1      19.106 -11.033  39.348  1.00  0.00    -0.260 OA
HETATM    3  C1  UNK     1      20.405  -8.653  36.297  1.00  0.00     0.013 A 
HETATM    4  C2  UNK     1      19.595  -8.146  37.314  1.00  0.00     0.092 A 
HETATM    5  C3  UNK     1      20.788 -10.072  36.344  1.00  0.00     0.066 A 
HETATM    6  C4  UNK     1      19.596  -5.952  36.332  1.00  0.00     0.037 A 
HETATM    7  C5  UNK     1      19.185  -6.812  37.346  1.00  0.00     0.067 A 
HETATM    8  C6  UNK     1      20.809  -7.771  35.286  1.00  0.00     0.017 A 
HETATM    9  C7  UNK     1      20.407  -6.431  35.304  1.00  0.00     0.030 A 
HETATM   10  C8  UNK     1      20.347 -10.830  37.357  1.00  0.00     0.099 A 
HETATM   11  C10 UNK     1      19.491 -10.309  38.437  1.00  0.00     0.289 A 
ENDROOT
BRANCH   6  12
HETATM   12  N1  UNK     1      19.199  -4.615  36.344  1.00  0.00    -0.320 N 
HETATM   13  C11 UNK     1      20.037  -3.516  36.491  1.00  0.00     0.296 C 
HETATM   14  O3  UNK     1      21.255  -3.511  36.634  1.00  0.00    -0.264 OA
HETATM   15  H5  UNK     1      18.203  -4.441  36.231  1.00  0.00     0.169 HD
BRANCH  13  16
HETATM   16  C12 UNK     1      19.346  -2.202  36.436  1.00  0.00     0.256 A 
HETATM   17  N3  UNK     1      18.320  -1.985  37.208  1.00  0.00    -0.126 NA
HETATM   18  N2  UNK     1      18.010  -0.719  36.843  1.00  0.00    -0.069 N 
HETATM   19  C13 UNK     1      18.904  -0.287  35.860  1.00  0.00     0.751 A 
HETATM   20  C14 UNK     1      16.990   0.100  37.310  1.00  0.00     0.139 A 
HETATM   21  N4  UNK     1      19.763  -1.252  35.603  1.00  0.00    -0.034 NA
HETATM   22  N5  UNK     1      18.801   0.964  35.322  1.00  0.00    -0.073 NA
HETATM   23  C16 UNK     1      17.838   1.706  35.779  1.00  0.00     0.138 A 
HETATM   24  C15 UNK     1      16.845   1.334  36.820  1.00  0.00     0.040 A 
ENDBRANCH  13  16
ENDBRANCH   6  12
BRANCH   5  25
HETATM   25  C9  UNK     1      21.659 -10.648  35.266  1.00  0.00     0.418 C 
HETATM   26  F1  UNK     1      21.642  -9.866  34.168  1.00  0.00    -0.166 F 
HETATM   27  F2  UNK     1      22.936 -10.752  35.683  1.00  0.00    -0.166 F 
HETATM   28  F3  UNK     1      21.236 -11.876  34.908  1.00  0.00    -0.166 F 
ENDBRANCH   5  25
TORSDOF 3
ENDMDL
MODEL 3
REMARK VINA RESULT:      -9.6      5.030      9.431
REMARK  3 active torsions:
REMARK  status: ('A' for Active; 'I' for Inactive)
REMARK       I    between atoms: C11_22  and  N1_7 
REMARK    1  A    between atoms: C4_15  and  N1_7 
REMARK    2  A    between atoms: C3_14  and  C9_20 
REMARK    3  A    between atoms: C11_22  and  C12_23 
ROOT
HETATM    1  O1  UNK     1      19.868   8.214  33.748  1.00  0.00    -0.275 OA
HETATM    2  O2  UNK     1      20.454  10.189  34.739  1.00  0.00    -0.260 OA
HETATM    3  C1  UNK     1      17.546   7.855  33.079  1.00  0.00     0.013 A 
HETATM    4  C2  UNK     1      18.864   7.408  33.175  1.00  0.00     0.092 A 
HETATM    5  C3  UNK     1      17.218   9.193  33.591  1.00  0.00     0.066 A 
HETATM    6  C4  UNK     1      18.314   5.311  32.136  1.00  0.00     0.037 A 
HETATM    7  C5  UNK     1      19.261   6.151  32.712  1.00  0.00     0.067 A 
HETATM    8  C6  UNK     1      16.607   6.994  32.496  1.00  0.00     0.017 A 
HETATM    9  C7  UNK     1      16.989   5.732  32.028  1.00  0.00     0.030 A 
HETATM   10  C8  UNK     1      18.193   9.938  34.131  1.00  0.00     0.099 A 
HETATM   11  C10 UNK     1      19.588   9.480  34.239  1.00  0.00     0.289 A 
ENDROOT
BRANCH   6  12
HETATM   12  N1  UNK     1      18.688   4.052  31.668  1.00  0.00    -0.320 N 
HETATM   13  C11 UNK     1      18.310   2.832  32.217  1.00  0.00     0.296 C 
HETATM   14  O3  UNK     1      17.594   2.633  33.192  1.00  0.00    -0.264 OA
HETATM   15  H5  UNK     1      19.289   4.037  30.848  1.00  0.00     0.169 HD
BRANCH  13  16
HETATM   16  C12 UNK     1      18.831   1.642  31.494  1.00  0.00     0.256 A 
HETATM   17  N3  UNK     1      19.062   0.543  32.153  1.00  0.00    -0.126 NA
HETATM   18  N2  UNK     1      19.512  -0.246  31.149  1.00  0.00    -0.069 N 
HETATM   19  C13 UNK     1      19.508   0.476  29.953  1.00  0.00     0.751 A 
HETATM   20  C14 UNK     1      19.933  -1.569  31.199  1.00  0.00     0.139 A 
HETATM   21  N4  UNK     1      19.067   1.696  30.186  1.00  0.00    -0.034 NA
HETATM   22  N5  UNK     1      19.922  -0.101  28.786  1.00  0.00    -0.073 NA
HETATM   23  C16 UNK     1      20.308  -1.338  28.866  1.00  0.00     0.138 A 
HETATM   24  C15 UNK     1      20.346  -2.183  30.087  1.00  0.00     0.040 A 
ENDBRANCH  13  16
ENDBRANCH   6  12
BRANCH   5  25
HETATM   25  C9  UNK     1      15.810   9.704  33.504  1.00  0.00     0.418 C 
HETATM   26  F1  UNK     1      15.315   9.535  32.262  1.00  0.00    -0.166 F 
HETATM   27  F2  UNK     1      15.006   9.049  34.365  1.00  0.00    -0.166 F 
HETATM   28  F3  UNK     1      15.753  11.018  33.799  1.00  0.00    -0.166 F 
ENDBRANCH   5  25
TORSDOF 3
ENDMDL
MODEL 4
REMARK VINA RESULT:      -9.4      7.605     10.195
REMARK  3 active torsions:
REMARK  status: ('A' for Active; 'I' for Inactive)
REMARK       I    between atoms: C11_22  and  N1_7 
REMARK    1  A    between atoms: C4_15  and  N1_7 
REMARK    2  A    between atoms: C3_14  and  C9_20 
REMARK    3  A    between atoms: C11_22  and  C12_23 
ROOT
HETATM    1  O1  UNK     1      22.504  -7.840  36.730  1.00  0.00    -0.275 OA
HETATM    2  O2  UNK     1      24.051  -9.517  36.572  1.00  0.00    -0.260 OA
HETATM    3  C1  UNK     1      20.207  -8.388  37.355  1.00  0.00     0.013 A 
HETATM    4  C2  UNK     1      21.177  -7.451  37.000  1.00  0.00     0.092 A 
HETATM    5  C3  UNK     1      20.595  -9.803  37.443  1.00  0.00     0.066 A 
HETATM    6  C4  UNK     1      19.600  -5.642  37.149  1.00  0.00     0.037 A 
HETATM    7  C5  UNK     1      20.893  -6.087  36.894  1.00  0.00     0.067 A 
HETATM    8  C6  UNK     1      18.911  -7.920  37.608  1.00  0.00     0.017 A 
HETATM    9  C7  UNK     1      18.611  -6.557  37.506  1.00  0.00     0.030 A 
HETATM   10  C8  UNK     1      21.864 -10.145  37.181  1.00  0.00     0.099 A 
HETATM   11  C10 UNK     1      22.899  -9.167  36.805  1.00  0.00     0.289 A 
ENDROOT
BRANCH   6  12
HETATM   12  N1  UNK     1      19.294  -4.285  37.049  1.00  0.00    -0.320 N 
HETATM   13  C11 UNK     1      19.704  -3.429  36.033  1.00  0.00     0.296 C 
HETATM   14  O3  UNK     1      20.394  -3.696  35.055  1.00  0.00    -0.264 OA
HETATM   15  H5  UNK     1      18.716  -3.899  37.791  1.00  0.00     0.169 HD
BRANCH  13  16
HETATM   16  C12 UNK     1      19.204  -2.035  36.163  1.00  0.00     0.256 A 
HETATM   17  N3  UNK     1      18.372  -1.741  37.120  1.00  0.00    -0.126 NA
HETATM   18  N2  UNK     1      18.182  -0.424  36.873  1.00  0.00    -0.069 N 
HETATM   19  C13 UNK     1      18.939  -0.045  35.761  1.00  0.00     0.751 A 
HETATM   20  C14 UNK     1      17.385   0.488  37.555  1.00  0.00     0.139 A 
HETATM   21  N4  UNK     1      19.596  -1.094  35.309  1.00  0.00    -0.034 NA
HETATM   22  N5  UNK     1      18.918   1.242  35.306  1.00  0.00    -0.073 NA
HETATM   23  C16 UNK     1      18.165   2.070  35.965  1.00  0.00     0.138 A 
HETATM   24  C15 UNK     1      17.330   1.761  37.154  1.00  0.00     0.040 A 
ENDBRANCH  13  16
ENDBRANCH   6  12
BRANCH   5  25
HETATM   25  C9  UNK     1      19.576 -10.837  37.822  1.00  0.00     0.418 C 
HETATM   26  F1  UNK     1      20.158 -12.038  38.010  1.00  0.00    -0.166 F 
HETATM   27  F2  UNK     1      18.946 -10.497  38.964  1.00  0.00    -0.166 F 
HETATM   28  F3  UNK     1      18.644 -10.973  36.858  1.00  0.00    -0.166 F 
ENDBRANCH   5  25
TORSDOF 3
ENDMDL
MODEL 5
REMARK VINA RESULT:      -9.4      5.406      9.604
REMARK  3 active torsions:
REMARK  status: ('A' for Active; 'I' for Inactive)
REMARK       I    between atoms: C11_22  and  N1_7 
REMARK    1  A    between atoms: C4_15  and  N1_7 
REMARK    2  A    between atoms: C3_14  and  C9_20 
REMARK    3  A    between atoms: C11_22  and  C12_23 
ROOT
HETATM    1  O1  UNK     1      18.262   2.539  34.025  1.00  0.00    -0.275 OA
HETATM    2  O2  UNK     1      17.846   4.772  33.761  1.00  0.00    -0.260 OA
HETATM    3  C1  UNK     1      18.654   1.154  32.051  1.00  0.00     0.013 A 
HETATM    4  C2  UNK     1      18.540   1.290  33.435  1.00  0.00     0.092 A 
HETATM    5  C3  UNK     1      18.475   2.347  31.211  1.00  0.00     0.066 A 
HETATM    6  C4  UNK     1      18.974  -1.049  33.781  1.00  0.00     0.037 A 
HETATM    7  C5  UNK     1      18.697   0.209  34.306  1.00  0.00     0.067 A 
HETATM    8  C6  UNK     1      18.933  -0.121  31.543  1.00  0.00     0.017 A 
HETATM    9  C7  UNK     1      19.092  -1.214  32.402  1.00  0.00     0.030 A 
HETATM   10  C8  UNK     1      18.210   3.522  31.799  1.00  0.00     0.099 A 
HETATM   11  C10 UNK     1      18.088   3.680  33.258  1.00  0.00     0.289 A 
ENDROOT
BRANCH   6  12
HETATM   12  N1  UNK     1      19.133  -2.143  34.632  1.00  0.00    -0.320 N 
HETATM   13  C11 UNK     1      20.319  -2.538  35.239  1.00  0.00     0.296 C 
HETATM   14  O3  UNK     1      21.425  -2.015  35.147  1.00  0.00    -0.264 OA
HETATM   15  H5  UNK     1      18.297  -2.691  34.821  1.00  0.00     0.169 HD
BRANCH  13  16
HETATM   16  C12 UNK     1      20.193  -3.726  36.125  1.00  0.00     0.256 A 
HETATM   17  N3  UNK     1      19.168  -4.518  35.989  1.00  0.00    -0.126 NA
HETATM   18  N2  UNK     1      19.439  -5.425  36.957  1.00  0.00    -0.069 N 
HETATM   19  C13 UNK     1      20.633  -5.079  37.596  1.00  0.00     0.751 A 
HETATM   20  C14 UNK     1      18.713  -6.548  37.330  1.00  0.00     0.139 A 
HETATM   21  N4  UNK     1      21.112  -3.979  37.051  1.00  0.00    -0.034 NA
HETATM   22  N5  UNK     1      21.125  -5.841  38.617  1.00  0.00    -0.073 NA
HETATM   23  C16 UNK     1      20.424  -6.885  38.941  1.00  0.00     0.138 A 
HETATM   24  C15 UNK     1      19.150  -7.330  38.321  1.00  0.00     0.040 A 
ENDBRANCH  13  16
ENDBRANCH   6  12
BRANCH   5  25
HETATM   25  C9  UNK     1      18.589   2.235  29.719  1.00  0.00     0.418 C 
HETATM   26  F1  UNK     1      18.618   3.456  29.148  1.00  0.00    -0.166 F 
HETATM   27  F2  UNK     1      19.718   1.586  29.369  1.00  0.00    -0.166 F 
HETATM   28  F3  UNK     1      17.544   1.559  29.203  1.00  0.00    -0.166 F 
ENDBRANCH   5  25
TORSDOF 3
ENDMDL
MODEL 6
REMARK VINA RESULT:      -9.2     16.075     18.204
REMARK  3 active torsions:
REMARK  status: ('A' for Active; 'I' for Inactive)
REMARK       I    between atoms: C11_22  and  N1_7 
REMARK    1  A    between atoms: C4_15  and  N1_7 
REMARK    2  A    between atoms: C3_14  and  C9_20 
REMARK    3  A    between atoms: C11_22  and  C12_23 
ROOT
HETATM    1  O1  UNK     1      21.296  -6.438  14.234  1.00  0.00    -0.275 OA
HETATM    2  O2  UNK     1      22.085  -8.485  13.586  1.00  0.00    -0.260 OA
HETATM    3  C1  UNK     1      19.766  -5.228  12.764  1.00  0.00     0.013 A 
HETATM    4  C2  UNK     1      20.496  -5.314  13.950  1.00  0.00     0.092 A 
HETATM    5  C3  UNK     1      19.847  -6.339  11.806  1.00  0.00     0.066 A 
HETATM    6  C4  UNK     1      19.702  -3.169  14.690  1.00  0.00     0.037 A 
HETATM    7  C5  UNK     1      20.475  -4.304  14.914  1.00  0.00     0.067 A 
HETATM    8  C6  UNK     1      18.994  -4.077  12.557  1.00  0.00     0.017 A 
HETATM    9  C7  UNK     1      18.963  -3.056  13.513  1.00  0.00     0.030 A 
HETATM   10  C8  UNK     1      20.616  -7.396  12.102  1.00  0.00     0.099 A 
HETATM   11  C10 UNK     1      21.392  -7.502  13.349  1.00  0.00     0.289 A 
ENDROOT
BRANCH   6  12
HETATM   12  N1  UNK     1      19.667  -2.148  15.639  1.00  0.00    -0.320 N 
HETATM   13  C11 UNK     1      18.582  -1.818  16.443  1.00  0.00     0.296 C 
HETATM   14  O3  UNK     1      17.476  -2.347  16.472  1.00  0.00    -0.264 OA
HETATM   15  H5  UNK     1      20.520  -1.603  15.746  1.00  0.00     0.169 HD
BRANCH  13  16
HETATM   16  C12 UNK     1      18.834  -0.701  17.391  1.00  0.00     0.256 A 
HETATM   17  N3  UNK     1      18.951  -0.956  18.663  1.00  0.00    -0.126 NA
HETATM   18  N2  UNK     1      19.160   0.294  19.137  1.00  0.00    -0.069 N 
HETATM   19  C13 UNK     1      19.147   1.203  18.076  1.00  0.00     0.751 A 
HETATM   20  C14 UNK     1      19.363   0.709  20.448  1.00  0.00     0.139 A 
HETATM   21  N4  UNK     1      18.936   0.550  16.951  1.00  0.00    -0.034 NA
HETATM   22  N5  UNK     1      19.335   2.538  18.295  1.00  0.00    -0.073 NA
HETATM   23  C16 UNK     1      19.524   2.893  19.530  1.00  0.00     0.138 A 
HETATM   24  C15 UNK     1      19.554   2.003  20.719  1.00  0.00     0.040 A 
ENDBRANCH  13  16
ENDBRANCH   6  12
BRANCH   5  25
HETATM   25  C9  UNK     1      19.075  -6.277  10.521  1.00  0.00     0.418 C 
HETATM   26  F1  UNK     1      19.365  -5.150   9.841  1.00  0.00    -0.166 F 
HETATM   27  F2  UNK     1      19.371  -7.328   9.730  1.00  0.00    -0.166 F 
HETATM   28  F3  UNK     1      17.747  -6.293  10.753  1.00  0.00    -0.166 F 
ENDBRANCH   5  25
TORSDOF 3
ENDMDL
MODEL 7
REMARK VINA RESULT:      -9.2      7.821     12.346
REMARK  3 active torsions:
REMARK  status: ('A' for Active; 'I' for Inactive)
REMARK       I    between atoms: C11_22  and  N1_7 
REMARK    1  A    between atoms: C4_15  and  N1_7 
REMARK    2  A    between atoms: C3_14  and  C9_20 
REMARK    3  A    between atoms: C11_22  and  C12_23 
ROOT
HETATM    1  O1  UNK     1      19.037  -0.573  33.825  1.00  0.00    -0.275 OA
HETATM    2  O2  UNK     1      18.449   1.315  32.677  1.00  0.00    -0.260 OA
HETATM    3  C1  UNK     1      18.433  -0.775  36.183  1.00  0.00     0.013 A 
HETATM    4  C2  UNK     1      19.032  -1.294  35.036  1.00  0.00     0.092 A 
HETATM    5  C3  UNK     1      17.803   0.551  36.109  1.00  0.00     0.066 A 
HETATM    6  C4  UNK     1      19.679  -3.305  36.185  1.00  0.00     0.037 A 
HETATM    7  C5  UNK     1      19.652  -2.546  35.019  1.00  0.00     0.067 A 
HETATM    8  C6  UNK     1      18.471  -1.555  37.347  1.00  0.00     0.017 A 
HETATM    9  C7  UNK     1      19.088  -2.810  37.347  1.00  0.00     0.030 A 
HETATM   10  C8  UNK     1      17.823   1.215  34.945  1.00  0.00     0.099 A 
HETATM   11  C10 UNK     1      18.451   0.679  33.725  1.00  0.00     0.289 A 
ENDROOT
BRANCH   6  12
HETATM   12  N1  UNK     1      20.293  -4.557  36.191  1.00  0.00    -0.320 N 
HETATM   13  C11 UNK     1      19.646  -5.783  36.295  1.00  0.00     0.296 C 
HETATM   14  O3  UNK     1      18.443  -5.994  36.399  1.00  0.00    -0.264 OA
HETATM   15  H5  UNK     1      21.307  -4.560  36.108  1.00  0.00     0.169 HD
BRANCH  13  16
HETATM   16  C12 UNK     1      20.549  -6.962  36.244  1.00  0.00     0.256 A 
HETATM   17  N3  UNK     1      20.258  -7.957  35.455  1.00  0.00    -0.126 NA
HETATM   18  N2  UNK     1      21.300  -8.781  35.717  1.00  0.00    -0.069 N 
HETATM   19  C13 UNK     1      22.138  -8.184  36.663  1.00  0.00     0.751 A 
HETATM   20  C14 UNK     1      21.579 -10.033  35.184  1.00  0.00     0.139 A 
HETATM   21  N4  UNK     1      21.644  -7.009  36.998  1.00  0.00    -0.034 NA
HETATM   22  N5  UNK     1      23.265  -8.820  37.098  1.00  0.00    -0.073 NA
HETATM   23  C16 UNK     1      23.499  -9.988  36.581  1.00  0.00     0.138 A 
HETATM   24  C15 UNK     1      22.670 -10.698  35.573  1.00  0.00     0.040 A 
ENDBRANCH  13  16
ENDBRANCH   6  12
BRANCH   5  25
HETATM   25  C9  UNK     1      17.150   1.139  37.326  1.00  0.00     0.418 C 
HETATM   26  F1  UNK     1      17.974   1.072  38.391  1.00  0.00    -0.166 F 
HETATM   27  F2  UNK     1      16.834   2.433  37.125  1.00  0.00    -0.166 F 
HETATM   28  F3  UNK     1      16.017   0.477  37.635  1.00  0.00    -0.166 F 
ENDBRANCH   5  25
TORSDOF 3
ENDMDL
MODEL 8
REMARK VINA RESULT:      -9.2     16.137     18.280
REMARK  3 active torsions:
REMARK  status: ('A' for Active; 'I' for Inactive)
REMARK       I    between atoms: C11_22  and  N1_7 
REMARK    1  A    between atoms: C4_15  and  N1_7 
REMARK    2  A    between atoms: C3_14  and  C9_20 
REMARK    3  A    between atoms: C11_22  and  C12_23 
ROOT
HETATM    1  O1  UNK     1      18.666  -3.605  11.312  1.00  0.00    -0.275 OA
HETATM    2  O2  UNK     1      18.279  -4.279   9.161  1.00  0.00    -0.260 OA
HETATM    3  C1  UNK     1      19.287  -5.267  12.990  1.00  0.00     0.013 A 
HETATM    4  C2  UNK     1      19.013  -3.946  12.634  1.00  0.00     0.092 A 
HETATM    5  C3  UNK     1      19.204  -6.307  11.955  1.00  0.00     0.066 A 
HETATM    6  C4  UNK     1      19.408  -3.173  14.876  1.00  0.00     0.037 A 
HETATM    7  C5  UNK     1      19.070  -2.898  13.555  1.00  0.00     0.067 A 
HETATM    8  C6  UNK     1      19.626  -5.524  14.326  1.00  0.00     0.017 A 
HETATM    9  C7  UNK     1      19.686  -4.484  15.260  1.00  0.00     0.030 A 
HETATM   10  C8  UNK     1      18.871  -5.954  10.706  1.00  0.00     0.099 A 
HETATM   11  C10 UNK     1      18.580  -4.564  10.314  1.00  0.00     0.289 A 
ENDROOT
BRANCH   6  12
HETATM   12  N1  UNK     1      19.470  -2.142  15.812  1.00  0.00    -0.320 N 
HETATM   13  C11 UNK     1      18.410  -1.670  16.577  1.00  0.00     0.296 C 
HETATM   14  O3  UNK     1      17.247  -2.060  16.577  1.00  0.00    -0.264 OA
HETATM   15  H5  UNK     1      20.380  -1.705  15.940  1.00  0.00     0.169 HD
BRANCH  13  16
HETATM   16  C12 UNK     1      18.768  -0.579  17.521  1.00  0.00     0.256 A 
HETATM   17  N3  UNK     1      18.911  -0.850  18.787  1.00  0.00    -0.126 NA
HETATM   18  N2  UNK     1      19.219   0.380  19.260  1.00  0.00    -0.069 N 
HETATM   19  C13 UNK     1      19.231   1.295  18.204  1.00  0.00     0.751 A 
HETATM   20  C14 UNK     1      19.494   0.771  20.564  1.00  0.00     0.139 A 
HETATM   21  N4  UNK     1      18.939   0.665  17.084  1.00  0.00    -0.034 NA
HETATM   22  N5  UNK     1      19.516   2.613  18.422  1.00  0.00    -0.073 NA
HETATM   23  C16 UNK     1      19.769   2.947  19.651  1.00  0.00     0.138 A 
HETATM   24  C15 UNK     1      19.781   2.048  20.834  1.00  0.00     0.040 A 
ENDBRANCH  13  16
ENDBRANCH   6  12
BRANCH   5  25
HETATM   25  C9  UNK     1      19.492  -7.737  12.306  1.00  0.00     0.418 C 
HETATM   26  F1  UNK     1      20.643  -7.838  13.001  1.00  0.00    -0.166 F 
HETATM   27  F2  UNK     1      18.503  -8.256  13.061  1.00  0.00    -0.166 F 
HETATM   28  F3  UNK     1      19.608  -8.494  11.197  1.00  0.00    -0.166 F 
ENDBRANCH   5  25
TORSDOF 3
ENDMDL
MODEL 9
REMARK VINA RESULT:      -9.1      6.017      9.992
REMARK  3 active torsions:
REMARK  status: ('A' for Active; 'I' for Inactive)
REMARK       I    between atoms: C11_22  and  N1_7 
REMARK    1  A    between atoms: C4_15  and  N1_7 
REMARK    2  A    between atoms: C3_14  and  C9_20 
REMARK    3  A    between atoms: C11_22  and  C12_23 
ROOT
HETATM    1  O1  UNK     1      20.457  -1.272  30.246  1.00  0.00    -0.275 OA
HETATM    2  O2  UNK     1      20.858  -0.502  28.131  1.00  0.00    -0.260 OA
HETATM    3  C1  UNK     1      19.231   0.139  31.819  1.00  0.00     0.013 A 
HETATM    4  C2  UNK     1      19.896  -1.051  31.520  1.00  0.00     0.092 A 
HETATM    5  C3  UNK     1      19.126   1.168  30.775  1.00  0.00     0.066 A 
HETATM    6  C4  UNK     1      19.507  -1.919  33.727  1.00  0.00     0.037 A 
HETATM    7  C5  UNK     1      20.041  -2.080  32.453  1.00  0.00     0.067 A 
HETATM    8  C6  UNK     1      18.701   0.281  33.108  1.00  0.00     0.017 A 
HETATM    9  C7  UNK     1      18.837  -0.741  34.054  1.00  0.00     0.030 A 
HETATM   10  C8  UNK     1      19.669   0.930  29.573  1.00  0.00     0.099 A 
HETATM   11  C10 UNK     1      20.374  -0.320  29.242  1.00  0.00     0.289 A 
ENDROOT
BRANCH   6  12
HETATM   12  N1  UNK     1      19.640  -2.934  34.675  1.00  0.00    -0.320 N 
HETATM   13  C11 UNK     1      20.577  -2.974  35.701  1.00  0.00     0.296 C 
HETATM   14  O3  UNK     1      21.443  -2.147  35.964  1.00  0.00    -0.264 OA
HETATM   15  H5  UNK     1      18.983  -3.708  34.600  1.00  0.00     0.169 HD
BRANCH  13  16
HETATM   16  C12 UNK     1      20.470  -4.164  36.586  1.00  0.00     0.256 A 
HETATM   17  N3  UNK     1      19.407  -4.914  36.525  1.00  0.00    -0.126 NA
HETATM   18  N2  UNK     1      19.715  -5.839  37.464  1.00  0.00    -0.069 N 
HETATM   19  C13 UNK     1      20.966  -5.546  38.013  1.00  0.00     0.751 A 
HETATM   20  C14 UNK     1      18.974  -6.936  37.884  1.00  0.00     0.139 A 
HETATM   21  N4  UNK     1      21.446  -4.461  37.439  1.00  0.00    -0.034 NA
HETATM   22  N5  UNK     1      21.504  -6.336  38.988  1.00  0.00    -0.073 NA
HETATM   23  C16 UNK     1      20.789  -7.354  39.359  1.00  0.00     0.138 A 
HETATM   24  C15 UNK     1      19.454  -7.743  38.835  1.00  0.00     0.040 A 
ENDBRANCH  13  16
ENDBRANCH   6  12
BRANCH   5  25
HETATM   25  C9  UNK     1      18.417   2.458  31.065  1.00  0.00     0.418 C 
HETATM   26  F1  UNK     1      19.188   3.513  30.731  1.00  0.00    -0.166 F 
HETATM   27  F2  UNK     1      17.268   2.545  30.366  1.00  0.00    -0.166 F 
HETATM   28  F3  UNK     1      18.117   2.561  32.374  1.00  0.00    -0.166 F 
ENDBRANCH   5  25
TORSDOF 3
ENDMDL
MODEL 10
REMARK VINA RESULT:      -9.1      5.048      9.506
REMARK  3 active torsions:
REMARK  status: ('A' for Active; 'I' for Inactive)
REMARK       I    between atoms: C11_22  and  N1_7 
REMARK    1  A    between atoms: C4_15  and  N1_7 
REMARK    2  A    between atoms: C3_14  and  C9_20 
REMARK    3  A    between atoms: C11_22  and  C12_23 
ROOT
HETATM    1  O1  UNK     1      15.439   7.763  32.633  1.00  0.00    -0.275 OA
HETATM    2  O2  UNK     1      13.862   9.334  33.152  1.00  0.00    -0.260 OA
HETATM    3  C1  UNK     1      17.792   8.235  33.090  1.00  0.00     0.013 A 
HETATM    4  C2  UNK     1      16.796   7.383  32.611  1.00  0.00     0.092 A 
HETATM    5  C3  UNK     1      17.399   9.547  33.622  1.00  0.00     0.066 A 
HETATM    6  C4  UNK     1      18.405   5.689  32.043  1.00  0.00     0.037 A 
HETATM    7  C5  UNK     1      17.083   6.119  32.090  1.00  0.00     0.067 A 
HETATM    8  C6  UNK     1      19.117   7.783  33.034  1.00  0.00     0.017 A 
HETATM    9  C7  UNK     1      19.421   6.520  32.515  1.00  0.00     0.030 A 
HETATM   10  C8  UNK     1      16.101   9.882  33.630  1.00  0.00     0.099 A 
HETATM   11  C10 UNK     1      15.039   8.994  33.128  1.00  0.00     0.289 A 
ENDROOT
BRANCH   6  12
HETATM   12  N1  UNK     1      18.714   4.431  31.526  1.00  0.00    -0.320 N 
HETATM   13  C11 UNK     1      18.338   3.210  32.073  1.00  0.00     0.296 C 
HETATM   14  O3  UNK     1      17.680   3.008  33.088  1.00  0.00    -0.264 OA
HETATM   15  H5  UNK     1      19.261   4.419  30.669  1.00  0.00     0.169 HD
BRANCH  13  16
HETATM   16  C12 UNK     1      18.780   2.024  31.293  1.00  0.00     0.256 A 
HETATM   17  N3  UNK     1      19.109   0.932  31.922  1.00  0.00    -0.126 NA
HETATM   18  N2  UNK     1      19.438   0.143  30.872  1.00  0.00    -0.069 N 
HETATM   19  C13 UNK     1      19.270   0.858  29.683  1.00  0.00     0.751 A 
HETATM   20  C14 UNK     1      19.881  -1.174  30.873  1.00  0.00     0.139 A 
HETATM   21  N4  UNK     1      18.845   2.073  29.966  1.00  0.00    -0.034 NA
HETATM   22  N5  UNK     1      19.540   0.280  28.475  1.00  0.00    -0.073 NA
HETATM   23  C16 UNK     1      19.951  -0.951  28.509  1.00  0.00     0.138 A 
HETATM   24  C15 UNK     1      20.157  -1.788  29.719  1.00  0.00     0.040 A 
ENDBRANCH  13  16
ENDBRANCH   6  12
BRANCH   5  25
HETATM   25  C9  UNK     1      18.446  10.487  34.145  1.00  0.00     0.418 C 
HETATM   26  F1  UNK     1      19.358   9.825  34.885  1.00  0.00    -0.166 F 
HETATM   27  F2  UNK     1      19.095  11.096  33.133  1.00  0.00    -0.166 F 
HETATM   28  F3  UNK     1      17.895  11.442  34.920  1.00  0.00    -0.166 F 
ENDBRANCH   5  25
TORSDOF 3
ENDMDL
