MODEL 1
REMARK VINA RESULT:      -8.2      0.000      0.000
REMARK  5 active torsions:
REMARK  status: ('A' for Active; 'I' for Inactive)
REMARK    1  A    between atoms: C12_20  and  O3_3 
REMARK    2  A    between atoms: C13_21  and  O4_4 
REMARK    3  A    between atoms: C14_22  and  O6_6 
REMARK    4  A    between atoms: C7_15  and  N1_7 
REMARK    5  A    between atoms: C1_9  and  C3_11 
ROOT
HETATM    1  O1  UNK     1      32.173  -4.501  36.109  1.00  0.00    -0.291 OA
HETATM    2  O2  UNK     1      33.545  -8.449  36.280  1.00  0.00    -0.274 OA
HETATM    3  O5  UNK     1      32.168  -8.855  38.052  1.00  0.00    -0.259 OA
HETATM    4  N2  UNK     1      29.254  -3.662  39.848  1.00  0.00    -0.191 NA
HETATM    5  C1  UNK     1      30.977  -6.233  38.061  1.00  0.00     0.109 C 
HETATM    6  C2  UNK     1      32.067  -6.676  37.103  1.00  0.00     0.066 A 
HETATM    7  C4  UNK     1      32.578  -5.820  36.206  1.00  0.00     0.104 A 
HETATM    8  C5  UNK     1      30.752  -4.725  38.021  1.00  0.00     0.086 C 
HETATM    9  C6  UNK     1      33.605  -6.243  35.258  1.00  0.00     0.033 A 
HETATM   10  C7  UNK     1      31.332  -3.950  37.075  1.00  0.00     0.159 C 
HETATM   11  C8  UNK     1      32.577  -8.069  37.203  1.00  0.00     0.298 A 
HETATM   12  C11 UNK     1      34.058  -7.557  35.320  1.00  0.00     0.092 A 
HETATM   13  C15 UNK     1      34.158  -5.399  34.286  1.00  0.00     0.017 A 
HETATM   14  C16 UNK     1      35.034  -8.048  34.452  1.00  0.00     0.038 A 
HETATM   15  C17 UNK     1      29.924  -4.138  39.030  1.00  0.00     0.100 C 
HETATM   16  C18 UNK     1      35.137  -5.876  33.408  1.00  0.00     0.001 A 
HETATM   17  C19 UNK     1      35.573  -7.199  33.490  1.00  0.00     0.003 A 
ENDROOT
BRANCH   5  18
HETATM   18  C3  UNK     1      29.694  -6.954  37.767  1.00  0.00    -0.039 A 
HETATM   19  C10 UNK     1      29.234  -7.033  36.458  1.00  0.00     0.048 A 
HETATM   20  C12 UNK     1      28.040  -7.701  36.185  1.00  0.00     0.104 A 
HETATM   21  C14 UNK     1      27.315  -8.286  37.222  1.00  0.00     0.135 A 
HETATM   22  C13 UNK     1      27.783  -8.201  38.534  1.00  0.00     0.104 A 
HETATM   23  C9  UNK     1      28.977  -7.533  38.807  1.00  0.00     0.048 A 
BRANCH  20  24
HETATM   24  O3  UNK     1      27.594  -7.774  34.900  1.00  0.00    -0.353 OA
HETATM   25  C20 UNK     1      28.462  -8.384  33.946  1.00  0.00     0.210 C 
ENDBRANCH  20  24
BRANCH  21  26
HETATM   26  O6  UNK     1      26.148  -8.938  36.955  1.00  0.00    -0.351 OA
HETATM   27  C22 UNK     1      26.239 -10.324  36.636  1.00  0.00     0.210 C 
ENDBRANCH  21  26
BRANCH  22  28
HETATM   28  O4  UNK     1      27.084  -8.769  39.556  1.00  0.00    -0.353 OA
HETATM   29  C21 UNK     1      27.619  -9.963  40.123  1.00  0.00     0.210 C 
ENDBRANCH  22  28
ENDBRANCH   5  18
BRANCH  10  30
HETATM   30  N1  UNK     1      31.172  -2.597  36.958  1.00  0.00    -0.379 N 
HETATM   31  H7  UNK     1      31.359  -2.159  36.065  1.00  0.00     0.158 HD
HETATM   32  H8  UNK     1      30.870  -2.038  37.744  1.00  0.00     0.158 HD
ENDBRANCH  10  30
TORSDOF 5
ENDMDL
MODEL 2
REMARK VINA RESULT:      -8.2      0.012      2.250
REMARK  5 active torsions:
REMARK  status: ('A' for Active; 'I' for Inactive)
REMARK    1  A    between atoms: C12_20  and  O3_3 
REMARK    2  A    between atoms: C13_21  and  O4_4 
REMARK    3  A    between atoms: C14_22  and  O6_6 
REMARK    4  A    between atoms: C7_15  and  N1_7 
REMARK    5  A    between atoms: C1_9  and  C3_11 
ROOT
HETATM    1  O1  UNK     1      32.181  -4.507  36.104  1.00  0.00    -0.291 OA
HETATM    2  O2  UNK     1      33.547  -8.457  36.281  1.00  0.00    -0.274 OA
HETATM    3  O5  UNK     1      32.168  -8.858  38.053  1.00  0.00    -0.259 OA
HETATM    4  N2  UNK     1      29.261  -3.659  39.840  1.00  0.00    -0.191 NA
HETATM    5  C1  UNK     1      30.982  -6.234  38.058  1.00  0.00     0.109 C 
HETATM    6  C2  UNK     1      32.071  -6.681  37.100  1.00  0.00     0.066 A 
HETATM    7  C4  UNK     1      32.584  -5.826  36.202  1.00  0.00     0.104 A 
HETATM    8  C5  UNK     1      30.759  -4.726  38.015  1.00  0.00     0.086 C 
HETATM    9  C6  UNK     1      33.610  -6.252  35.256  1.00  0.00     0.033 A 
HETATM   10  C7  UNK     1      31.339  -3.954  37.069  1.00  0.00     0.159 C 
HETATM   11  C8  UNK     1      32.579  -8.074  37.203  1.00  0.00     0.298 A 
HETATM   12  C11 UNK     1      34.062  -7.566  35.320  1.00  0.00     0.092 A 
HETATM   13  C15 UNK     1      34.165  -5.410  34.283  1.00  0.00     0.017 A 
HETATM   14  C16 UNK     1      35.037  -8.060  34.453  1.00  0.00     0.038 A 
HETATM   15  C17 UNK     1      29.931  -4.137  39.023  1.00  0.00     0.100 C 
HETATM   16  C18 UNK     1      35.144  -5.890  33.406  1.00  0.00     0.001 A 
HETATM   17  C19 UNK     1      35.578  -7.213  33.491  1.00  0.00     0.003 A 
ENDROOT
BRANCH   5  18
HETATM   18  C3  UNK     1      29.697  -6.954  37.764  1.00  0.00    -0.039 A 
HETATM   19  C10 UNK     1      28.976  -7.526  38.805  1.00  0.00     0.048 A 
HETATM   20  C12 UNK     1      27.783  -8.196  38.532  1.00  0.00     0.104 A 
HETATM   21  C14 UNK     1      27.320  -8.289  37.221  1.00  0.00     0.135 A 
HETATM   22  C13 UNK     1      28.050  -7.712  36.180  1.00  0.00     0.104 A 
HETATM   23  C9  UNK     1      29.242  -7.042  36.453  1.00  0.00     0.048 A 
BRANCH  20  24
HETATM   24  O3  UNK     1      27.082  -8.756  39.556  1.00  0.00    -0.353 OA
HETATM   25  C20 UNK     1      27.609  -9.954  40.125  1.00  0.00     0.210 C 
ENDBRANCH  20  24
BRANCH  21  26
HETATM   26  O6  UNK     1      26.155  -8.945  36.953  1.00  0.00    -0.351 OA
HETATM   27  C22 UNK     1      26.250 -10.332  36.638  1.00  0.00     0.210 C 
ENDBRANCH  21  26
BRANCH  22  28
HETATM   28  O4  UNK     1      27.607  -7.796  34.895  1.00  0.00    -0.353 OA
HETATM   29  C21 UNK     1      28.481  -8.404  33.946  1.00  0.00     0.210 C 
ENDBRANCH  22  28
ENDBRANCH   5  18
BRANCH  10  30
HETATM   30  N1  UNK     1      31.182  -2.601  36.949  1.00  0.00    -0.379 N 
HETATM   31  H7  UNK     1      30.653  -2.106  37.657  1.00  0.00     0.158 HD
HETATM   32  H8  UNK     1      31.587  -2.095  36.172  1.00  0.00     0.158 HD
ENDBRANCH  10  30
TORSDOF 5
ENDMDL
MODEL 3
REMARK VINA RESULT:      -7.6     15.953     18.328
REMARK  5 active torsions:
REMARK  status: ('A' for Active; 'I' for Inactive)
REMARK    1  A    between atoms: C12_20  and  O3_3 
REMARK    2  A    between atoms: C13_21  and  O4_4 
REMARK    3  A    between atoms: C14_22  and  O6_6 
REMARK    4  A    between atoms: C7_15  and  N1_7 
REMARK    5  A    between atoms: C1_9  and  C3_11 
ROOT
HETATM    1  O1  UNK     1      17.579   2.173  32.612  1.00  0.00    -0.291 OA
HETATM    2  O2  UNK     1      19.195   2.341  36.467  1.00  0.00    -0.274 OA
HETATM    3  O5  UNK     1      20.283   4.273  35.930  1.00  0.00    -0.259 OA
HETATM    4  N2  UNK     1      19.484   5.690  29.927  1.00  0.00    -0.191 NA
HETATM    5  C1  UNK     1      19.203   4.447  33.267  1.00  0.00     0.109 C 
HETATM    6  C2  UNK     1      18.907   3.321  34.239  1.00  0.00     0.066 A 
HETATM    7  C4  UNK     1      18.132   2.289  33.874  1.00  0.00     0.104 A 
HETATM    8  C5  UNK     1      18.731   4.127  31.852  1.00  0.00     0.086 C 
HETATM    9  C6  UNK     1      17.815   1.215  34.810  1.00  0.00     0.033 A 
HETATM   10  C7  UNK     1      17.959   3.047  31.594  1.00  0.00     0.159 C 
HETATM   11  C8  UNK     1      19.523   3.370  35.591  1.00  0.00     0.298 A 
HETATM   12  C11 UNK     1      18.356   1.275  36.091  1.00  0.00     0.092 A 
HETATM   13  C15 UNK     1      16.994   0.126  34.492  1.00  0.00     0.017 A 
HETATM   14  C16 UNK     1      18.103   0.295  37.051  1.00  0.00     0.038 A 
HETATM   15  C17 UNK     1      19.147   4.991  30.789  1.00  0.00     0.100 C 
HETATM   16  C18 UNK     1      16.730  -0.866  35.443  1.00  0.00     0.001 A 
HETATM   17  C19 UNK     1      17.284  -0.781  36.721  1.00  0.00     0.003 A 
ENDROOT
BRANCH   5  18
HETATM   18  C3  UNK     1      18.579   5.728  33.741  1.00  0.00    -0.039 A 
HETATM   19  C10 UNK     1      17.194   5.849  33.768  1.00  0.00     0.048 A 
HETATM   20  C12 UNK     1      16.614   7.039  34.206  1.00  0.00     0.104 A 
HETATM   21  C14 UNK     1      17.422   8.100  34.615  1.00  0.00     0.135 A 
HETATM   22  C13 UNK     1      18.811   7.971  34.584  1.00  0.00     0.104 A 
HETATM   23  C9  UNK     1      19.391   6.780  34.146  1.00  0.00     0.048 A 
BRANCH  20  24
HETATM   24  O3  UNK     1      15.257   7.153  34.229  1.00  0.00    -0.353 OA
HETATM   25  C20 UNK     1      14.606   7.394  32.984  1.00  0.00     0.210 C 
ENDBRANCH  20  24
BRANCH  21  26
HETATM   26  O6  UNK     1      16.855   9.264  35.043  1.00  0.00    -0.351 OA
HETATM   27  C22 UNK     1      16.676  10.292  34.072  1.00  0.00     0.210 C 
ENDBRANCH  21  26
BRANCH  22  28
HETATM   28  O4  UNK     1      19.611   8.999  34.982  1.00  0.00    -0.353 OA
HETATM   29  C21 UNK     1      20.749   9.287  34.172  1.00  0.00     0.210 C 
ENDBRANCH  22  28
ENDBRANCH   5  18
BRANCH  10  30
HETATM   30  N1  UNK     1      17.482   2.695  30.361  1.00  0.00    -0.379 N 
HETATM   31  H7  UNK     1      16.553   2.300  30.291  1.00  0.00     0.158 HD
HETATM   32  H8  UNK     1      18.041   2.827  29.529  1.00  0.00     0.158 HD
ENDBRANCH  10  30
TORSDOF 5
ENDMDL
MODEL 4
REMARK VINA RESULT:      -7.6     15.952     18.324
REMARK  5 active torsions:
REMARK  status: ('A' for Active; 'I' for Inactive)
REMARK    1  A    between atoms: C12_20  and  O3_3 
REMARK    2  A    between atoms: C13_21  and  O4_4 
REMARK    3  A    between atoms: C14_22  and  O6_6 
REMARK    4  A    between atoms: C7_15  and  N1_7 
REMARK    5  A    between atoms: C1_9  and  C3_11 
ROOT
HETATM    1  O1  UNK     1      17.579   2.172  32.613  1.00  0.00    -0.291 OA
HETATM    2  O2  UNK     1      19.192   2.342  36.468  1.00  0.00    -0.274 OA
HETATM    3  O5  UNK     1      20.282   4.272  35.931  1.00  0.00    -0.259 OA
HETATM    4  N2  UNK     1      19.488   5.685  29.926  1.00  0.00    -0.191 NA
HETATM    5  C1  UNK     1      19.204   4.446  33.266  1.00  0.00     0.109 C 
HETATM    6  C2  UNK     1      18.907   3.320  34.240  1.00  0.00     0.066 A 
HETATM    7  C4  UNK     1      18.131   2.289  33.875  1.00  0.00     0.104 A 
HETATM    8  C5  UNK     1      18.733   4.124  31.852  1.00  0.00     0.086 C 
HETATM    9  C6  UNK     1      17.812   1.215  34.812  1.00  0.00     0.033 A 
HETATM   10  C7  UNK     1      17.960   3.044  31.594  1.00  0.00     0.159 C 
HETATM   11  C8  UNK     1      19.522   3.370  35.592  1.00  0.00     0.298 A 
HETATM   12  C11 UNK     1      18.353   1.277  36.093  1.00  0.00     0.092 A 
HETATM   13  C15 UNK     1      16.991   0.127  34.494  1.00  0.00     0.017 A 
HETATM   14  C16 UNK     1      18.099   0.297  37.054  1.00  0.00     0.038 A 
HETATM   15  C17 UNK     1      19.150   4.987  30.788  1.00  0.00     0.100 C 
HETATM   16  C18 UNK     1      16.726  -0.864  35.446  1.00  0.00     0.001 A 
HETATM   17  C19 UNK     1      17.279  -0.778  36.724  1.00  0.00     0.003 A 
ENDROOT
BRANCH   5  18
HETATM   18  C3  UNK     1      18.580   5.727  33.739  1.00  0.00    -0.039 A 
HETATM   19  C10 UNK     1      19.394   6.778  34.146  1.00  0.00     0.048 A 
HETATM   20  C12 UNK     1      18.814   7.968  34.587  1.00  0.00     0.104 A 
HETATM   21  C14 UNK     1      17.427   8.099  34.617  1.00  0.00     0.135 A 
HETATM   22  C13 UNK     1      16.617   7.039  34.206  1.00  0.00     0.104 A 
HETATM   23  C9  UNK     1      17.196   5.849  33.765  1.00  0.00     0.048 A 
BRANCH  20  24
HETATM   24  O3  UNK     1      19.616   8.993  34.987  1.00  0.00    -0.353 OA
HETATM   25  C20 UNK     1      20.747   9.288  34.170  1.00  0.00     0.210 C 
ENDBRANCH  20  24
BRANCH  21  26
HETATM   26  O6  UNK     1      16.860   9.262  35.048  1.00  0.00    -0.351 OA
HETATM   27  C22 UNK     1      16.685  10.295  34.082  1.00  0.00     0.210 C 
ENDBRANCH  21  26
BRANCH  22  28
HETATM   28  O4  UNK     1      15.260   7.156  34.230  1.00  0.00    -0.353 OA
HETATM   29  C21 UNK     1      14.608   7.399  32.984  1.00  0.00     0.210 C 
ENDBRANCH  22  28
ENDBRANCH   5  18
BRANCH  10  30
HETATM   30  N1  UNK     1      17.483   2.692  30.362  1.00  0.00    -0.379 N 
HETATM   31  H7  UNK     1      17.434   3.397  29.637  1.00  0.00     0.158 HD
HETATM   32  H8  UNK     1      17.186   1.744  30.169  1.00  0.00     0.158 HD
ENDBRANCH  10  30
TORSDOF 5
ENDMDL
MODEL 5
REMARK VINA RESULT:      -7.4      3.876      7.120
REMARK  5 active torsions:
REMARK  status: ('A' for Active; 'I' for Inactive)
REMARK    1  A    between atoms: C12_20  and  O3_3 
REMARK    2  A    between atoms: C13_21  and  O4_4 
REMARK    3  A    between atoms: C14_22  and  O6_6 
REMARK    4  A    between atoms: C7_15  and  N1_7 
REMARK    5  A    between atoms: C1_9  and  C3_11 
ROOT
HETATM    1  O1  UNK     1      31.188  -8.656  36.323  1.00  0.00    -0.291 OA
HETATM    2  O2  UNK     1      31.678  -4.517  35.963  1.00  0.00    -0.274 OA
HETATM    3  O5  UNK     1      33.086  -4.834  34.197  1.00  0.00    -0.259 OA
HETATM    4  N2  UNK     1      34.153 -10.889  33.253  1.00  0.00    -0.191 NA
HETATM    5  C1  UNK     1      32.816  -7.701  34.161  1.00  0.00     0.109 C 
HETATM    6  C2  UNK     1      32.135  -6.788  35.164  1.00  0.00     0.066 A 
HETATM    7  C4  UNK     1      31.377  -7.298  36.147  1.00  0.00     0.104 A 
HETATM    8  C5  UNK     1      32.722  -9.170  34.561  1.00  0.00     0.086 C 
HETATM    9  C6  UNK     1      30.692  -6.429  37.099  1.00  0.00     0.033 A 
HETATM   10  C7  UNK     1      31.933  -9.573  35.583  1.00  0.00     0.159 C 
HETATM   11  C8  UNK     1      32.352  -5.322  35.051  1.00  0.00     0.298 A 
HETATM   12  C11 UNK     1      30.860  -5.053  36.975  1.00  0.00     0.092 A 
HETATM   13  C15 UNK     1      29.872  -6.904  38.131  1.00  0.00     0.017 A 
HETATM   14  C16 UNK     1      30.240  -4.149  37.838  1.00  0.00     0.038 A 
HETATM   15  C17 UNK     1      33.512 -10.119  33.838  1.00  0.00     0.100 C 
HETATM   16  C18 UNK     1      29.243  -6.010  39.004  1.00  0.00     0.001 A 
HETATM   17  C19 UNK     1      29.427  -4.635  38.858  1.00  0.00     0.003 A 
ENDROOT
BRANCH   5  18
HETATM   18  C3  UNK     1      32.236  -7.501  32.790  1.00  0.00    -0.039 A 
HETATM   19  C10 UNK     1      30.856  -7.473  32.625  1.00  0.00     0.048 A 
HETATM   20  C12 UNK     1      30.318  -7.290  31.352  1.00  0.00     0.104 A 
HETATM   21  C14 UNK     1      31.162  -7.135  30.253  1.00  0.00     0.135 A 
HETATM   22  C13 UNK     1      32.546  -7.165  30.427  1.00  0.00     0.104 A 
HETATM   23  C9  UNK     1      33.085  -7.348  31.701  1.00  0.00     0.048 A 
BRANCH  20  24
HETATM   24  O3  UNK     1      28.965  -7.265  31.196  1.00  0.00    -0.353 OA
HETATM   25  C20 UNK     1      28.287  -8.520  31.215  1.00  0.00     0.210 C 
ENDBRANCH  20  24
BRANCH  21  26
HETATM   26  O6  UNK     1      30.635  -6.957  29.008  1.00  0.00    -0.351 OA
HETATM   27  C22 UNK     1      30.480  -8.120  28.198  1.00  0.00     0.210 C 
ENDBRANCH  21  26
BRANCH  22  28
HETATM   28  O4  UNK     1      33.381  -7.014  29.361  1.00  0.00    -0.353 OA
HETATM   29  C21 UNK     1      34.779  -6.955  29.636  1.00  0.00     0.210 C 
ENDBRANCH  22  28
ENDBRANCH   5  18
BRANCH  10  30
HETATM   30  N1  UNK     1      31.779 -10.867  35.997  1.00  0.00    -0.379 N 
HETATM   31  H7  UNK     1      30.867 -11.299  35.923  1.00  0.00     0.158 HD
HETATM   32  H8  UNK     1      32.560 -11.392  36.369  1.00  0.00     0.158 HD
ENDBRANCH  10  30
TORSDOF 5
ENDMDL
MODEL 6
REMARK VINA RESULT:      -7.4      3.871      6.954
REMARK  5 active torsions:
REMARK  status: ('A' for Active; 'I' for Inactive)
REMARK    1  A    between atoms: C12_20  and  O3_3 
REMARK    2  A    between atoms: C13_21  and  O4_4 
REMARK    3  A    between atoms: C14_22  and  O6_6 
REMARK    4  A    between atoms: C7_15  and  N1_7 
REMARK    5  A    between atoms: C1_9  and  C3_11 
ROOT
HETATM    1  O1  UNK     1      31.160  -8.743  36.344  1.00  0.00    -0.291 OA
HETATM    2  O2  UNK     1      31.578  -4.597  35.985  1.00  0.00    -0.274 OA
HETATM    3  O5  UNK     1      33.002  -4.888  34.228  1.00  0.00    -0.259 OA
HETATM    4  N2  UNK     1      34.183 -10.922  33.291  1.00  0.00    -0.191 NA
HETATM    5  C1  UNK     1      32.783  -7.759  34.191  1.00  0.00     0.109 C 
HETATM    6  C2  UNK     1      32.080  -6.859  35.190  1.00  0.00     0.066 A 
HETATM    7  C4  UNK     1      31.326  -7.382  36.168  1.00  0.00     0.104 A 
HETATM    8  C5  UNK     1      32.713  -9.230  34.590  1.00  0.00     0.086 C 
HETATM    9  C6  UNK     1      30.620  -6.525  37.116  1.00  0.00     0.033 A 
HETATM   10  C7  UNK     1      31.925  -9.647  35.608  1.00  0.00     0.159 C 
HETATM   11  C8  UNK     1      32.272  -5.389  35.078  1.00  0.00     0.298 A 
HETATM   12  C11 UNK     1      30.763  -5.147  36.993  1.00  0.00     0.092 A 
HETATM   13  C15 UNK     1      29.803  -7.015  38.143  1.00  0.00     0.017 A 
HETATM   14  C16 UNK     1      30.123  -4.254  37.853  1.00  0.00     0.038 A 
HETATM   15  C17 UNK     1      33.525 -10.164  33.872  1.00  0.00     0.100 C 
HETATM   16  C18 UNK     1      29.153  -6.132  39.013  1.00  0.00     0.001 A 
HETATM   17  C19 UNK     1      29.312  -4.754  38.867  1.00  0.00     0.003 A 
ENDROOT
BRANCH   5  18
HETATM   18  C3  UNK     1      32.207  -7.570  32.817  1.00  0.00    -0.039 A 
HETATM   19  C10 UNK     1      33.059  -7.374  31.736  1.00  0.00     0.048 A 
HETATM   20  C12 UNK     1      32.524  -7.196  30.460  1.00  0.00     0.104 A 
HETATM   21  C14 UNK     1      31.142  -7.218  30.274  1.00  0.00     0.135 A 
HETATM   22  C13 UNK     1      30.294  -7.415  31.364  1.00  0.00     0.104 A 
HETATM   23  C9  UNK     1      30.829  -7.593  32.640  1.00  0.00     0.048 A 
BRANCH  20  24
HETATM   24  O3  UNK     1      33.363  -7.003  29.405  1.00  0.00    -0.353 OA
HETATM   25  C20 UNK     1      34.761  -6.965  29.686  1.00  0.00     0.210 C 
ENDBRANCH  20  24
BRANCH  21  26
HETATM   26  O6  UNK     1      30.620  -7.044  29.026  1.00  0.00    -0.351 OA
HETATM   27  C22 UNK     1      30.449  -8.212  28.227  1.00  0.00     0.210 C 
ENDBRANCH  21  26
BRANCH  22  28
HETATM   28  O4  UNK     1      28.943  -7.439  31.194  1.00  0.00    -0.353 OA
HETATM   29  C21 UNK     1      28.302  -8.711  31.265  1.00  0.00     0.210 C 
ENDBRANCH  22  28
ENDBRANCH   5  18
BRANCH  10  30
HETATM   30  N1  UNK     1      31.793 -10.944  36.021  1.00  0.00    -0.379 N 
HETATM   31  H7  UNK     1      32.620 -11.453  36.305  1.00  0.00     0.158 HD
HETATM   32  H8  UNK     1      30.886 -11.392  36.050  1.00  0.00     0.158 HD
ENDBRANCH  10  30
TORSDOF 5
ENDMDL
MODEL 7
REMARK VINA RESULT:      -7.4      3.958      7.360
REMARK  5 active torsions:
REMARK  status: ('A' for Active; 'I' for Inactive)
REMARK    1  A    between atoms: C12_20  and  O3_3 
REMARK    2  A    between atoms: C13_21  and  O4_4 
REMARK    3  A    between atoms: C14_22  and  O6_6 
REMARK    4  A    between atoms: C7_15  and  N1_7 
REMARK    5  A    between atoms: C1_9  and  C3_11 
ROOT
HETATM    1  O1  UNK     1      30.763  -5.355  33.737  1.00  0.00    -0.291 OA
HETATM    2  O2  UNK     1      32.028  -8.465  36.231  1.00  0.00    -0.274 OA
HETATM    3  O5  UNK     1      31.867  -9.931  34.492  1.00  0.00    -0.259 OA
HETATM    4  N2  UNK     1      29.515  -7.156  29.447  1.00  0.00    -0.191 NA
HETATM    5  C1  UNK     1      31.100  -7.947  32.551  1.00  0.00     0.109 C 
HETATM    6  C2  UNK     1      31.356  -7.657  34.018  1.00  0.00     0.066 A 
HETATM    7  C4  UNK     1      31.189  -6.420  34.509  1.00  0.00     0.104 A 
HETATM    8  C5  UNK     1      30.437  -6.773  31.838  1.00  0.00     0.086 C 
HETATM    9  C6  UNK     1      31.462  -6.121  35.912  1.00  0.00     0.033 A 
HETATM   10  C7  UNK     1      30.308  -5.566  32.436  1.00  0.00     0.159 C 
HETATM   11  C8  UNK     1      31.763  -8.779  34.903  1.00  0.00     0.298 A 
HETATM   12  C11 UNK     1      31.882  -7.160  36.737  1.00  0.00     0.092 A 
HETATM   13  C15 UNK     1      31.326  -4.845  36.474  1.00  0.00     0.017 A 
HETATM   14  C16 UNK     1      32.168  -6.965  38.089  1.00  0.00     0.038 A 
HETATM   15  C17 UNK     1      29.928  -6.985  30.517  1.00  0.00     0.100 C 
HETATM   16  C18 UNK     1      31.610  -4.633  37.827  1.00  0.00     0.001 A 
HETATM   17  C19 UNK     1      32.031  -5.692  38.633  1.00  0.00     0.003 A 
ENDROOT
BRANCH   5  18
HETATM   18  C3  UNK     1      32.380  -8.315  31.857  1.00  0.00    -0.039 A 
HETATM   19  C10 UNK     1      32.446  -9.488  31.116  1.00  0.00     0.048 A 
HETATM   20  C12 UNK     1      33.636  -9.832  30.472  1.00  0.00     0.104 A 
HETATM   21  C14 UNK     1      34.749  -8.999  30.575  1.00  0.00     0.135 A 
HETATM   22  C13 UNK     1      34.675  -7.823  31.322  1.00  0.00     0.104 A 
HETATM   23  C9  UNK     1      33.485  -7.480  31.965  1.00  0.00     0.048 A 
BRANCH  20  24
HETATM   24  O3  UNK     1      33.696 -10.983  29.748  1.00  0.00    -0.353 OA
HETATM   25  C20 UNK     1      32.804 -12.032  30.123  1.00  0.00     0.210 C 
ENDBRANCH  20  24
BRANCH  21  26
HETATM   26  O6  UNK     1      35.912  -9.335  29.947  1.00  0.00    -0.351 OA
HETATM   27  C22 UNK     1      36.853 -10.103  30.694  1.00  0.00     0.210 C 
ENDBRANCH  21  26
BRANCH  22  28
HETATM   28  O4  UNK     1      35.756  -7.001  31.429  1.00  0.00    -0.353 OA
HETATM   29  C21 UNK     1      36.303  -6.815  32.732  1.00  0.00     0.210 C 
ENDBRANCH  22  28
ENDBRANCH   5  18
BRANCH  10  30
HETATM   30  N1  UNK     1      29.742  -4.460  31.865  1.00  0.00    -0.379 N 
HETATM   31  H7  UNK     1      28.757  -4.281  32.018  1.00  0.00     0.158 HD
HETATM   32  H8  UNK     1      30.291  -3.825  31.302  1.00  0.00     0.158 HD
ENDBRANCH  10  30
TORSDOF 5
ENDMDL
MODEL 8
REMARK VINA RESULT:      -7.4      2.700      4.103
REMARK  5 active torsions:
REMARK  status: ('A' for Active; 'I' for Inactive)
REMARK    1  A    between atoms: C12_20  and  O3_3 
REMARK    2  A    between atoms: C13_21  and  O4_4 
REMARK    3  A    between atoms: C14_22  and  O6_6 
REMARK    4  A    between atoms: C7_15  and  N1_7 
REMARK    5  A    between atoms: C1_9  and  C3_11 
ROOT
HETATM    1  O1  UNK     1      32.460  -7.722  32.727  1.00  0.00    -0.291 OA
HETATM    2  O2  UNK     1      34.873  -5.836  35.577  1.00  0.00    -0.274 OA
HETATM    3  O5  UNK     1      33.080  -4.625  36.298  1.00  0.00    -0.259 OA
HETATM    4  N2  UNK     1      28.083  -5.710  32.758  1.00  0.00    -0.191 NA
HETATM    5  C1  UNK     1      31.193  -5.867  34.513  1.00  0.00     0.109 C 
HETATM    6  C2  UNK     1      32.675  -6.191  34.554  1.00  0.00     0.066 A 
HETATM    7  C4  UNK     1      33.205  -7.076  33.697  1.00  0.00     0.104 A 
HETATM    8  C5  UNK     1      30.506  -6.461  33.288  1.00  0.00     0.086 C 
HETATM    9  C6  UNK     1      34.623  -7.419  33.747  1.00  0.00     0.033 A 
HETATM   10  C7  UNK     1      31.142  -7.339  32.479  1.00  0.00     0.159 C 
HETATM   11  C8  UNK     1      33.529  -5.481  35.542  1.00  0.00     0.298 A 
HETATM   12  C11 UNK     1      35.421  -6.788  34.696  1.00  0.00     0.092 A 
HETATM   13  C15 UNK     1      35.225  -8.351  32.893  1.00  0.00     0.017 A 
HETATM   14  C16 UNK     1      36.784  -7.057  34.817  1.00  0.00     0.038 A 
HETATM   15  C17 UNK     1      29.168  -6.046  32.996  1.00  0.00     0.100 C 
HETATM   16  C18 UNK     1      36.591  -8.633  33.002  1.00  0.00     0.001 A 
HETATM   17  C19 UNK     1      37.369  -7.987  33.963  1.00  0.00     0.003 A 
ENDROOT
BRANCH   5  18
HETATM   18  C3  UNK     1      30.516  -6.344  35.766  1.00  0.00    -0.039 A 
HETATM   19  C10 UNK     1      29.902  -5.424  36.608  1.00  0.00     0.048 A 
HETATM   20  C12 UNK     1      29.275  -5.867  37.773  1.00  0.00     0.104 A 
HETATM   21  C14 UNK     1      29.264  -7.226  38.086  1.00  0.00     0.135 A 
HETATM   22  C13 UNK     1      29.883  -8.143  37.235  1.00  0.00     0.104 A 
HETATM   23  C9  UNK     1      30.510  -7.700  36.070  1.00  0.00     0.048 A 
BRANCH  20  24
HETATM   24  O3  UNK     1      28.677  -4.962  38.595  1.00  0.00    -0.353 OA
HETATM   25  C20 UNK     1      29.528  -4.034  39.266  1.00  0.00     0.210 C 
ENDBRANCH  20  24
BRANCH  21  26
HETATM   26  O6  UNK     1      28.652  -7.659  39.224  1.00  0.00    -0.351 OA
HETATM   27  C22 UNK     1      27.294  -8.077  39.110  1.00  0.00     0.210 C 
ENDBRANCH  21  26
BRANCH  22  28
HETATM   28  O4  UNK     1      29.878  -9.473  37.530  1.00  0.00    -0.353 OA
HETATM   29  C21 UNK     1      31.049 -10.004  38.147  1.00  0.00     0.210 C 
ENDBRANCH  22  28
ENDBRANCH   5  18
BRANCH  10  30
HETATM   30  N1  UNK     1      30.598  -7.929  31.372  1.00  0.00    -0.379 N 
HETATM   31  H7  UNK     1      29.656  -7.679  31.099  1.00  0.00     0.158 HD
HETATM   32  H8  UNK     1      31.122  -8.602  30.829  1.00  0.00     0.158 HD
ENDBRANCH  10  30
TORSDOF 5
ENDMDL
MODEL 9
REMARK VINA RESULT:      -7.4      3.946      7.376
REMARK  5 active torsions:
REMARK  status: ('A' for Active; 'I' for Inactive)
REMARK    1  A    between atoms: C12_20  and  O3_3 
REMARK    2  A    between atoms: C13_21  and  O4_4 
REMARK    3  A    between atoms: C14_22  and  O6_6 
REMARK    4  A    between atoms: C7_15  and  N1_7 
REMARK    5  A    between atoms: C1_9  and  C3_11 
ROOT
HETATM    1  O1  UNK     1      30.772  -5.269  33.755  1.00  0.00    -0.291 OA
HETATM    2  O2  UNK     1      32.011  -8.391  36.247  1.00  0.00    -0.274 OA
HETATM    3  O5  UNK     1      31.830  -9.856  34.508  1.00  0.00    -0.259 OA
HETATM    4  N2  UNK     1      29.497  -7.058  29.467  1.00  0.00    -0.191 NA
HETATM    5  C1  UNK     1      31.081  -7.864  32.569  1.00  0.00     0.109 C 
HETATM    6  C2  UNK     1      31.342  -7.576  34.035  1.00  0.00     0.066 A 
HETATM    7  C4  UNK     1      31.190  -6.338  34.526  1.00  0.00     0.104 A 
HETATM    8  C5  UNK     1      30.428  -6.683  31.857  1.00  0.00     0.086 C 
HETATM    9  C6  UNK     1      31.468  -6.042  35.929  1.00  0.00     0.033 A 
HETATM   10  C7  UNK     1      30.313  -5.475  32.454  1.00  0.00     0.159 C 
HETATM   11  C8  UNK     1      31.739  -8.703  34.920  1.00  0.00     0.298 A 
HETATM   12  C11 UNK     1      31.879  -7.084  36.753  1.00  0.00     0.092 A 
HETATM   13  C15 UNK     1      31.347  -4.764  36.490  1.00  0.00     0.017 A 
HETATM   14  C16 UNK     1      32.170  -6.892  38.104  1.00  0.00     0.038 A 
HETATM   15  C17 UNK     1      29.914  -6.890  30.537  1.00  0.00     0.100 C 
HETATM   16  C18 UNK     1      31.636  -4.555  37.843  1.00  0.00     0.001 A 
HETATM   17  C19 UNK     1      32.047  -5.617  38.648  1.00  0.00     0.003 A 
ENDROOT
BRANCH   5  18
HETATM   18  C3  UNK     1      32.355  -8.246  31.872  1.00  0.00    -0.039 A 
HETATM   19  C10 UNK     1      33.474  -7.431  31.992  1.00  0.00     0.048 A 
HETATM   20  C12 UNK     1      34.658  -7.785  31.344  1.00  0.00     0.104 A 
HETATM   21  C14 UNK     1      34.714  -8.950  30.581  1.00  0.00     0.135 A 
HETATM   22  C13 UNK     1      33.586  -9.763  30.466  1.00  0.00     0.104 A 
HETATM   23  C9  UNK     1      32.402  -9.409  31.114  1.00  0.00     0.048 A 
BRANCH  20  24
HETATM   24  O3  UNK     1      35.751  -6.981  31.463  1.00  0.00    -0.353 OA
HETATM   25  C20 UNK     1      36.262  -6.773  32.778  1.00  0.00     0.210 C 
ENDBRANCH  20  24
BRANCH  21  26
HETATM   26  O6  UNK     1      35.870  -9.296  29.946  1.00  0.00    -0.351 OA
HETATM   27  C22 UNK     1      36.794 -10.100  30.676  1.00  0.00     0.210 C 
ENDBRANCH  21  26
BRANCH  22  28
HETATM   28  O4  UNK     1      33.628 -10.905  29.724  1.00  0.00    -0.353 OA
HETATM   29  C21 UNK     1      32.703 -11.936  30.067  1.00  0.00     0.210 C 
ENDBRANCH  22  28
ENDBRANCH   5  18
BRANCH  10  30
HETATM   30  N1  UNK     1      29.757  -4.364  31.885  1.00  0.00    -0.379 N 
HETATM   31  H7  UNK     1      29.017  -3.881  32.377  1.00  0.00     0.158 HD
HETATM   32  H8  UNK     1      30.077  -4.022  30.988  1.00  0.00     0.158 HD
ENDBRANCH  10  30
TORSDOF 5
ENDMDL
MODEL 10
REMARK VINA RESULT:      -7.4      2.702      4.106
REMARK  5 active torsions:
REMARK  status: ('A' for Active; 'I' for Inactive)
REMARK    1  A    between atoms: C12_20  and  O3_3 
REMARK    2  A    between atoms: C13_21  and  O4_4 
REMARK    3  A    between atoms: C14_22  and  O6_6 
REMARK    4  A    between atoms: C7_15  and  N1_7 
REMARK    5  A    between atoms: C1_9  and  C3_11 
ROOT
HETATM    1  O1  UNK     1      32.459  -7.726  32.715  1.00  0.00    -0.291 OA
HETATM    2  O2  UNK     1      34.886  -5.847  35.556  1.00  0.00    -0.274 OA
HETATM    3  O5  UNK     1      33.100  -4.629  36.282  1.00  0.00    -0.259 OA
HETATM    4  N2  UNK     1      28.089  -5.699  32.757  1.00  0.00    -0.191 NA
HETATM    5  C1  UNK     1      31.203  -5.866  34.503  1.00  0.00     0.109 C 
HETATM    6  C2  UNK     1      32.684  -6.195  34.540  1.00  0.00     0.066 A 
HETATM    7  C4  UNK     1      33.208  -7.083  33.682  1.00  0.00     0.104 A 
HETATM    8  C5  UNK     1      30.511  -6.458  33.280  1.00  0.00     0.086 C 
HETATM    9  C6  UNK     1      34.625  -7.431  33.728  1.00  0.00     0.033 A 
HETATM   10  C7  UNK     1      31.142  -7.339  32.470  1.00  0.00     0.159 C 
HETATM   11  C8  UNK     1      33.544  -5.488  35.525  1.00  0.00     0.298 A 
HETATM   12  C11 UNK     1      35.428  -6.802  34.675  1.00  0.00     0.092 A 
HETATM   13  C15 UNK     1      35.222  -8.366  32.873  1.00  0.00     0.017 A 
HETATM   14  C16 UNK     1      36.791  -7.076  34.792  1.00  0.00     0.038 A 
HETATM   15  C17 UNK     1      29.173  -6.039  32.991  1.00  0.00     0.100 C 
HETATM   16  C18 UNK     1      36.587  -8.652  32.979  1.00  0.00     0.001 A 
HETATM   17  C19 UNK     1      37.370  -8.008  33.937  1.00  0.00     0.003 A 
ENDROOT
BRANCH   5  18
HETATM   18  C3  UNK     1      30.528  -6.339  35.758  1.00  0.00    -0.039 A 
HETATM   19  C10 UNK     1      30.522  -7.695  36.065  1.00  0.00     0.048 A 
HETATM   20  C12 UNK     1      29.893  -8.135  37.230  1.00  0.00     0.104 A 
HETATM   21  C14 UNK     1      29.275  -7.218  38.078  1.00  0.00     0.135 A 
HETATM   22  C13 UNK     1      29.285  -5.859  37.762  1.00  0.00     0.104 A 
HETATM   23  C9  UNK     1      29.914  -5.418  36.598  1.00  0.00     0.048 A 
BRANCH  20  24
HETATM   24  O3  UNK     1      29.889  -9.465  37.525  1.00  0.00    -0.353 OA
HETATM   25  C20 UNK     1      31.059  -9.995  38.142  1.00  0.00     0.210 C 
ENDBRANCH  20  24
BRANCH  21  26
HETATM   26  O6  UNK     1      28.659  -7.648  39.216  1.00  0.00    -0.351 OA
HETATM   27  C22 UNK     1      27.302  -8.069  39.099  1.00  0.00     0.210 C 
ENDBRANCH  21  26
BRANCH  22  28
HETATM   28  O4  UNK     1      28.685  -4.952  38.584  1.00  0.00    -0.353 OA
HETATM   29  C21 UNK     1      29.535  -4.026  39.258  1.00  0.00     0.210 C 
ENDBRANCH  22  28
ENDBRANCH   5  18
BRANCH  10  30
HETATM   30  N1  UNK     1      30.592  -7.928  31.365  1.00  0.00    -0.379 N 
HETATM   31  H7  UNK     1      31.176  -8.083  30.553  1.00  0.00     0.158 HD
HETATM   32  H8  UNK     1      29.621  -8.209  31.353  1.00  0.00     0.158 HD
ENDBRANCH  10  30
TORSDOF 5
ENDMDL
