MODEL 1
REMARK VINA RESULT:     -10.3      0.000      0.000
REMARK  9 active torsions:
REMARK  status: ('A' for Active; 'I' for Inactive)
REMARK    1  A    between atoms: C9_20  and  S1_1 
REMARK    2  A    between atoms: N1_10  and  S1_1 
REMARK    3  A    between atoms: C12_23  and  O2_3 
REMARK    4  A    between atoms: C17_28  and  O2_3 
REMARK    5  A    between atoms: C6_17  and  N1_10 
REMARK    6  A    between atoms: C25_36  and  N2_11 
REMARK    7  A    between atoms: C1_12  and  C7_18 
REMARK    8  A    between atoms: C6_17  and  C8_19 
REMARK    9  A    between atoms: C17_28  and  C8_19 
ROOT
HETATM    1  O1  UNK     1      17.843  10.216  34.027  1.00  0.00    -0.313 OA
HETATM    2  O3  UNK     1      14.261   8.296  34.199  1.00  0.00    -0.286 OA
HETATM    3  C1  UNK     1      15.445  10.356  34.312  1.00  0.00     0.054 A 
HETATM    4  C2  UNK     1      16.589   8.146  33.916  1.00  0.00     0.049 A 
HETATM    5  C3  UNK     1      17.782   8.858  33.867  1.00  0.00     0.092 A 
HETATM    6  C4  UNK     1      15.337   8.878  34.148  1.00  0.00     0.198 A 
HETATM    7  C5  UNK     1      16.668  10.924  34.244  1.00  0.00     0.065 A 
HETATM    8  C10 UNK     1      18.986   8.187  33.649  1.00  0.00     0.075 A 
HETATM    9  C11 UNK     1      16.587   6.758  33.747  1.00  0.00     0.021 A 
HETATM   10  C12 UNK     1      18.990   6.803  33.479  1.00  0.00     0.082 A 
HETATM   11  C13 UNK     1      17.792   6.089  33.528  1.00  0.00     0.038 A 
HETATM   12  C14 UNK     1      16.938  12.396  34.391  1.00  0.00     0.077 C 
ENDROOT
BRANCH  10  13
HETATM   13  O2  UNK     1      20.163   6.146  33.266  1.00  0.00    -0.279 OA
BRANCH  13  14
HETATM   14  C17 UNK     1      20.494   5.976  31.908  1.00  0.00     0.265 C 
HETATM   15  O6  UNK     1      21.631   5.874  31.468  1.00  0.00    -0.265 OA
BRANCH  14  16
HETATM   16  C8  UNK     1      19.224   5.953  31.082  1.00  0.00     0.132 C 
BRANCH  16  17
HETATM   17  C6  UNK     1      19.338   5.071  29.846  1.00  0.00     0.142 C 
BRANCH  17  18
HETATM   18  N1  UNK     1      19.418   3.647  30.242  1.00  0.00    -0.315 N 
HETATM   19  H5  UNK     1      20.356   3.290  30.463  1.00  0.00     0.172 HD
BRANCH  18  20
HETATM   20  S1  UNK     1      18.225   2.554  29.723  1.00  0.00     0.258 S 
HETATM   21  O4  UNK     1      18.005   2.720  28.299  1.00  0.00    -0.201 OA
HETATM   22  O5  UNK     1      17.106   2.608  30.645  1.00  0.00    -0.201 OA
BRANCH  20  23
HETATM   23  C9  UNK     1      19.024   0.997  29.974  1.00  0.00     0.079 A 
HETATM   24  C18 UNK     1      19.121   0.485  31.256  1.00  0.00     0.026 A 
HETATM   25  C21 UNK     1      19.751  -0.744  31.453  1.00  0.00     0.008 A 
HETATM   26  C20 UNK     1      20.275  -1.440  30.365  1.00  0.00    -0.062 A 
HETATM   27  C22 UNK     1      20.169  -0.910  29.079  1.00  0.00     0.008 A 
HETATM   28  C26 UNK     1      20.948  -2.755  30.574  1.00  0.00     0.048 C 
HETATM   29  C19 UNK     1      19.539   0.319  28.882  1.00  0.00     0.026 A 
ENDBRANCH  20  23
ENDBRANCH  18  20
ENDBRANCH  17  18
ENDBRANCH  16  17
ENDBRANCH  14  16
ENDBRANCH  13  14
ENDBRANCH  10  13
BRANCH   3  30
HETATM   30  C7  UNK     1      14.238  11.138  34.542  1.00  0.00    -0.019 A 
HETATM   31  C15 UNK     1      13.870  11.484  35.840  1.00  0.00     0.015 A 
HETATM   32  C23 UNK     1      12.715  12.235  36.059  1.00  0.00     0.037 A 
HETATM   33  C25 UNK     1      11.930  12.640  34.979  1.00  0.00     0.102 A 
HETATM   34  C24 UNK     1      12.301  12.292  33.679  1.00  0.00     0.037 A 
HETATM   35  C16 UNK     1      13.455  11.541  33.460  1.00  0.00     0.015 A 
BRANCH  33  36
HETATM   36  N2  UNK     1      10.754  13.404  35.200  1.00  0.00    -0.116 N 
HETATM   37  O7  UNK     1       9.809  12.891  35.848  1.00  0.00    -0.532 OA
HETATM   38  O8  UNK     1      10.691  14.570  34.743  1.00  0.00    -0.532 OA
ENDBRANCH  33  36
ENDBRANCH   3  30
TORSDOF 9
ENDMDL
MODEL 2
REMARK VINA RESULT:     -10.3      3.112      4.766
REMARK  9 active torsions:
REMARK  status: ('A' for Active; 'I' for Inactive)
REMARK    1  A    between atoms: C9_20  and  S1_1 
REMARK    2  A    between atoms: N1_10  and  S1_1 
REMARK    3  A    between atoms: C12_23  and  O2_3 
REMARK    4  A    between atoms: C17_28  and  O2_3 
REMARK    5  A    between atoms: C6_17  and  N1_10 
REMARK    6  A    between atoms: C25_36  and  N2_11 
REMARK    7  A    between atoms: C1_12  and  C7_18 
REMARK    8  A    between atoms: C6_17  and  C8_19 
REMARK    9  A    between atoms: C17_28  and  C8_19 
ROOT
HETATM    1  O1  UNK     1      17.349   5.788  33.607  1.00  0.00    -0.313 OA
HETATM    2  O3  UNK     1      16.611   8.501  30.666  1.00  0.00    -0.286 OA
HETATM    3  C1  UNK     1      16.410   7.923  32.965  1.00  0.00     0.054 A 
HETATM    4  C2  UNK     1      17.531   6.427  31.277  1.00  0.00     0.049 A 
HETATM    5  C3  UNK     1      17.755   5.539  32.324  1.00  0.00     0.092 A 
HETATM    6  C4  UNK     1      16.831   7.687  31.555  1.00  0.00     0.198 A 
HETATM    7  C5  UNK     1      16.688   6.978  33.888  1.00  0.00     0.065 A 
HETATM    8  C10 UNK     1      18.417   4.334  32.088  1.00  0.00     0.075 A 
HETATM    9  C11 UNK     1      17.967   6.118  29.985  1.00  0.00     0.021 A 
HETATM   10  C12 UNK     1      18.855   4.022  30.801  1.00  0.00     0.082 A 
HETATM   11  C13 UNK     1      18.630   4.913  29.751  1.00  0.00     0.038 A 
HETATM   12  C14 UNK     1      16.327   7.070  35.345  1.00  0.00     0.077 C 
ENDROOT
BRANCH  10  13
HETATM   13  O2  UNK     1      19.501   2.847  30.568  1.00  0.00    -0.279 OA
BRANCH  13  14
HETATM   14  C17 UNK     1      18.701   1.855  29.971  1.00  0.00     0.265 C 
HETATM   15  O6  UNK     1      17.488   1.924  29.820  1.00  0.00    -0.265 OA
BRANCH  14  16
HETATM   16  C8  UNK     1      19.573   0.686  29.560  1.00  0.00     0.132 C 
BRANCH  16  17
HETATM   17  C6  UNK     1      20.283   0.034  30.738  1.00  0.00     0.142 C 
BRANCH  17  18
HETATM   18  N1  UNK     1      19.515   0.260  31.984  1.00  0.00    -0.315 N 
HETATM   19  H5  UNK     1      19.717   1.132  32.488  1.00  0.00     0.172 HD
BRANCH  18  20
HETATM   20  S1  UNK     1      18.896  -1.065  32.849  1.00  0.00     0.258 S 
HETATM   21  O4  UNK     1      19.951  -2.035  33.068  1.00  0.00    -0.201 OA
HETATM   22  O5  UNK     1      17.642  -1.474  32.246  1.00  0.00    -0.201 OA
BRANCH  20  23
HETATM   23  C9  UNK     1      18.501  -0.328  34.407  1.00  0.00     0.079 A 
HETATM   24  C18 UNK     1      18.251   1.033  34.469  1.00  0.00     0.026 A 
HETATM   25  C21 UNK     1      17.939   1.613  35.698  1.00  0.00     0.008 A 
HETATM   26  C20 UNK     1      17.882   0.824  36.846  1.00  0.00    -0.062 A 
HETATM   27  C22 UNK     1      18.136  -0.545  36.767  1.00  0.00     0.008 A 
HETATM   28  C26 UNK     1      17.547   1.444  38.161  1.00  0.00     0.048 C 
HETATM   29  C19 UNK     1      18.449  -1.125  35.538  1.00  0.00     0.026 A 
ENDBRANCH  20  23
ENDBRANCH  18  20
ENDBRANCH  17  18
ENDBRANCH  16  17
ENDBRANCH  14  16
ENDBRANCH  13  14
ENDBRANCH  10  13
BRANCH   3  30
HETATM   30  C7  UNK     1      15.713   9.157  33.305  1.00  0.00    -0.019 A 
HETATM   31  C15 UNK     1      14.330   9.238  33.157  1.00  0.00     0.015 A 
HETATM   32  C23 UNK     1      13.664  10.419  33.484  1.00  0.00     0.037 A 
HETATM   33  C25 UNK     1      14.382  11.517  33.959  1.00  0.00     0.102 A 
HETATM   34  C24 UNK     1      15.767  11.433  34.107  1.00  0.00     0.037 A 
HETATM   35  C16 UNK     1      16.433  10.253  33.779  1.00  0.00     0.015 A 
BRANCH  33  36
HETATM   36  N2  UNK     1      13.705  12.720  34.292  1.00  0.00    -0.116 N 
HETATM   37  O7  UNK     1      12.457  12.698  34.428  1.00  0.00    -0.532 OA
HETATM   38  O8  UNK     1      14.372  13.771  34.444  1.00  0.00    -0.532 OA
ENDBRANCH  33  36
ENDBRANCH   3  30
TORSDOF 9
ENDMDL
MODEL 3
REMARK VINA RESULT:     -10.3      4.085      6.880
REMARK  9 active torsions:
REMARK  status: ('A' for Active; 'I' for Inactive)
REMARK    1  A    between atoms: C9_20  and  S1_1 
REMARK    2  A    between atoms: N1_10  and  S1_1 
REMARK    3  A    between atoms: C12_23  and  O2_3 
REMARK    4  A    between atoms: C17_28  and  O2_3 
REMARK    5  A    between atoms: C6_17  and  N1_10 
REMARK    6  A    between atoms: C25_36  and  N2_11 
REMARK    7  A    between atoms: C1_12  and  C7_18 
REMARK    8  A    between atoms: C6_17  and  C8_19 
REMARK    9  A    between atoms: C17_28  and  C8_19 
ROOT
HETATM    1  O1  UNK     1      18.731   4.121  30.610  1.00  0.00    -0.313 OA
HETATM    2  O3  UNK     1      17.752   4.704  34.515  1.00  0.00    -0.286 OA
HETATM    3  C1  UNK     1      18.163   5.669  32.379  1.00  0.00     0.054 A 
HETATM    4  C2  UNK     1      18.300   3.190  32.804  1.00  0.00     0.049 A 
HETATM    5  C3  UNK     1      18.630   3.054  31.460  1.00  0.00     0.092 A 
HETATM    6  C4  UNK     1      18.046   4.534  33.338  1.00  0.00     0.198 A 
HETATM    7  C5  UNK     1      18.492   5.400  31.099  1.00  0.00     0.065 A 
HETATM    8  C10 UNK     1      18.876   1.788  30.926  1.00  0.00     0.075 A 
HETATM    9  C11 UNK     1      18.211   2.062  33.627  1.00  0.00     0.021 A 
HETATM   10  C12 UNK     1      18.788   0.661  31.743  1.00  0.00     0.082 A 
HETATM   11  C13 UNK     1      18.456   0.798  33.091  1.00  0.00     0.038 A 
HETATM   12  C14 UNK     1      18.648   6.435  30.018  1.00  0.00     0.077 C 
ENDROOT
BRANCH  10  13
HETATM   13  O2  UNK     1      19.028  -0.575  31.224  1.00  0.00    -0.279 OA
BRANCH  13  14
HETATM   14  C17 UNK     1      20.389  -0.934  31.190  1.00  0.00     0.265 C 
HETATM   15  O6  UNK     1      21.309  -0.180  30.903  1.00  0.00    -0.265 OA
BRANCH  14  16
HETATM   16  C8  UNK     1      20.530  -2.400  31.546  1.00  0.00     0.132 C 
BRANCH  16  17
HETATM   17  C6  UNK     1      20.859  -2.622  33.016  1.00  0.00     0.142 C 
BRANCH  17  18
HETATM   18  N1  UNK     1      19.664  -2.364  33.851  1.00  0.00    -0.315 N 
HETATM   19  H5  UNK     1      18.856  -1.949  33.369  1.00  0.00     0.172 HD
BRANCH  18  20
HETATM   20  S1  UNK     1      19.834  -2.125  35.524  1.00  0.00     0.258 S 
HETATM   21  O4  UNK     1      21.010  -1.317  35.779  1.00  0.00    -0.201 OA
HETATM   22  O5  UNK     1      19.661  -3.398  36.199  1.00  0.00    -0.201 OA
BRANCH  20  23
HETATM   23  C9  UNK     1      18.408  -1.148  35.898  1.00  0.00     0.079 A 
HETATM   24  C18 UNK     1      17.226  -1.389  35.220  1.00  0.00     0.026 A 
HETATM   25  C21 UNK     1      16.102  -0.618  35.516  1.00  0.00     0.008 A 
HETATM   26  C20 UNK     1      16.178   0.382  36.485  1.00  0.00    -0.062 A 
HETATM   27  C22 UNK     1      17.378   0.612  37.159  1.00  0.00     0.008 A 
HETATM   28  C26 UNK     1      14.976   1.206  36.803  1.00  0.00     0.048 C 
HETATM   29  C19 UNK     1      18.502  -0.159  36.863  1.00  0.00     0.026 A 
ENDBRANCH  20  23
ENDBRANCH  18  20
ENDBRANCH  17  18
ENDBRANCH  16  17
ENDBRANCH  14  16
ENDBRANCH  13  14
ENDBRANCH  10  13
BRANCH   3  30
HETATM   30  C7  UNK     1      17.921   7.027  32.849  1.00  0.00    -0.019 A 
HETATM   31  C15 UNK     1      18.962   7.767  33.405  1.00  0.00     0.015 A 
HETATM   32  C23 UNK     1      18.730   9.067  33.852  1.00  0.00     0.037 A 
HETATM   33  C25 UNK     1      17.457   9.626  33.742  1.00  0.00     0.102 A 
HETATM   34  C24 UNK     1      16.415   8.884  33.185  1.00  0.00     0.037 A 
HETATM   35  C16 UNK     1      16.647   7.583  32.739  1.00  0.00     0.015 A 
BRANCH  33  36
HETATM   36  N2  UNK     1      17.219  10.950  34.198  1.00  0.00    -0.116 N 
HETATM   37  O7  UNK     1      16.324  11.146  35.056  1.00  0.00    -0.532 OA
HETATM   38  O8  UNK     1      17.910  11.887  33.732  1.00  0.00    -0.532 OA
ENDBRANCH  33  36
ENDBRANCH   3  30
TORSDOF 9
ENDMDL
MODEL 4
REMARK VINA RESULT:     -10.3      1.277      1.773
REMARK  9 active torsions:
REMARK  status: ('A' for Active; 'I' for Inactive)
REMARK    1  A    between atoms: C9_20  and  S1_1 
REMARK    2  A    between atoms: N1_10  and  S1_1 
REMARK    3  A    between atoms: C12_23  and  O2_3 
REMARK    4  A    between atoms: C17_28  and  O2_3 
REMARK    5  A    between atoms: C6_17  and  N1_10 
REMARK    6  A    between atoms: C25_36  and  N2_11 
REMARK    7  A    between atoms: C1_12  and  C7_18 
REMARK    8  A    between atoms: C6_17  and  C8_19 
REMARK    9  A    between atoms: C17_28  and  C8_19 
ROOT
HETATM    1  O1  UNK     1      18.243   9.949  33.754  1.00  0.00    -0.313 OA
HETATM    2  O3  UNK     1      14.203   9.467  33.725  1.00  0.00    -0.286 OA
HETATM    3  C1  UNK     1      16.053  10.913  34.111  1.00  0.00     0.054 A 
HETATM    4  C2  UNK     1      16.324   8.520  33.370  1.00  0.00     0.049 A 
HETATM    5  C3  UNK     1      17.696   8.746  33.398  1.00  0.00     0.092 A 
HETATM    6  C4  UNK     1      15.419   9.617  33.735  1.00  0.00     0.198 A 
HETATM    7  C5  UNK     1      17.400  10.999  34.099  1.00  0.00     0.065 A 
HETATM    8  C10 UNK     1      18.579   7.720  33.057  1.00  0.00     0.075 A 
HETATM    9  C11 UNK     1      15.822   7.269  33.000  1.00  0.00     0.021 A 
HETATM   10  C12 UNK     1      18.083   6.471  32.686  1.00  0.00     0.082 A 
HETATM   11  C13 UNK     1      16.706   6.246  32.658  1.00  0.00     0.038 A 
HETATM   12  C14 UNK     1      18.183  12.233  34.454  1.00  0.00     0.077 C 
ENDROOT
BRANCH  10  13
HETATM   13  O2  UNK     1      18.942   5.470  32.352  1.00  0.00    -0.279 OA
BRANCH  13  14
HETATM   14  C17 UNK     1      20.222   5.910  31.965  1.00  0.00     0.265 C 
HETATM   15  O6  UNK     1      21.105   6.271  32.732  1.00  0.00    -0.265 OA
BRANCH  14  16
HETATM   16  C8  UNK     1      20.327   5.881  30.454  1.00  0.00     0.132 C 
BRANCH  16  17
HETATM   17  C6  UNK     1      19.220   5.067  29.799  1.00  0.00     0.142 C 
BRANCH  17  18
HETATM   18  N1  UNK     1      19.419   3.625  30.071  1.00  0.00    -0.315 N 
HETATM   19  H5  UNK     1      20.393   3.297  30.089  1.00  0.00     0.172 HD
BRANCH  18  20
HETATM   20  S1  UNK     1      18.187   2.515  29.701  1.00  0.00     0.258 S 
HETATM   21  O4  UNK     1      17.846   2.622  28.295  1.00  0.00    -0.201 OA
HETATM   22  O5  UNK     1      17.152   2.609  30.713  1.00  0.00    -0.201 OA
BRANCH  20  23
HETATM   23  C9  UNK     1      19.006   0.967  29.947  1.00  0.00     0.079 A 
HETATM   24  C18 UNK     1      19.521   0.293  28.853  1.00  0.00     0.026 A 
HETATM   25  C21 UNK     1      20.168  -0.927  29.048  1.00  0.00     0.008 A 
HETATM   26  C20 UNK     1      20.289  -1.454  30.334  1.00  0.00    -0.062 A 
HETATM   27  C22 UNK     1      19.764  -0.762  31.425  1.00  0.00     0.008 A 
HETATM   28  C26 UNK     1      20.982  -2.759  30.543  1.00  0.00     0.048 C 
HETATM   29  C19 UNK     1      19.118   0.459  31.230  1.00  0.00     0.026 A 
ENDBRANCH  20  23
ENDBRANCH  18  20
ENDBRANCH  17  18
ENDBRANCH  16  17
ENDBRANCH  14  16
ENDBRANCH  13  14
ENDBRANCH  10  13
BRANCH   3  30
HETATM   30  C7  UNK     1      15.207  12.040  34.481  1.00  0.00    -0.019 A 
HETATM   31  C15 UNK     1      14.773  12.934  33.506  1.00  0.00     0.015 A 
HETATM   32  C23 UNK     1      13.961  14.011  33.860  1.00  0.00     0.037 A 
HETATM   33  C25 UNK     1      13.584  14.192  35.191  1.00  0.00     0.102 A 
HETATM   34  C24 UNK     1      14.020  13.296  36.168  1.00  0.00     0.037 A 
HETATM   35  C16 UNK     1      14.833  12.219  35.813  1.00  0.00     0.015 A 
BRANCH  33  36
HETATM   36  N2  UNK     1      12.759  15.289  35.554  1.00  0.00    -0.116 N 
HETATM   37  O7  UNK     1      11.921  15.720  34.724  1.00  0.00    -0.532 OA
HETATM   38  O8  UNK     1      12.887  15.796  36.694  1.00  0.00    -0.532 OA
ENDBRANCH  33  36
ENDBRANCH   3  30
TORSDOF 9
ENDMDL
MODEL 5
REMARK VINA RESULT:     -10.2     18.107     21.241
REMARK  9 active torsions:
REMARK  status: ('A' for Active; 'I' for Inactive)
REMARK    1  A    between atoms: C9_20  and  S1_1 
REMARK    2  A    between atoms: N1_10  and  S1_1 
REMARK    3  A    between atoms: C12_23  and  O2_3 
REMARK    4  A    between atoms: C17_28  and  O2_3 
REMARK    5  A    between atoms: C6_17  and  N1_10 
REMARK    6  A    between atoms: C25_36  and  N2_11 
REMARK    7  A    between atoms: C1_12  and  C7_18 
REMARK    8  A    between atoms: C6_17  and  C8_19 
REMARK    9  A    between atoms: C17_28  and  C8_19 
ROOT
HETATM    1  O1  UNK     1      28.579  -6.289  34.473  1.00  0.00    -0.313 OA
HETATM    2  O3  UNK     1      28.781 -10.223  33.459  1.00  0.00    -0.286 OA
HETATM    3  C1  UNK     1      29.178  -7.962  32.833  1.00  0.00     0.054 A 
HETATM    4  C2  UNK     1      28.199  -8.608  35.063  1.00  0.00     0.049 A 
HETATM    5  C3  UNK     1      28.156  -7.248  35.352  1.00  0.00     0.092 A 
HETATM    6  C4  UNK     1      28.723  -9.037  33.760  1.00  0.00     0.198 A 
HETATM    7  C5  UNK     1      29.080  -6.678  33.237  1.00  0.00     0.065 A 
HETATM    8  C10 UNK     1      27.662  -6.812  36.583  1.00  0.00     0.075 A 
HETATM    9  C11 UNK     1      27.751  -9.544  36.000  1.00  0.00     0.021 A 
HETATM   10  C12 UNK     1      27.215  -7.742  37.521  1.00  0.00     0.082 A 
HETATM   11  C13 UNK     1      27.260  -9.106  37.230  1.00  0.00     0.038 A 
HETATM   12  C14 UNK     1      29.495  -5.488  32.417  1.00  0.00     0.077 C 
ENDROOT
BRANCH  10  13
HETATM   13  O2  UNK     1      26.733  -7.319  38.722  1.00  0.00    -0.279 OA
BRANCH  13  14
HETATM   14  C17 UNK     1      27.005  -5.968  39.011  1.00  0.00     0.265 C 
HETATM   15  O6  UNK     1      26.178  -5.066  39.003  1.00  0.00    -0.265 OA
BRANCH  14  16
HETATM   16  C8  UNK     1      28.480  -5.807  39.318  1.00  0.00     0.132 C 
BRANCH  16  17
HETATM   17  C6  UNK     1      29.027  -4.450  38.899  1.00  0.00     0.142 C 
BRANCH  17  18
HETATM   18  N1  UNK     1      29.745  -4.566  37.609  1.00  0.00    -0.315 N 
HETATM   19  H5  UNK     1      29.180  -4.854  36.800  1.00  0.00     0.172 HD
BRANCH  18  20
HETATM   20  S1  UNK     1      31.416  -4.874  37.594  1.00  0.00     0.258 S 
HETATM   21  O4  UNK     1      31.926  -4.838  38.951  1.00  0.00    -0.201 OA
HETATM   22  O5  UNK     1      32.033  -4.064  36.561  1.00  0.00    -0.201 OA
BRANCH  20  23
HETATM   23  C9  UNK     1      31.472  -6.551  37.036  1.00  0.00     0.079 A 
HETATM   24  C18 UNK     1      31.853  -6.817  35.732  1.00  0.00     0.026 A 
HETATM   25  C21 UNK     1      31.897  -8.140  35.292  1.00  0.00     0.008 A 
HETATM   26  C20 UNK     1      31.559  -9.176  36.163  1.00  0.00    -0.062 A 
HETATM   27  C22 UNK     1      31.177  -8.890  37.474  1.00  0.00     0.008 A 
HETATM   28  C26 UNK     1      31.607 -10.591  35.694  1.00  0.00     0.048 C 
HETATM   29  C19 UNK     1      31.133  -7.567  37.913  1.00  0.00     0.026 A 
ENDBRANCH  20  23
ENDBRANCH  18  20
ENDBRANCH  17  18
ENDBRANCH  16  17
ENDBRANCH  14  16
ENDBRANCH  13  14
ENDBRANCH  10  13
BRANCH   3  30
HETATM   30  C7  UNK     1      29.710  -8.326  31.526  1.00  0.00    -0.019 A 
HETATM   31  C15 UNK     1      31.040  -8.721  31.401  1.00  0.00     0.015 A 
HETATM   32  C23 UNK     1      31.547  -9.071  30.150  1.00  0.00     0.037 A 
HETATM   33  C25 UNK     1      30.722  -9.026  29.025  1.00  0.00     0.102 A 
HETATM   34  C24 UNK     1      29.390  -8.630  29.152  1.00  0.00     0.037 A 
HETATM   35  C16 UNK     1      28.884  -8.280  30.403  1.00  0.00     0.015 A 
BRANCH  33  36
HETATM   36  N2  UNK     1      31.237  -9.381  27.751  1.00  0.00    -0.116 N 
HETATM   37  O7  UNK     1      32.357  -8.934  27.401  1.00  0.00    -0.532 OA
HETATM   38  O8  UNK     1      30.561 -10.134  27.009  1.00  0.00    -0.532 OA
ENDBRANCH  33  36
ENDBRANCH   3  30
TORSDOF 9
ENDMDL
MODEL 6
REMARK VINA RESULT:     -10.2      3.966      7.302
REMARK  9 active torsions:
REMARK  status: ('A' for Active; 'I' for Inactive)
REMARK    1  A    between atoms: C9_20  and  S1_1 
REMARK    2  A    between atoms: N1_10  and  S1_1 
REMARK    3  A    between atoms: C12_23  and  O2_3 
REMARK    4  A    between atoms: C17_28  and  O2_3 
REMARK    5  A    between atoms: C6_17  and  N1_10 
REMARK    6  A    between atoms: C25_36  and  N2_11 
REMARK    7  A    between atoms: C1_12  and  C7_18 
REMARK    8  A    between atoms: C6_17  and  C8_19 
REMARK    9  A    between atoms: C17_28  and  C8_19 
ROOT
HETATM    1  O1  UNK     1      18.532   2.364  32.885  1.00  0.00    -0.313 OA
HETATM    2  O3  UNK     1      18.357   5.310  30.084  1.00  0.00    -0.286 OA
HETATM    3  C1  UNK     1      18.267   4.716  32.386  1.00  0.00     0.054 A 
HETATM    4  C2  UNK     1      18.620   3.023  30.555  1.00  0.00     0.049 A 
HETATM    5  C3  UNK     1      18.672   2.061  31.557  1.00  0.00     0.092 A 
HETATM    6  C4  UNK     1      18.409   4.426  30.931  1.00  0.00     0.198 A 
HETATM    7  C5  UNK     1      18.334   3.688  33.258  1.00  0.00     0.065 A 
HETATM    8  C10 UNK     1      18.871   0.719  31.228  1.00  0.00     0.075 A 
HETATM    9  C11 UNK     1      18.769   2.654  29.214  1.00  0.00     0.021 A 
HETATM   10  C12 UNK     1      19.020   0.347  29.892  1.00  0.00     0.082 A 
HETATM   11  C13 UNK     1      18.969   1.313  28.887  1.00  0.00     0.038 A 
HETATM   12  C14 UNK     1      18.208   3.820  34.751  1.00  0.00     0.077 C 
ENDROOT
BRANCH  10  13
HETATM   13  O2  UNK     1      19.214  -0.961  29.568  1.00  0.00    -0.279 OA
BRANCH  13  14
HETATM   14  C17 UNK     1      20.541  -1.405  29.723  1.00  0.00     0.265 C 
HETATM   15  O6  UNK     1      21.509  -0.955  29.125  1.00  0.00    -0.265 OA
BRANCH  14  16
HETATM   16  C8  UNK     1      20.578  -2.535  30.732  1.00  0.00     0.132 C 
BRANCH  16  17
HETATM   17  C6  UNK     1      20.953  -2.067  32.132  1.00  0.00     0.142 C 
BRANCH  17  18
HETATM   18  N1  UNK     1      20.011  -2.629  33.127  1.00  0.00    -0.315 N 
HETATM   19  H5  UNK     1      19.023  -2.662  32.846  1.00  0.00     0.172 HD
BRANCH  18  20
HETATM   20  S1  UNK     1      20.394  -2.576  34.781  1.00  0.00     0.258 S 
HETATM   21  O4  UNK     1      21.649  -1.872  34.964  1.00  0.00    -0.201 OA
HETATM   22  O5  UNK     1      20.210  -3.899  35.347  1.00  0.00    -0.201 OA
BRANCH  20  23
HETATM   23  C9  UNK     1      19.098  -1.557  35.421  1.00  0.00     0.079 A 
HETATM   24  C18 UNK     1      18.804  -1.607  36.773  1.00  0.00     0.026 A 
HETATM   25  C21 UNK     1      17.782  -0.803  37.277  1.00  0.00     0.008 A 
HETATM   26  C20 UNK     1      17.070   0.038  36.422  1.00  0.00    -0.062 A 
HETATM   27  C22 UNK     1      17.380   0.076  35.062  1.00  0.00     0.008 A 
HETATM   28  C26 UNK     1      15.978   0.899  36.961  1.00  0.00     0.048 C 
HETATM   29  C19 UNK     1      18.402  -0.729  34.558  1.00  0.00     0.026 A 
ENDBRANCH  20  23
ENDBRANCH  18  20
ENDBRANCH  17  18
ENDBRANCH  16  17
ENDBRANCH  14  16
ENDBRANCH  13  14
ENDBRANCH  10  13
BRANCH   3  30
HETATM   30  C7  UNK     1      18.057   6.091  32.823  1.00  0.00    -0.019 A 
HETATM   31  C15 UNK     1      19.146   6.880  33.183  1.00  0.00     0.015 A 
HETATM   32  C23 UNK     1      18.945   8.196  33.598  1.00  0.00     0.037 A 
HETATM   33  C25 UNK     1      17.653   8.721  33.651  1.00  0.00     0.102 A 
HETATM   34  C24 UNK     1      16.563   7.929  33.290  1.00  0.00     0.037 A 
HETATM   35  C16 UNK     1      16.765   6.612  32.876  1.00  0.00     0.015 A 
BRANCH  33  36
HETATM   36  N2  UNK     1      17.446  10.060  34.074  1.00  0.00    -0.116 N 
HETATM   37  O7  UNK     1      18.212  10.958  33.646  1.00  0.00    -0.532 OA
HETATM   38  O8  UNK     1      16.504  10.311  34.862  1.00  0.00    -0.532 OA
ENDBRANCH  33  36
ENDBRANCH   3  30
TORSDOF 9
ENDMDL
MODEL 7
REMARK VINA RESULT:     -10.1      4.961     12.426
REMARK  9 active torsions:
REMARK  status: ('A' for Active; 'I' for Inactive)
REMARK    1  A    between atoms: C9_20  and  S1_1 
REMARK    2  A    between atoms: N1_10  and  S1_1 
REMARK    3  A    between atoms: C12_23  and  O2_3 
REMARK    4  A    between atoms: C17_28  and  O2_3 
REMARK    5  A    between atoms: C6_17  and  N1_10 
REMARK    6  A    between atoms: C25_36  and  N2_11 
REMARK    7  A    between atoms: C1_12  and  C7_18 
REMARK    8  A    between atoms: C6_17  and  C8_19 
REMARK    9  A    between atoms: C17_28  and  C8_19 
ROOT
HETATM    1  O1  UNK     1      18.936  -0.365  33.398  1.00  0.00    -0.313 OA
HETATM    2  O3  UNK     1      21.260  -3.648  32.787  1.00  0.00    -0.286 OA
HETATM    3  C1  UNK     1      19.921  -2.385  34.294  1.00  0.00     0.054 A 
HETATM    4  C2  UNK     1      20.305  -1.691  31.903  1.00  0.00     0.049 A 
HETATM    5  C3  UNK     1      19.502  -0.589  32.173  1.00  0.00     0.092 A 
HETATM    6  C4  UNK     1      20.559  -2.661  32.975  1.00  0.00     0.198 A 
HETATM    7  C5  UNK     1      19.164  -1.275  34.424  1.00  0.00     0.065 A 
HETATM    8  C10 UNK     1      19.245   0.349  31.171  1.00  0.00     0.075 A 
HETATM    9  C11 UNK     1      20.858  -1.867  30.630  1.00  0.00     0.021 A 
HETATM   10  C12 UNK     1      19.793   0.177  29.901  1.00  0.00     0.082 A 
HETATM   11  C13 UNK     1      20.599  -0.930  29.631  1.00  0.00     0.038 A 
HETATM   12  C14 UNK     1      18.459  -0.861  35.686  1.00  0.00     0.077 C 
ENDROOT
BRANCH  10  13
HETATM   13  O2  UNK     1      19.544   1.090  28.923  1.00  0.00    -0.279 OA
BRANCH  13  14
HETATM   14  C17 UNK     1      18.264   1.674  28.988  1.00  0.00     0.265 C 
HETATM   15  O6  UNK     1      17.207   1.067  28.882  1.00  0.00    -0.265 OA
BRANCH  14  16
HETATM   16  C8  UNK     1      18.404   3.169  29.194  1.00  0.00     0.132 C 
BRANCH  16  17
HETATM   17  C6  UNK     1      18.299   3.577  30.657  1.00  0.00     0.142 C 
BRANCH  17  18
HETATM   18  N1  UNK     1      19.584   4.146  31.121  1.00  0.00    -0.315 N 
HETATM   19  H5  UNK     1      20.118   3.575  31.788  1.00  0.00     0.172 HD
BRANCH  18  20
HETATM   20  S1  UNK     1      19.820   5.829  31.109  1.00  0.00     0.258 S 
HETATM   21  O4  UNK     1      19.797   6.310  29.741  1.00  0.00    -0.201 OA
HETATM   22  O5  UNK     1      20.937   6.151  31.977  1.00  0.00    -0.201 OA
BRANCH  20  23
HETATM   23  C9  UNK     1      18.357   6.407  31.916  1.00  0.00     0.079 A 
HETATM   24  C18 UNK     1      18.166   6.119  33.257  1.00  0.00     0.026 A 
HETATM   25  C21 UNK     1      17.012   6.576  33.893  1.00  0.00     0.008 A 
HETATM   26  C20 UNK     1      16.067   7.313  33.179  1.00  0.00    -0.062 A 
HETATM   27  C22 UNK     1      16.276   7.593  31.828  1.00  0.00     0.008 A 
HETATM   28  C26 UNK     1      14.833   7.803  33.859  1.00  0.00     0.048 C 
HETATM   29  C19 UNK     1      17.430   7.136  31.192  1.00  0.00     0.026 A 
ENDBRANCH  20  23
ENDBRANCH  18  20
ENDBRANCH  17  18
ENDBRANCH  16  17
ENDBRANCH  14  16
ENDBRANCH  13  14
ENDBRANCH  10  13
BRANCH   3  30
HETATM   30  C7  UNK     1      20.134  -3.312  35.398  1.00  0.00    -0.019 A 
HETATM   31  C15 UNK     1      20.758  -2.875  36.563  1.00  0.00     0.015 A 
HETATM   32  C23 UNK     1      20.959  -3.763  37.620  1.00  0.00     0.037 A 
HETATM   33  C25 UNK     1      20.534  -5.087  37.510  1.00  0.00     0.102 A 
HETATM   34  C24 UNK     1      19.908  -5.523  36.341  1.00  0.00     0.037 A 
HETATM   35  C16 UNK     1      19.708  -4.635  35.284  1.00  0.00     0.015 A 
BRANCH  33  36
HETATM   36  N2  UNK     1      20.739  -5.992  38.584  1.00  0.00    -0.116 N 
HETATM   37  O7  UNK     1      21.912  -6.235  38.959  1.00  0.00    -0.532 OA
HETATM   38  O8  UNK     1      19.743  -6.523  39.130  1.00  0.00    -0.532 OA
ENDBRANCH  33  36
ENDBRANCH   3  30
TORSDOF 9
ENDMDL
MODEL 8
REMARK VINA RESULT:     -10.1     18.867     22.346
REMARK  9 active torsions:
REMARK  status: ('A' for Active; 'I' for Inactive)
REMARK    1  A    between atoms: C9_20  and  S1_1 
REMARK    2  A    between atoms: N1_10  and  S1_1 
REMARK    3  A    between atoms: C12_23  and  O2_3 
REMARK    4  A    between atoms: C17_28  and  O2_3 
REMARK    5  A    between atoms: C6_17  and  N1_10 
REMARK    6  A    between atoms: C25_36  and  N2_11 
REMARK    7  A    between atoms: C1_12  and  C7_18 
REMARK    8  A    between atoms: C6_17  and  C8_19 
REMARK    9  A    between atoms: C17_28  and  C8_19 
ROOT
HETATM    1  O1  UNK     1      33.672  -8.965  35.025  1.00  0.00    -0.313 OA
HETATM    2  O3  UNK     1      33.508  -4.904  34.853  1.00  0.00    -0.286 OA
HETATM    3  C1  UNK     1      32.678  -6.911  35.825  1.00  0.00     0.054 A 
HETATM    4  C2  UNK     1      34.485  -6.892  34.070  1.00  0.00     0.049 A 
HETATM    5  C3  UNK     1      34.496  -8.279  34.174  1.00  0.00     0.092 A 
HETATM    6  C4  UNK     1      33.554  -6.127  34.908  1.00  0.00     0.198 A 
HETATM    7  C5  UNK     1      32.787  -8.256  35.827  1.00  0.00     0.065 A 
HETATM    8  C10 UNK     1      35.371  -9.031  33.388  1.00  0.00     0.075 A 
HETATM    9  C11 UNK     1      35.349  -6.244  33.181  1.00  0.00     0.021 A 
HETATM   10  C12 UNK     1      36.235  -8.389  32.502  1.00  0.00     0.082 A 
HETATM   11  C13 UNK     1      36.224  -6.997  32.398  1.00  0.00     0.038 A 
HETATM   12  C14 UNK     1      31.974  -9.180  36.692  1.00  0.00     0.077 C 
ENDROOT
BRANCH  10  13
HETATM   13  O2  UNK     1      37.088  -9.120  31.734  1.00  0.00    -0.279 OA
BRANCH  13  14
HETATM   14  C17 UNK     1      36.479  -9.757  30.636  1.00  0.00     0.265 C 
HETATM   15  O6  UNK     1      35.817  -9.195  29.775  1.00  0.00    -0.265 OA
BRANCH  14  16
HETATM   16  C8  UNK     1      36.759 -11.245  30.700  1.00  0.00     0.132 C 
BRANCH  16  17
HETATM   17  C6  UNK     1      35.507 -12.073  30.951  1.00  0.00     0.142 C 
BRANCH  17  18
HETATM   18  N1  UNK     1      34.445 -11.225  31.540  1.00  0.00    -0.315 N 
HETATM   19  H5  UNK     1      34.563 -10.975  32.531  1.00  0.00     0.172 HD
BRANCH  18  20
HETATM   20  S1  UNK     1      32.881 -11.242  30.878  1.00  0.00     0.258 S 
HETATM   21  O4  UNK     1      32.096 -12.279  31.521  1.00  0.00    -0.201 OA
HETATM   22  O5  UNK     1      32.984 -11.195  29.432  1.00  0.00    -0.201 OA
BRANCH  20  23
HETATM   23  C9  UNK     1      32.248  -9.676  31.400  1.00  0.00     0.079 A 
HETATM   24  C18 UNK     1      32.694  -8.524  30.775  1.00  0.00     0.026 A 
HETATM   25  C21 UNK     1      32.194  -7.289  31.187  1.00  0.00     0.008 A 
HETATM   26  C20 UNK     1      31.256  -7.225  32.217  1.00  0.00    -0.062 A 
HETATM   27  C22 UNK     1      30.818  -8.396  32.836  1.00  0.00     0.008 A 
HETATM   28  C26 UNK     1      30.720  -5.904  32.657  1.00  0.00     0.048 C 
HETATM   29  C19 UNK     1      31.318  -9.631  32.424  1.00  0.00     0.026 A 
ENDBRANCH  20  23
ENDBRANCH  18  20
ENDBRANCH  17  18
ENDBRANCH  16  17
ENDBRANCH  14  16
ENDBRANCH  13  14
ENDBRANCH  10  13
BRANCH   3  30
HETATM   30  C7  UNK     1      31.734  -6.207  36.684  1.00  0.00    -0.019 A 
HETATM   31  C15 UNK     1      30.396  -6.108  36.312  1.00  0.00     0.015 A 
HETATM   32  C23 UNK     1      29.493  -5.436  37.136  1.00  0.00     0.037 A 
HETATM   33  C25 UNK     1      29.930  -4.867  38.332  1.00  0.00     0.102 A 
HETATM   34  C24 UNK     1      31.271  -4.968  38.704  1.00  0.00     0.037 A 
HETATM   35  C16 UNK     1      32.174  -5.639  37.879  1.00  0.00     0.015 A 
BRANCH  33  36
HETATM   36  N2  UNK     1      29.012  -4.183  39.172  1.00  0.00    -0.116 N 
HETATM   37  O7  UNK     1      29.451  -3.551  40.164  1.00  0.00    -0.532 OA
HETATM   38  O8  UNK     1      27.788  -4.227  38.900  1.00  0.00    -0.532 OA
ENDBRANCH  33  36
ENDBRANCH   3  30
TORSDOF 9
ENDMDL
MODEL 9
REMARK VINA RESULT:     -10.1      4.543      7.281
REMARK  9 active torsions:
REMARK  status: ('A' for Active; 'I' for Inactive)
REMARK    1  A    between atoms: C9_20  and  S1_1 
REMARK    2  A    between atoms: N1_10  and  S1_1 
REMARK    3  A    between atoms: C12_23  and  O2_3 
REMARK    4  A    between atoms: C17_28  and  O2_3 
REMARK    5  A    between atoms: C6_17  and  N1_10 
REMARK    6  A    between atoms: C25_36  and  N2_11 
REMARK    7  A    between atoms: C1_12  and  C7_18 
REMARK    8  A    between atoms: C6_17  and  C8_19 
REMARK    9  A    between atoms: C17_28  and  C8_19 
ROOT
HETATM    1  O1  UNK     1      18.797   3.910  30.669  1.00  0.00    -0.313 OA
HETATM    2  O3  UNK     1      17.803   4.582  34.556  1.00  0.00    -0.286 OA
HETATM    3  C1  UNK     1      18.233   5.499  32.403  1.00  0.00     0.054 A 
HETATM    4  C2  UNK     1      18.345   3.028  32.879  1.00  0.00     0.049 A 
HETATM    5  C3  UNK     1      18.680   2.861  31.540  1.00  0.00     0.092 A 
HETATM    6  C4  UNK     1      18.101   4.384  33.385  1.00  0.00     0.198 A 
HETATM    7  C5  UNK     1      18.567   5.201  31.130  1.00  0.00     0.065 A 
HETATM    8  C10 UNK     1      18.918   1.583  31.034  1.00  0.00     0.075 A 
HETATM    9  C11 UNK     1      18.242   1.918  33.724  1.00  0.00     0.021 A 
HETATM   10  C12 UNK     1      18.815   0.473  31.873  1.00  0.00     0.082 A 
HETATM   11  C13 UNK     1      18.478   0.641  33.216  1.00  0.00     0.038 A 
HETATM   12  C14 UNK     1      18.738   6.211  30.030  1.00  0.00     0.077 C 
ENDROOT
BRANCH  10  13
HETATM   13  O2  UNK     1      19.046  -0.775  31.380  1.00  0.00    -0.279 OA
BRANCH  13  14
HETATM   14  C17 UNK     1      20.409  -1.107  31.261  1.00  0.00     0.265 C 
HETATM   15  O6  UNK     1      21.301  -0.324  30.965  1.00  0.00    -0.265 OA
BRANCH  14  16
HETATM   16  C8  UNK     1      20.592  -2.585  31.541  1.00  0.00     0.132 C 
BRANCH  16  17
HETATM   17  C6  UNK     1      21.075  -2.864  32.957  1.00  0.00     0.142 C 
BRANCH  17  18
HETATM   18  N1  UNK     1      19.983  -2.616  33.926  1.00  0.00    -0.315 N 
HETATM   19  H5  UNK     1      19.091  -2.295  33.530  1.00  0.00     0.172 HD
BRANCH  18  20
HETATM   20  S1  UNK     1      20.352  -2.229  35.539  1.00  0.00     0.258 S 
HETATM   21  O4  UNK     1      19.297  -1.401  36.090  1.00  0.00    -0.201 OA
HETATM   22  O5  UNK     1      21.734  -1.794  35.612  1.00  0.00    -0.201 OA
BRANCH  20  23
HETATM   23  C9  UNK     1      20.269  -3.813  36.321  1.00  0.00     0.079 A 
HETATM   24  C18 UNK     1      19.503  -4.812  35.745  1.00  0.00     0.026 A 
HETATM   25  C21 UNK     1      19.438  -6.061  36.363  1.00  0.00     0.008 A 
HETATM   26  C20 UNK     1      20.140  -6.291  37.545  1.00  0.00    -0.062 A 
HETATM   27  C22 UNK     1      20.907  -5.273  38.112  1.00  0.00     0.008 A 
HETATM   28  C26 UNK     1      20.072  -7.627  38.205  1.00  0.00     0.048 C 
HETATM   29  C19 UNK     1      20.972  -4.024  37.494  1.00  0.00     0.026 A 
ENDBRANCH  20  23
ENDBRANCH  18  20
ENDBRANCH  17  18
ENDBRANCH  16  17
ENDBRANCH  14  16
ENDBRANCH  13  14
ENDBRANCH  10  13
BRANCH   3  30
HETATM   30  C7  UNK     1      18.002   6.869  32.844  1.00  0.00    -0.019 A 
HETATM   31  C15 UNK     1      16.729   7.426  32.744  1.00  0.00     0.015 A 
HETATM   32  C23 UNK     1      16.509   8.736  33.169  1.00  0.00     0.037 A 
HETATM   33  C25 UNK     1      17.561   9.486  33.693  1.00  0.00     0.102 A 
HETATM   34  C24 UNK     1      18.835   8.926  33.793  1.00  0.00     0.037 A 
HETATM   35  C16 UNK     1      19.056   7.616  33.368  1.00  0.00     0.015 A 
BRANCH  33  36
HETATM   36  N2  UNK     1      17.338  10.820  34.126  1.00  0.00    -0.116 N 
HETATM   37  O7  UNK     1      18.071  11.735  33.676  1.00  0.00    -0.532 OA
HETATM   38  O8  UNK     1      16.415  11.049  34.943  1.00  0.00    -0.532 OA
ENDBRANCH  33  36
ENDBRANCH   3  30
TORSDOF 9
ENDMDL
MODEL 10
REMARK VINA RESULT:     -10.0      1.988      2.741
REMARK  9 active torsions:
REMARK  status: ('A' for Active; 'I' for Inactive)
REMARK    1  A    between atoms: C9_20  and  S1_1 
REMARK    2  A    between atoms: N1_10  and  S1_1 
REMARK    3  A    between atoms: C12_23  and  O2_3 
REMARK    4  A    between atoms: C17_28  and  O2_3 
REMARK    5  A    between atoms: C6_17  and  N1_10 
REMARK    6  A    between atoms: C25_36  and  N2_11 
REMARK    7  A    between atoms: C1_12  and  C7_18 
REMARK    8  A    between atoms: C6_17  and  C8_19 
REMARK    9  A    between atoms: C17_28  and  C8_19 
ROOT
HETATM    1  O1  UNK     1      15.863   9.161  34.107  1.00  0.00    -0.313 OA
HETATM    2  O3  UNK     1      18.590  12.161  34.448  1.00  0.00    -0.286 OA
HETATM    3  C1  UNK     1      16.298  11.527  34.360  1.00  0.00     0.054 A 
HETATM    4  C2  UNK     1      18.181   9.860  34.207  1.00  0.00     0.049 A 
HETATM    5  C3  UNK     1      17.202   8.878  34.095  1.00  0.00     0.092 A 
HETATM    6  C4  UNK     1      17.765  11.261  34.346  1.00  0.00     0.198 A 
HETATM    7  C5  UNK     1      15.452  10.482  34.241  1.00  0.00     0.065 A 
HETATM    8  C10 UNK     1      17.569   7.538  33.961  1.00  0.00     0.075 A 
HETATM    9  C11 UNK     1      19.535   9.511  34.187  1.00  0.00     0.021 A 
HETATM   10  C12 UNK     1      18.918   7.186  33.942  1.00  0.00     0.082 A 
HETATM   11  C13 UNK     1      19.900   8.171  34.055  1.00  0.00     0.038 A 
HETATM   12  C14 UNK     1      13.953  10.590  34.236  1.00  0.00     0.077 C 
ENDROOT
BRANCH  10  13
HETATM   13  O2  UNK     1      19.278   5.880  33.812  1.00  0.00    -0.279 OA
BRANCH  13  14
HETATM   14  C17 UNK     1      18.766   5.250  32.661  1.00  0.00     0.265 C 
HETATM   15  O6  UNK     1      17.783   4.522  32.636  1.00  0.00    -0.265 OA
BRANCH  14  16
HETATM   16  C8  UNK     1      19.630   5.604  31.468  1.00  0.00     0.132 C 
BRANCH  16  17
HETATM   17  C6  UNK     1      19.128   4.987  30.170  1.00  0.00     0.142 C 
BRANCH  17  18
HETATM   18  N1  UNK     1      19.444   3.541  30.136  1.00  0.00    -0.315 N 
HETATM   19  H5  UNK     1      20.435   3.297  30.013  1.00  0.00     0.172 HD
BRANCH  18  20
HETATM   20  S1  UNK     1      18.258   2.425  29.654  1.00  0.00     0.258 S 
HETATM   21  O4  UNK     1      18.076   2.504  28.218  1.00  0.00    -0.201 OA
HETATM   22  O5  UNK     1      17.117   2.541  30.542  1.00  0.00    -0.201 OA
BRANCH  20  23
HETATM   23  C9  UNK     1      19.040   0.882  30.021  1.00  0.00     0.079 A 
HETATM   24  C18 UNK     1      18.998   0.393  31.315  1.00  0.00     0.026 A 
HETATM   25  C21 UNK     1      19.615  -0.825  31.603  1.00  0.00     0.008 A 
HETATM   26  C20 UNK     1      20.264  -1.533  30.593  1.00  0.00    -0.062 A 
HETATM   27  C22 UNK     1      20.298  -1.025  29.294  1.00  0.00     0.008 A 
HETATM   28  C26 UNK     1      20.923  -2.835  30.900  1.00  0.00     0.048 C 
HETATM   29  C19 UNK     1      19.681   0.192  29.006  1.00  0.00     0.026 A 
ENDBRANCH  20  23
ENDBRANCH  18  20
ENDBRANCH  17  18
ENDBRANCH  16  17
ENDBRANCH  14  16
ENDBRANCH  13  14
ENDBRANCH  10  13
BRANCH   3  30
HETATM   30  C7  UNK     1      15.824  12.898  34.497  1.00  0.00    -0.019 A 
HETATM   31  C15 UNK     1      15.742  13.483  35.758  1.00  0.00     0.015 A 
HETATM   32  C23 UNK     1      15.290  14.796  35.888  1.00  0.00     0.037 A 
HETATM   33  C25 UNK     1      14.921  15.522  34.756  1.00  0.00     0.102 A 
HETATM   34  C24 UNK     1      15.003  14.934  33.493  1.00  0.00     0.037 A 
HETATM   35  C16 UNK     1      15.454  13.621  33.364  1.00  0.00     0.015 A 
BRANCH  33  36
HETATM   36  N2  UNK     1      14.459  16.859  34.887  1.00  0.00    -0.116 N 
HETATM   37  O7  UNK     1      13.816  17.182  35.916  1.00  0.00    -0.532 OA
HETATM   38  O8  UNK     1      14.707  17.680  33.973  1.00  0.00    -0.532 OA
ENDBRANCH  33  36
ENDBRANCH   3  30
TORSDOF 9
ENDMDL
