MODEL 1
REMARK VINA RESULT:      -8.1      0.000      0.000
REMARK  2 active torsions:
REMARK  status: ('A' for Active; 'I' for Inactive)
REMARK    1  A    between atoms: N1_7  and  S1_1 
REMARK       I    between atoms: C5_13  and  N2_8 
REMARK    2  A    between atoms: C5_13  and  C7_15 
ROOT
HETATM    1  O3  UNK     1      20.745  -3.197  37.930  1.00  0.00    -0.267 OA
HETATM    2  N1  UNK     1      20.596  -7.877  36.352  1.00  0.00    -0.208 NA
HETATM    3  N2  UNK     1      20.056  -5.113  36.803  1.00  0.00    -0.345 N 
HETATM    4  C1  UNK     1      20.337  -6.970  35.195  1.00  0.00     0.127 C 
HETATM    5  C2  UNK     1      21.272  -7.154  37.469  1.00  0.00     0.127 C 
HETATM    6  C3  UNK     1      19.468  -5.797  35.642  1.00  0.00     0.141 C 
HETATM    7  C4  UNK     1      20.391  -5.997  37.921  1.00  0.00     0.141 C 
HETATM    8  C5  UNK     1      20.249  -3.740  36.941  1.00  0.00     0.260 C 
ENDROOT
BRANCH   8   9
HETATM    9  C7  UNK     1      19.823  -2.870  35.827  1.00  0.00     0.108 A 
HETATM   10  C8  UNK     1      20.509  -2.993  34.684  1.00  0.00     0.037 A 
HETATM   11  C10 UNK     1      20.165  -2.178  33.530  1.00  0.00    -0.001 A 
HETATM   12  C11 UNK     1      19.114  -1.272  33.636  1.00  0.00     0.089 A 
HETATM   13  C12 UNK     1      20.853  -2.273  32.318  1.00  0.00     0.014 A 
HETATM   14  O4  UNK     1      18.396  -1.145  34.841  1.00  0.00    -0.274 OA
HETATM   15  C13 UNK     1      18.735  -0.461  32.568  1.00  0.00     0.038 A 
HETATM   16  C9  UNK     1      18.703  -1.913  35.963  1.00  0.00     0.304 A 
HETATM   17  O5  UNK     1      18.073  -1.796  37.007  1.00  0.00    -0.259 OA
HETATM   18  C15 UNK     1      19.427  -0.562  31.363  1.00  0.00     0.003 A 
HETATM   19  C14 UNK     1      20.483  -1.466  31.238  1.00  0.00     0.001 A 
ENDBRANCH   8   9
BRANCH   2  20
HETATM   20  S1  UNK     1      21.265  -9.403  35.954  1.00  0.00     0.207 S 
HETATM   21  C6  UNK     1      22.844  -9.234  36.745  1.00  0.00     0.180 C 
HETATM   22  O1  UNK     1      21.483  -9.454  34.525  1.00  0.00    -0.212 OA
HETATM   23  O2  UNK     1      20.522 -10.430  36.648  1.00  0.00    -0.212 OA
ENDBRANCH   2  20
TORSDOF 2
ENDMDL
MODEL 2
REMARK VINA RESULT:      -8.1     12.239     14.325
REMARK  2 active torsions:
REMARK  status: ('A' for Active; 'I' for Inactive)
REMARK    1  A    between atoms: N1_7  and  S1_1 
REMARK       I    between atoms: C5_13  and  N2_8 
REMARK    2  A    between atoms: C5_13  and  C7_15 
ROOT
HETATM    1  O3  UNK     1      35.834  -5.838  36.330  1.00  0.00    -0.267 OA
HETATM    2  N1  UNK     1      34.952  -7.489  31.758  1.00  0.00    -0.208 NA
HETATM    3  N2  UNK     1      34.735  -6.794  34.516  1.00  0.00    -0.345 N 
HETATM    4  C1  UNK     1      33.742  -6.768  32.251  1.00  0.00     0.127 C 
HETATM    5  C2  UNK     1      36.169  -7.102  32.531  1.00  0.00     0.127 C 
HETATM    6  C3  UNK     1      33.525  -7.077  33.731  1.00  0.00     0.141 C 
HETATM    7  C4  UNK     1      35.952  -7.428  34.002  1.00  0.00     0.141 C 
HETATM    8  C5  UNK     1      34.801  -6.056  35.695  1.00  0.00     0.260 C 
ENDROOT
BRANCH   8   9
HETATM    9  C7  UNK     1      33.542  -5.500  36.230  1.00  0.00     0.108 A 
HETATM   10  C8  UNK     1      32.798  -6.327  36.973  1.00  0.00     0.037 A 
HETATM   11  C10 UNK     1      31.540  -5.870  37.543  1.00  0.00    -0.001 A 
HETATM   12  C11 UNK     1      31.126  -4.564  37.301  1.00  0.00     0.089 A 
HETATM   13  C12 UNK     1      30.732  -6.699  38.326  1.00  0.00     0.014 A 
HETATM   14  O4  UNK     1      31.913  -3.698  36.517  1.00  0.00    -0.274 OA
HETATM   15  C13 UNK     1      29.931  -4.066  37.817  1.00  0.00     0.038 A 
HETATM   16  C9  UNK     1      33.122  -4.107  35.959  1.00  0.00     0.304 A 
HETATM   17  O5  UNK     1      33.800  -3.347  35.277  1.00  0.00    -0.259 OA
HETATM   18  C15 UNK     1      29.131  -4.899  38.596  1.00  0.00     0.003 A 
HETATM   19  C14 UNK     1      29.531  -6.212  38.850  1.00  0.00     0.001 A 
ENDBRANCH   8   9
BRANCH   2  20
HETATM   20  S1  UNK     1      35.143  -7.523  30.056  1.00  0.00     0.207 S 
HETATM   21  C6  UNK     1      33.458  -7.816  29.588  1.00  0.00     0.180 C 
HETATM   22  O1  UNK     1      35.916  -8.692  29.700  1.00  0.00    -0.212 OA
HETATM   23  O2  UNK     1      35.511  -6.200  29.604  1.00  0.00    -0.212 OA
ENDBRANCH   2  20
TORSDOF 2
ENDMDL
MODEL 3
REMARK VINA RESULT:      -8.0      1.680      2.748
REMARK  2 active torsions:
REMARK  status: ('A' for Active; 'I' for Inactive)
REMARK    1  A    between atoms: N1_7  and  S1_1 
REMARK       I    between atoms: C5_13  and  N2_8 
REMARK    2  A    between atoms: C5_13  and  C7_15 
ROOT
HETATM    1  O3  UNK     1      21.432  -2.986  38.099  1.00  0.00    -0.267 OA
HETATM    2  N1  UNK     1      20.584  -7.597  36.541  1.00  0.00    -0.208 NA
HETATM    3  N2  UNK     1      20.318  -4.851  37.266  1.00  0.00    -0.345 N 
HETATM    4  C1  UNK     1      19.909  -6.643  35.612  1.00  0.00     0.127 C 
HETATM    5  C2  UNK     1      21.659  -6.922  37.326  1.00  0.00     0.127 C 
HETATM    6  C3  UNK     1      19.308  -5.486  36.407  1.00  0.00     0.141 C 
HETATM    7  C4  UNK     1      21.049  -5.781  38.130  1.00  0.00     0.141 C 
HETATM    8  C5  UNK     1      20.577  -3.486  37.367  1.00  0.00     0.260 C 
ENDROOT
BRANCH   8   9
HETATM    9  C7  UNK     1      19.764  -2.570  36.542  1.00  0.00     0.108 A 
HETATM   10  C8  UNK     1      18.745  -1.962  37.161  1.00  0.00     0.037 A 
HETATM   11  C10 UNK     1      17.887  -1.041  36.432  1.00  0.00    -0.001 A 
HETATM   12  C11 UNK     1      18.144  -0.806  35.085  1.00  0.00     0.089 A 
HETATM   13  C12 UNK     1      16.814  -0.384  37.038  1.00  0.00     0.014 A 
HETATM   14  O4  UNK     1      19.217  -1.449  34.438  1.00  0.00    -0.274 OA
HETATM   15  C13 UNK     1      17.359   0.063  34.330  1.00  0.00     0.038 A 
HETATM   16  C9  UNK     1      20.055  -2.335  35.110  1.00  0.00     0.304 A 
HETATM   17  O5  UNK     1      20.986  -2.891  34.539  1.00  0.00    -0.259 OA
HETATM   18  C15 UNK     1      16.290   0.714  34.942  1.00  0.00     0.003 A 
HETATM   19  C14 UNK     1      16.018   0.491  36.293  1.00  0.00     0.001 A 
ENDBRANCH   8   9
BRANCH   2  20
HETATM   20  S1  UNK     1      21.012  -9.107  35.857  1.00  0.00     0.207 S 
HETATM   21  C6  UNK     1      22.603  -9.319  36.614  1.00  0.00     0.180 C 
HETATM   22  O1  UNK     1      21.213  -8.932  34.435  1.00  0.00    -0.212 OA
HETATM   23  O2  UNK     1      20.127 -10.122  36.382  1.00  0.00    -0.212 OA
ENDBRANCH   2  20
TORSDOF 2
ENDMDL
MODEL 4
REMARK VINA RESULT:      -7.9     10.235     12.246
REMARK  2 active torsions:
REMARK  status: ('A' for Active; 'I' for Inactive)
REMARK    1  A    between atoms: N1_7  and  S1_1 
REMARK       I    between atoms: C5_13  and  N2_8 
REMARK    2  A    between atoms: C5_13  and  C7_15 
ROOT
HETATM    1  O3  UNK     1      29.933  -4.482  31.610  1.00  0.00    -0.267 OA
HETATM    2  N1  UNK     1      30.558  -8.909  29.507  1.00  0.00    -0.208 NA
HETATM    3  N2  UNK     1      30.691  -6.651  31.246  1.00  0.00    -0.345 N 
HETATM    4  C1  UNK     1      30.404  -9.093  30.980  1.00  0.00     0.127 C 
HETATM    5  C2  UNK     1      30.017  -7.590  29.065  1.00  0.00     0.127 C 
HETATM    6  C3  UNK     1      31.131  -7.972  31.720  1.00  0.00     0.141 C 
HETATM    7  C4  UNK     1      30.759  -6.477  29.793  1.00  0.00     0.141 C 
HETATM    8  C5  UNK     1      30.296  -5.578  32.041  1.00  0.00     0.260 C 
ENDROOT
BRANCH   8   9
HETATM    9  C7  UNK     1      30.319  -5.763  33.506  1.00  0.00     0.108 A 
HETATM   10  C8  UNK     1      31.436  -5.376  34.134  1.00  0.00     0.037 A 
HETATM   11  C10 UNK     1      31.553  -5.518  35.576  1.00  0.00    -0.001 A 
HETATM   12  C11 UNK     1      30.488  -6.061  36.287  1.00  0.00     0.089 A 
HETATM   13  C12 UNK     1      32.699  -5.127  36.272  1.00  0.00     0.014 A 
HETATM   14  O4  UNK     1      29.316  -6.468  35.622  1.00  0.00    -0.274 OA
HETATM   15  C13 UNK     1      30.538  -6.225  37.671  1.00  0.00     0.038 A 
HETATM   16  C9  UNK     1      29.174  -6.344  34.242  1.00  0.00     0.304 A 
HETATM   17  O5  UNK     1      28.150  -6.700  33.670  1.00  0.00    -0.259 OA
HETATM   18  C15 UNK     1      31.685  -5.833  38.357  1.00  0.00     0.003 A 
HETATM   19  C14 UNK     1      32.763  -5.285  37.660  1.00  0.00     0.001 A 
ENDBRANCH   8   9
BRANCH   2  20
HETATM   20  S1  UNK     1      30.096 -10.251  28.548  1.00  0.00     0.207 S 
HETATM   21  C6  UNK     1      28.349  -9.951  28.466  1.00  0.00     0.180 C 
HETATM   22  O1  UNK     1      30.307 -11.460  29.311  1.00  0.00    -0.212 OA
HETATM   23  O2  UNK     1      30.642 -10.082  27.220  1.00  0.00    -0.212 OA
ENDBRANCH   2  20
TORSDOF 2
ENDMDL
MODEL 5
REMARK VINA RESULT:      -7.9      3.769      7.799
REMARK  2 active torsions:
REMARK  status: ('A' for Active; 'I' for Inactive)
REMARK    1  A    between atoms: N1_7  and  S1_1 
REMARK       I    between atoms: C5_13  and  N2_8 
REMARK    2  A    between atoms: C5_13  and  C7_15 
ROOT
HETATM    1  O3  UNK     1      20.557  -3.574  34.499  1.00  0.00    -0.267 OA
HETATM    2  N1  UNK     1      17.788  -0.179  36.782  1.00  0.00    -0.208 NA
HETATM    3  N2  UNK     1      18.891  -2.626  35.819  1.00  0.00    -0.345 N 
HETATM    4  C1  UNK     1      18.054  -1.301  37.730  1.00  0.00     0.127 C 
HETATM    5  C2  UNK     1      18.778  -0.166  35.665  1.00  0.00     0.127 C 
HETATM    6  C3  UNK     1      17.996  -2.632  36.984  1.00  0.00     0.141 C 
HETATM    7  C4  UNK     1      18.702  -1.489  34.915  1.00  0.00     0.141 C 
HETATM    8  C5  UNK     1      19.820  -3.610  35.486  1.00  0.00     0.260 C 
ENDROOT
BRANCH   8   9
HETATM    9  C7  UNK     1      19.927  -4.784  36.375  1.00  0.00     0.108 A 
HETATM   10  C8  UNK     1      19.312  -5.898  35.962  1.00  0.00     0.037 A 
HETATM   11  C10 UNK     1      19.360  -7.106  36.770  1.00  0.00    -0.001 A 
HETATM   12  C11 UNK     1      20.054  -7.081  37.976  1.00  0.00     0.089 A 
HETATM   13  C12 UNK     1      18.734  -8.291  36.377  1.00  0.00     0.014 A 
HETATM   14  O4  UNK     1      20.699  -5.906  38.407  1.00  0.00    -0.274 OA
HETATM   15  C13 UNK     1      20.137  -8.204  38.797  1.00  0.00     0.038 A 
HETATM   16  C9  UNK     1      20.670  -4.734  37.654  1.00  0.00     0.304 A 
HETATM   17  O5  UNK     1      21.234  -3.715  38.037  1.00  0.00    -0.259 OA
HETATM   18  C15 UNK     1      19.509  -9.382  38.398  1.00  0.00     0.003 A 
HETATM   19  C14 UNK     1      18.809  -9.426  37.190  1.00  0.00     0.001 A 
ENDBRANCH   8   9
BRANCH   2  20
HETATM   20  S1  UNK     1      17.484   1.341  37.511  1.00  0.00     0.207 S 
HETATM   21  C6  UNK     1      18.575   2.345  36.537  1.00  0.00     0.180 C 
HETATM   22  O1  UNK     1      17.990   1.315  38.865  1.00  0.00    -0.212 OA
HETATM   23  O2  UNK     1      16.125   1.735  37.212  1.00  0.00    -0.212 OA
ENDBRANCH   2  20
TORSDOF 2
ENDMDL
MODEL 6
REMARK VINA RESULT:      -7.9      8.833     12.774
REMARK  2 active torsions:
REMARK  status: ('A' for Active; 'I' for Inactive)
REMARK    1  A    between atoms: N1_7  and  S1_1 
REMARK       I    between atoms: C5_13  and  N2_8 
REMARK    2  A    between atoms: C5_13  and  C7_15 
ROOT
HETATM    1  O3  UNK     1      20.220   6.103  33.408  1.00  0.00    -0.267 OA
HETATM    2  N1  UNK     1      16.119   8.832  33.790  1.00  0.00    -0.208 NA
HETATM    3  N2  UNK     1      17.997   6.763  33.216  1.00  0.00    -0.345 N 
HETATM    4  C1  UNK     1      15.785   7.413  34.109  1.00  0.00     0.127 C 
HETATM    5  C2  UNK     1      17.583   9.090  33.928  1.00  0.00     0.127 C 
HETATM    6  C3  UNK     1      16.556   6.479  33.178  1.00  0.00     0.141 C 
HETATM    7  C4  UNK     1      18.343   8.168  32.984  1.00  0.00     0.141 C 
HETATM    8  C5  UNK     1      19.019   5.831  33.382  1.00  0.00     0.260 C 
ENDROOT
BRANCH   8   9
HETATM    9  C7  UNK     1      18.637   4.412  33.530  1.00  0.00     0.108 A 
HETATM   10  C8  UNK     1      18.717   3.904  34.766  1.00  0.00     0.037 A 
HETATM   11  C10 UNK     1      18.363   2.515  35.013  1.00  0.00    -0.001 A 
HETATM   12  C11 UNK     1      17.943   1.728  33.945  1.00  0.00     0.089 A 
HETATM   13  C12 UNK     1      18.430   1.944  36.286  1.00  0.00     0.014 A 
HETATM   14  O4  UNK     1      17.861   2.267  32.647  1.00  0.00    -0.274 OA
HETATM   15  C13 UNK     1      17.590   0.391  34.114  1.00  0.00     0.038 A 
HETATM   16  C9  UNK     1      18.194   3.594  32.380  1.00  0.00     0.304 A 
HETATM   17  O5  UNK     1      18.121   4.055  31.247  1.00  0.00    -0.259 OA
HETATM   18  C15 UNK     1      17.661  -0.172  35.387  1.00  0.00     0.003 A 
HETATM   19  C14 UNK     1      18.079   0.603  36.470  1.00  0.00     0.001 A 
ENDBRANCH   8   9
BRANCH   2  20
HETATM   20  S1  UNK     1      15.097  10.005  34.505  1.00  0.00     0.207 S 
HETATM   21  C6  UNK     1      15.965  11.473  34.015  1.00  0.00     0.180 C 
HETATM   22  O1  UNK     1      15.193   9.888  35.943  1.00  0.00    -0.212 OA
HETATM   23  O2  UNK     1      13.823   9.989  33.822  1.00  0.00    -0.212 OA
ENDBRANCH   2  20
TORSDOF 2
ENDMDL
MODEL 7
REMARK VINA RESULT:      -7.8      9.317     11.459
REMARK  2 active torsions:
REMARK  status: ('A' for Active; 'I' for Inactive)
REMARK    1  A    between atoms: N1_7  and  S1_1 
REMARK       I    between atoms: C5_13  and  N2_8 
REMARK    2  A    between atoms: C5_13  and  C7_15 
ROOT
HETATM    1  O3  UNK     1      30.247  -4.151  39.401  1.00  0.00    -0.267 OA
HETATM    2  N1  UNK     1      27.054  -7.415  37.513  1.00  0.00    -0.208 NA
HETATM    3  N2  UNK     1      29.049  -5.404  37.849  1.00  0.00    -0.345 N 
HETATM    4  C1  UNK     1      28.340  -7.509  36.761  1.00  0.00     0.127 C 
HETATM    5  C2  UNK     1      27.248  -6.767  38.844  1.00  0.00     0.127 C 
HETATM    6  C3  UNK     1      28.927  -6.113  36.566  1.00  0.00     0.141 C 
HETATM    7  C4  UNK     1      27.817  -5.369  38.641  1.00  0.00     0.141 C 
HETATM    8  C5  UNK     1      30.178  -4.736  38.319  1.00  0.00     0.260 C 
ENDROOT
BRANCH   8   9
HETATM    9  C7  UNK     1      31.377  -4.722  37.458  1.00  0.00     0.108 A 
HETATM   10  C8  UNK     1      32.091  -5.853  37.418  1.00  0.00     0.037 A 
HETATM   11  C10 UNK     1      33.290  -5.936  36.598  1.00  0.00    -0.001 A 
HETATM   12  C11 UNK     1      33.678  -4.823  35.861  1.00  0.00     0.089 A 
HETATM   13  C12 UNK     1      34.064  -7.096  36.526  1.00  0.00     0.014 A 
HETATM   14  O4  UNK     1      32.924  -3.634  35.906  1.00  0.00    -0.274 OA
HETATM   15  C13 UNK     1      34.817  -4.836  35.057  1.00  0.00     0.038 A 
HETATM   16  C9  UNK     1      31.772  -3.525  36.682  1.00  0.00     0.304 A 
HETATM   17  O5  UNK     1      31.122  -2.487  36.716  1.00  0.00    -0.259 OA
HETATM   18  C15 UNK     1      35.584  -5.997  34.991  1.00  0.00     0.003 A 
HETATM   19  C14 UNK     1      35.208  -7.125  35.724  1.00  0.00     0.001 A 
ENDBRANCH   8   9
BRANCH   2  20
HETATM   20  S1  UNK     1      26.103  -8.839  37.523  1.00  0.00     0.207 S 
HETATM   21  C6  UNK     1      26.529  -9.452  39.132  1.00  0.00     0.180 C 
HETATM   22  O1  UNK     1      26.635  -9.757  36.540  1.00  0.00    -0.212 OA
HETATM   23  O2  UNK     1      24.707  -8.465  37.540  1.00  0.00    -0.212 OA
ENDBRANCH   2  20
TORSDOF 2
ENDMDL
MODEL 8
REMARK VINA RESULT:      -7.8      3.796      7.887
REMARK  2 active torsions:
REMARK  status: ('A' for Active; 'I' for Inactive)
REMARK    1  A    between atoms: N1_7  and  S1_1 
REMARK       I    between atoms: C5_13  and  N2_8 
REMARK    2  A    between atoms: C5_13  and  C7_15 
ROOT
HETATM    1  O3  UNK     1      20.437  -3.796  34.631  1.00  0.00    -0.267 OA
HETATM    2  N1  UNK     1      18.040  -0.208  37.037  1.00  0.00    -0.208 NA
HETATM    3  N2  UNK     1      18.958  -2.732  36.079  1.00  0.00    -0.345 N 
HETATM    4  C1  UNK     1      18.379  -1.292  38.004  1.00  0.00     0.127 C 
HETATM    5  C2  UNK     1      18.897  -0.279  35.817  1.00  0.00     0.127 C 
HETATM    6  C3  UNK     1      18.200  -2.654  37.336  1.00  0.00     0.141 C 
HETATM    7  C4  UNK     1      18.700  -1.632  35.147  1.00  0.00     0.141 C 
HETATM    8  C5  UNK     1      19.816  -3.761  35.695  1.00  0.00     0.260 C 
ENDROOT
BRANCH   8   9
HETATM    9  C7  UNK     1      19.989  -4.895  36.624  1.00  0.00     0.108 A 
HETATM   10  C8  UNK     1      21.156  -4.951  37.279  1.00  0.00     0.037 A 
HETATM   11  C10 UNK     1      21.420  -6.032  38.216  1.00  0.00    -0.001 A 
HETATM   12  C11 UNK     1      20.443  -7.001  38.417  1.00  0.00     0.089 A 
HETATM   13  C12 UNK     1      22.622  -6.129  38.920  1.00  0.00     0.014 A 
HETATM   14  O4  UNK     1      19.218  -6.938  37.725  1.00  0.00    -0.274 OA
HETATM   15  C13 UNK     1      20.635  -8.063  39.299  1.00  0.00     0.038 A 
HETATM   16  C9  UNK     1      18.936  -5.916  36.822  1.00  0.00     0.304 A 
HETATM   17  O5  UNK     1      17.868  -5.869  36.224  1.00  0.00    -0.259 OA
HETATM   18  C15 UNK     1      21.837  -8.153  39.998  1.00  0.00     0.003 A 
HETATM   19  C14 UNK     1      22.828  -7.188  39.809  1.00  0.00     0.001 A 
ENDBRANCH   8   9
BRANCH   2  20
HETATM   20  S1  UNK     1      17.862   1.354  37.718  1.00  0.00     0.207 S 
HETATM   21  C6  UNK     1      16.181   1.676  37.251  1.00  0.00     0.180 C 
HETATM   22  O1  UNK     1      18.711   2.274  36.995  1.00  0.00    -0.212 OA
HETATM   23  O2  UNK     1      17.913   1.240  39.158  1.00  0.00    -0.212 OA
ENDBRANCH   2  20
TORSDOF 2
ENDMDL
MODEL 9
REMARK VINA RESULT:      -7.7     29.209     30.773
REMARK  2 active torsions:
REMARK  status: ('A' for Active; 'I' for Inactive)
REMARK    1  A    between atoms: N1_7  and  S1_1 
REMARK       I    between atoms: C5_13  and  N2_8 
REMARK    2  A    between atoms: C5_13  and  C7_15 
ROOT
HETATM    1  O3  UNK     1      15.538   6.694   9.987  1.00  0.00    -0.267 OA
HETATM    2  N1  UNK     1      16.631  11.486   9.480  1.00  0.00    -0.208 NA
HETATM    3  N2  UNK     1      15.554   8.865   9.150  1.00  0.00    -0.345 N 
HETATM    4  C1  UNK     1      15.163  11.303   9.282  1.00  0.00     0.127 C 
HETATM    5  C2  UNK     1      17.228  10.333  10.216  1.00  0.00     0.127 C 
HETATM    6  C3  UNK     1      14.903  10.014   8.505  1.00  0.00     0.141 C 
HETATM    7  C4  UNK     1      16.980   9.054   9.427  1.00  0.00     0.141 C 
HETATM    8  C5  UNK     1      14.962   7.640   9.445  1.00  0.00     0.260 C 
ENDROOT
BRANCH   8   9
HETATM    9  C7  UNK     1      13.544   7.454   9.077  1.00  0.00     0.108 A 
HETATM   10  C8  UNK     1      13.307   7.021   7.833  1.00  0.00     0.037 A 
HETATM   11  C10 UNK     1      11.942   6.809   7.377  1.00  0.00    -0.001 A 
HETATM   12  C11 UNK     1      10.893   7.064   8.255  1.00  0.00     0.089 A 
HETATM   13  C12 UNK     1      11.649   6.357   6.089  1.00  0.00     0.014 A 
HETATM   14  O4  UNK     1      11.148   7.521   9.563  1.00  0.00    -0.274 OA
HETATM   15  C13 UNK     1       9.563   6.882   7.880  1.00  0.00     0.038 A 
HETATM   16  C9  UNK     1      12.444   7.733  10.027  1.00  0.00     0.304 A 
HETATM   17  O5  UNK     1      12.657   8.131  11.166  1.00  0.00    -0.259 OA
HETATM   18  C15 UNK     1       9.279   6.432   6.593  1.00  0.00     0.003 A 
HETATM   19  C14 UNK     1      10.319   6.169   5.699  1.00  0.00     0.001 A 
ENDBRANCH   8   9
BRANCH   2  20
HETATM   20  S1  UNK     1      17.110  13.035  10.031  1.00  0.00     0.207 S 
HETATM   21  C6  UNK     1      18.281  12.545  11.270  1.00  0.00     0.180 C 
HETATM   22  O1  UNK     1      15.987  13.657  10.698  1.00  0.00    -0.212 OA
HETATM   23  O2  UNK     1      17.831  13.702   8.971  1.00  0.00    -0.212 OA
ENDBRANCH   2  20
TORSDOF 2
ENDMDL
MODEL 10
REMARK VINA RESULT:      -7.7      7.781     10.326
REMARK  2 active torsions:
REMARK  status: ('A' for Active; 'I' for Inactive)
REMARK    1  A    between atoms: N1_7  and  S1_1 
REMARK       I    between atoms: C5_13  and  N2_8 
REMARK    2  A    between atoms: C5_13  and  C7_15 
ROOT
HETATM    1  O3  UNK     1      28.291 -10.173  39.134  1.00  0.00    -0.267 OA
HETATM    2  N1  UNK     1      30.584  -6.349  37.006  1.00  0.00    -0.208 NA
HETATM    3  N2  UNK     1      28.895  -8.583  37.546  1.00  0.00    -0.345 N 
HETATM    4  C1  UNK     1      29.128  -6.276  36.686  1.00  0.00     0.127 C 
HETATM    5  C2  UNK     1      30.836  -7.207  38.201  1.00  0.00     0.127 C 
HETATM    6  C3  UNK     1      28.585  -7.680  36.428  1.00  0.00     0.141 C 
HETATM    7  C4  UNK     1      30.308  -8.609  37.930  1.00  0.00     0.141 C 
HETATM    8  C5  UNK     1      27.999  -9.427  38.198  1.00  0.00     0.260 C 
ENDROOT
BRANCH   8   9
HETATM    9  C7  UNK     1      26.598  -9.436  37.731  1.00  0.00     0.108 A 
HETATM   10  C8  UNK     1      26.208 -10.519  37.049  1.00  0.00     0.037 A 
HETATM   11  C10 UNK     1      24.846 -10.620  36.547  1.00  0.00    -0.001 A 
HETATM   12  C11 UNK     1      23.962  -9.573  36.788  1.00  0.00     0.089 A 
HETATM   13  C12 UNK     1      24.396 -11.731  35.832  1.00  0.00     0.014 A 
HETATM   14  O4  UNK     1      24.377  -8.435  37.506  1.00  0.00    -0.274 OA
HETATM   15  C13 UNK     1      22.644  -9.607  36.334  1.00  0.00     0.038 A 
HETATM   16  C9  UNK     1      25.674  -8.311  37.999  1.00  0.00     0.304 A 
HETATM   17  O5  UNK     1      26.028  -7.316  38.622  1.00  0.00    -0.259 OA
HETATM   18  C15 UNK     1      22.203 -10.720  35.621  1.00  0.00     0.003 A 
HETATM   19  C14 UNK     1      23.077 -11.779  35.370  1.00  0.00     0.001 A 
ENDBRANCH   8   9
BRANCH   2  20
HETATM   20  S1  UNK     1      31.415  -4.852  36.989  1.00  0.00     0.207 S 
HETATM   21  C6  UNK     1      32.593  -5.167  38.278  1.00  0.00     0.180 C 
HETATM   22  O1  UNK     1      30.515  -3.818  37.449  1.00  0.00    -0.212 OA
HETATM   23  O2  UNK     1      32.136  -4.735  35.741  1.00  0.00    -0.212 OA
ENDBRANCH   2  20
TORSDOF 2
ENDMDL
