MODEL 1
REMARK VINA RESULT:      -9.1      0.000      0.000
REMARK  7 active torsions:
REMARK  status: ('A' for Active; 'I' for Inactive)
REMARK    1  A    between atoms: C5_9  and  O1_1 
REMARK    2  A    between atoms: C6_10  and  O1_1 
REMARK    3  A    between atoms: C1_5  and  C2_6 
REMARK    4  A    between atoms: C1_5  and  C3_7 
REMARK    5  A    between atoms: C1_5  and  C5_9 
REMARK    6  A    between atoms: C11_15  and  C13_17 
REMARK    7  A    between atoms: C13_17  and  C20_24 
ROOT
HETATM    1  O3  UNK     1      28.741  -5.802  39.612  1.00  0.00    -0.274 OA
HETATM    2  O4  UNK     1      29.817  -3.804  39.463  1.00  0.00    -0.259 OA
HETATM    3  C6  UNK     1      29.851  -6.521  37.132  1.00  0.00     0.104 A 
HETATM    4  C11 UNK     1      30.147  -5.314  37.652  1.00  0.00     0.057 A 
HETATM    5  C12 UNK     1      28.969  -7.450  37.842  1.00  0.00     0.033 A 
HETATM    6  C14 UNK     1      28.438  -7.060  39.067  1.00  0.00     0.092 A 
HETATM    7  C19 UNK     1      29.572  -4.898  38.965  1.00  0.00     0.297 A 
HETATM    8  C23 UNK     1      28.627  -8.718  37.354  1.00  0.00     0.017 A 
HETATM    9  C24 UNK     1      27.590  -7.886  39.807  1.00  0.00     0.038 A 
HETATM   10  C25 UNK     1      27.778  -9.558  38.084  1.00  0.00     0.001 A 
HETATM   11  C28 UNK     1      27.260  -9.142  39.310  1.00  0.00     0.003 A 
ENDROOT
BRANCH   3  12
HETATM   12  O1  UNK     1      30.324  -6.991  35.926  1.00  0.00    -0.276 OA
BRANCH  12  13
HETATM   13  C5  UNK     1      29.556  -6.644  34.834  1.00  0.00     0.281 C 
HETATM   14  O2  UNK     1      28.354  -6.398  34.861  1.00  0.00    -0.263 OA
BRANCH  13  15
HETATM   15  C1  UNK     1      30.420  -6.650  33.544  1.00  0.00     0.099 C 
HETATM   16  C4  UNK     1      30.714  -5.142  33.287  1.00  0.00     0.037 C 
BRANCH  15  17
HETATM   17  C2  UNK     1      31.708  -7.472  33.805  1.00  0.00    -0.035 A 
HETATM   18  C7  UNK     1      31.615  -8.564  34.621  1.00  0.00     0.009 A 
HETATM   19  C15 UNK     1      32.773  -9.304  34.856  1.00  0.00     0.001 A 
HETATM   20  C21 UNK     1      33.978  -8.920  34.265  1.00  0.00     0.000 A 
HETATM   21  C17 UNK     1      34.022  -7.797  33.438  1.00  0.00     0.001 A 
HETATM   22  C9  UNK     1      32.863  -7.058  33.203  1.00  0.00     0.009 A 
ENDBRANCH  15  17
BRANCH  15  23
HETATM   23  C3  UNK     1      29.671  -7.236  32.321  1.00  0.00    -0.035 A 
HETATM   24  C10 UNK     1      29.173  -8.505  32.423  1.00  0.00     0.009 A 
HETATM   25  C18 UNK     1      28.499  -9.033  31.323  1.00  0.00     0.001 A 
HETATM   26  C22 UNK     1      28.349  -8.271  30.165  1.00  0.00     0.000 A 
HETATM   27  C16 UNK     1      28.875  -6.980  30.108  1.00  0.00     0.001 A 
HETATM   28  C8  UNK     1      29.549  -6.452  31.209  1.00  0.00     0.009 A 
ENDBRANCH  15  23
ENDBRANCH  13  15
ENDBRANCH  12  13
ENDBRANCH   3  12
BRANCH   4  29
HETATM   29  C13 UNK     1      31.046  -4.285  37.021  1.00  0.00     0.086 C 
BRANCH  29  30
HETATM   30  C20 UNK     1      32.447  -4.790  36.841  1.00  0.00    -0.054 A 
HETATM   31  C26 UNK     1      32.980  -5.686  37.762  1.00  0.00     0.007 A 
HETATM   32  C29 UNK     1      34.282  -6.155  37.595  1.00  0.00     0.001 A 
HETATM   33  C31 UNK     1      35.045  -5.725  36.508  1.00  0.00     0.000 A 
HETATM   34  C30 UNK     1      34.505  -4.825  35.591  1.00  0.00     0.001 A 
HETATM   35  C27 UNK     1      33.202  -4.355  35.757  1.00  0.00     0.007 A 
ENDBRANCH  29  30
ENDBRANCH   4  29
TORSDOF 7
ENDMDL
MODEL 2
REMARK VINA RESULT:      -9.0      1.840      6.117
REMARK  7 active torsions:
REMARK  status: ('A' for Active; 'I' for Inactive)
REMARK    1  A    between atoms: C5_9  and  O1_1 
REMARK    2  A    between atoms: C6_10  and  O1_1 
REMARK    3  A    between atoms: C1_5  and  C2_6 
REMARK    4  A    between atoms: C1_5  and  C3_7 
REMARK    5  A    between atoms: C1_5  and  C5_9 
REMARK    6  A    between atoms: C11_15  and  C13_17 
REMARK    7  A    between atoms: C13_17  and  C20_24 
ROOT
HETATM    1  O3  UNK     1      31.176  -7.703  30.935  1.00  0.00    -0.274 OA
HETATM    2  O4  UNK     1      33.238  -8.340  31.652  1.00  0.00    -0.259 OA
HETATM    3  C6  UNK     1      30.364  -7.512  33.619  1.00  0.00     0.104 A 
HETATM    4  C11 UNK     1      31.630  -7.884  33.347  1.00  0.00     0.057 A 
HETATM    5  C12 UNK     1      29.421  -7.209  32.540  1.00  0.00     0.033 A 
HETATM    6  C14 UNK     1      29.858  -7.313  31.224  1.00  0.00     0.092 A 
HETATM    7  C19 UNK     1      32.094  -7.999  31.933  1.00  0.00     0.297 A 
HETATM    8  C23 UNK     1      28.094  -6.815  32.760  1.00  0.00     0.017 A 
HETATM    9  C24 UNK     1      29.024  -7.041  30.139  1.00  0.00     0.038 A 
HETATM   10  C25 UNK     1      27.245  -6.538  31.683  1.00  0.00     0.001 A 
HETATM   11  C28 UNK     1      27.710  -6.651  30.373  1.00  0.00     0.003 A 
ENDROOT
BRANCH   3  12
HETATM   12  O1  UNK     1      29.841  -7.386  34.888  1.00  0.00    -0.276 OA
BRANCH  12  13
HETATM   13  C5  UNK     1      29.500  -8.579  35.489  1.00  0.00     0.281 C 
HETATM   14  O2  UNK     1      28.974  -9.534  34.924  1.00  0.00    -0.263 OA
BRANCH  13  15
HETATM   15  C1  UNK     1      29.837  -8.535  37.004  1.00  0.00     0.099 C 
HETATM   16  C4  UNK     1      30.844  -9.707  37.195  1.00  0.00     0.037 C 
BRANCH  15  17
HETATM   17  C2  UNK     1      30.457  -7.155  37.341  1.00  0.00    -0.035 A 
HETATM   18  C7  UNK     1      29.760  -6.036  36.982  1.00  0.00     0.009 A 
HETATM   19  C15 UNK     1      30.318  -4.795  37.285  1.00  0.00     0.001 A 
HETATM   20  C21 UNK     1      31.551  -4.723  37.934  1.00  0.00     0.000 A 
HETATM   21  C17 UNK     1      32.225  -5.895  38.282  1.00  0.00     0.001 A 
HETATM   22  C9  UNK     1      31.666  -7.137  37.978  1.00  0.00     0.009 A 
ENDBRANCH  15  17
BRANCH  15  23
HETATM   23  C3  UNK     1      28.598  -8.779  37.903  1.00  0.00    -0.035 A 
HETATM   24  C10 UNK     1      27.426  -8.167  37.557  1.00  0.00     0.009 A 
HETATM   25  C18 UNK     1      26.311  -8.386  38.365  1.00  0.00     0.001 A 
HETATM   26  C22 UNK     1      26.414  -9.209  39.487  1.00  0.00     0.000 A 
HETATM   27  C16 UNK     1      27.633  -9.811  39.800  1.00  0.00     0.001 A 
HETATM   28  C8  UNK     1      28.747  -9.592  38.991  1.00  0.00     0.009 A 
ENDBRANCH  15  23
ENDBRANCH  13  15
ENDBRANCH  12  13
ENDBRANCH   3  12
BRANCH   4  29
HETATM   29  C13 UNK     1      32.686  -8.209  34.369  1.00  0.00     0.086 C 
BRANCH  29  30
HETATM   30  C20 UNK     1      33.416  -6.985  34.839  1.00  0.00    -0.054 A 
HETATM   31  C26 UNK     1      32.942  -5.725  34.491  1.00  0.00     0.007 A 
HETATM   32  C29 UNK     1      33.621  -4.588  34.928  1.00  0.00     0.001 A 
HETATM   33  C31 UNK     1      34.769  -4.717  35.710  1.00  0.00     0.000 A 
HETATM   34  C30 UNK     1      35.238  -5.984  36.054  1.00  0.00     0.001 A 
HETATM   35  C27 UNK     1      34.560  -7.123  35.617  1.00  0.00     0.007 A 
ENDBRANCH  29  30
ENDBRANCH   4  29
TORSDOF 7
ENDMDL
MODEL 3
REMARK VINA RESULT:      -8.9      0.770      3.139
REMARK  7 active torsions:
REMARK  status: ('A' for Active; 'I' for Inactive)
REMARK    1  A    between atoms: C5_9  and  O1_1 
REMARK    2  A    between atoms: C6_10  and  O1_1 
REMARK    3  A    between atoms: C1_5  and  C2_6 
REMARK    4  A    between atoms: C1_5  and  C3_7 
REMARK    5  A    between atoms: C1_5  and  C5_9 
REMARK    6  A    between atoms: C11_15  and  C13_17 
REMARK    7  A    between atoms: C13_17  and  C20_24 
ROOT
HETATM    1  O3  UNK     1      28.406  -6.143  39.752  1.00  0.00    -0.274 OA
HETATM    2  O4  UNK     1      29.309  -4.060  39.628  1.00  0.00    -0.259 OA
HETATM    3  C6  UNK     1      29.527  -6.717  37.240  1.00  0.00     0.104 A 
HETATM    4  C11 UNK     1      29.731  -5.500  37.780  1.00  0.00     0.057 A 
HETATM    5  C12 UNK     1      28.738  -7.730  37.943  1.00  0.00     0.033 A 
HETATM    6  C14 UNK     1      28.199  -7.411  39.186  1.00  0.00     0.092 A 
HETATM    7  C19 UNK     1      29.147  -5.160  39.111  1.00  0.00     0.297 A 
HETATM    8  C23 UNK     1      28.494  -9.013  37.434  1.00  0.00     0.017 A 
HETATM    9  C24 UNK     1      27.437  -8.319  39.921  1.00  0.00     0.038 A 
HETATM   10  C25 UNK     1      27.732  -9.935  38.159  1.00  0.00     0.001 A 
HETATM   11  C28 UNK     1      27.203  -9.588  39.402  1.00  0.00     0.003 A 
ENDROOT
BRANCH   3  12
HETATM   12  O1  UNK     1      30.016  -7.121  36.016  1.00  0.00    -0.276 OA
BRANCH  12  13
HETATM   13  C5  UNK     1      29.102  -7.061  34.985  1.00  0.00     0.281 C 
HETATM   14  O2  UNK     1      27.985  -6.557  35.054  1.00  0.00    -0.263 OA
BRANCH  13  15
HETATM   15  C1  UNK     1      29.668  -7.765  33.722  1.00  0.00     0.099 C 
HETATM   16  C4  UNK     1      28.719  -8.983  33.518  1.00  0.00     0.037 C 
BRANCH  15  17
HETATM   17  C2  UNK     1      29.626  -6.772  32.532  1.00  0.00    -0.035 A 
HETATM   18  C7  UNK     1      29.305  -7.265  31.299  1.00  0.00     0.009 A 
HETATM   19  C15 UNK     1      29.268  -6.371  30.229  1.00  0.00     0.001 A 
HETATM   20  C21 UNK     1      29.552  -5.021  30.437  1.00  0.00     0.000 A 
HETATM   21  C17 UNK     1      29.873  -4.565  31.716  1.00  0.00     0.001 A 
HETATM   22  C9  UNK     1      29.911  -5.460  32.786  1.00  0.00     0.009 A 
ENDBRANCH  15  17
BRANCH  15  23
HETATM   23  C3  UNK     1      31.117  -8.278  33.917  1.00  0.00    -0.035 A 
HETATM   24  C10 UNK     1      31.288  -9.535  34.426  1.00  0.00     0.009 A 
HETATM   25  C18 UNK     1      32.592  -9.996  34.602  1.00  0.00     0.001 A 
HETATM   26  C22 UNK     1      33.672  -9.182  34.262  1.00  0.00     0.000 A 
HETATM   27  C16 UNK     1      33.447  -7.905  33.746  1.00  0.00     0.001 A 
HETATM   28  C8  UNK     1      32.143  -7.445  33.570  1.00  0.00     0.009 A 
ENDBRANCH  15  23
ENDBRANCH  13  15
ENDBRANCH  12  13
ENDBRANCH   3  12
BRANCH   4  29
HETATM   29  C13 UNK     1      30.530  -4.387  37.158  1.00  0.00     0.086 C 
BRANCH  29  30
HETATM   30  C20 UNK     1      31.954  -4.785  36.903  1.00  0.00    -0.054 A 
HETATM   31  C26 UNK     1      32.577  -4.395  35.722  1.00  0.00     0.007 A 
HETATM   32  C29 UNK     1      33.900  -4.765  35.485  1.00  0.00     0.001 A 
HETATM   33  C31 UNK     1      34.593  -5.523  36.429  1.00  0.00     0.000 A 
HETATM   34  C30 UNK     1      33.961  -5.911  37.610  1.00  0.00     0.001 A 
HETATM   35  C27 UNK     1      32.637  -5.542  37.848  1.00  0.00     0.007 A 
ENDBRANCH  29  30
ENDBRANCH   4  29
TORSDOF 7
ENDMDL
MODEL 4
REMARK VINA RESULT:      -8.7      2.098      7.095
REMARK  7 active torsions:
REMARK  status: ('A' for Active; 'I' for Inactive)
REMARK    1  A    between atoms: C5_9  and  O1_1 
REMARK    2  A    between atoms: C6_10  and  O1_1 
REMARK    3  A    between atoms: C1_5  and  C2_6 
REMARK    4  A    between atoms: C1_5  and  C3_7 
REMARK    5  A    between atoms: C1_5  and  C5_9 
REMARK    6  A    between atoms: C11_15  and  C13_17 
REMARK    7  A    between atoms: C13_17  and  C20_24 
ROOT
HETATM    1  O3  UNK     1      33.325  -7.883  31.696  1.00  0.00    -0.274 OA
HETATM    2  O4  UNK     1      31.751  -9.062  30.553  1.00  0.00    -0.259 OA
HETATM    3  C6  UNK     1      31.663  -7.969  33.961  1.00  0.00     0.104 A 
HETATM    4  C11 UNK     1      31.248  -8.564  32.826  1.00  0.00     0.057 A 
HETATM    5  C12 UNK     1      32.959  -7.288  34.023  1.00  0.00     0.033 A 
HETATM    6  C14 UNK     1      33.755  -7.267  32.883  1.00  0.00     0.092 A 
HETATM    7  C19 UNK     1      32.103  -8.534  31.604  1.00  0.00     0.297 A 
HETATM    8  C23 UNK     1      33.446  -6.655  35.174  1.00  0.00     0.017 A 
HETATM    9  C24 UNK     1      35.002  -6.641  32.858  1.00  0.00     0.038 A 
HETATM   10  C25 UNK     1      34.695  -6.023  35.166  1.00  0.00     0.001 A 
HETATM   11  C28 UNK     1      35.472  -6.016  34.008  1.00  0.00     0.003 A 
ENDROOT
BRANCH   3  12
HETATM   12  O1  UNK     1      30.944  -7.935  35.136  1.00  0.00    -0.276 OA
BRANCH  12  13
HETATM   13  C5  UNK     1      31.163  -9.008  35.974  1.00  0.00     0.281 C 
HETATM   14  O2  UNK     1      31.785 -10.024  35.679  1.00  0.00    -0.263 OA
BRANCH  13  15
HETATM   15  C1  UNK     1      30.474  -8.770  37.346  1.00  0.00     0.099 C 
HETATM   16  C4  UNK     1      31.277  -9.674  38.327  1.00  0.00     0.037 C 
BRANCH  15  17
HETATM   17  C2  UNK     1      30.573  -7.265  37.704  1.00  0.00    -0.035 A 
HETATM   18  C7  UNK     1      31.729  -6.821  38.281  1.00  0.00     0.009 A 
HETATM   19  C15 UNK     1      31.819  -5.467  38.604  1.00  0.00     0.001 A 
HETATM   20  C21 UNK     1      30.749  -4.613  38.335  1.00  0.00     0.000 A 
HETATM   21  C17 UNK     1      29.589  -5.114  37.742  1.00  0.00     0.001 A 
HETATM   22  C9  UNK     1      29.500  -6.469  37.420  1.00  0.00     0.009 A 
ENDBRANCH  15  17
BRANCH  15  23
HETATM   23  C3  UNK     1      28.987  -9.207  37.354  1.00  0.00    -0.035 A 
HETATM   24  C10 UNK     1      28.384  -9.399  38.566  1.00  0.00     0.009 A 
HETATM   25  C18 UNK     1      27.046  -9.792  38.574  1.00  0.00     0.001 A 
HETATM   26  C22 UNK     1      26.366  -9.977  37.370  1.00  0.00     0.000 A 
HETATM   27  C16 UNK     1      27.025  -9.770  36.159  1.00  0.00     0.001 A 
HETATM   28  C8  UNK     1      28.363  -9.376  36.151  1.00  0.00     0.009 A 
ENDBRANCH  15  23
ENDBRANCH  13  15
ENDBRANCH  12  13
ENDBRANCH   3  12
BRANCH   4  29
HETATM   29  C13 UNK     1      29.947  -9.299  32.648  1.00  0.00     0.086 C 
BRANCH  29  30
HETATM   30  C20 UNK     1      28.877  -8.426  32.061  1.00  0.00    -0.054 A 
HETATM   31  C26 UNK     1      28.277  -8.786  30.860  1.00  0.00     0.007 A 
HETATM   32  C29 UNK     1      27.284  -7.974  30.314  1.00  0.00     0.001 A 
HETATM   33  C31 UNK     1      26.896  -6.807  30.972  1.00  0.00     0.000 A 
HETATM   34  C30 UNK     1      27.503  -6.452  32.176  1.00  0.00     0.001 A 
HETATM   35  C27 UNK     1      28.497  -7.264  32.723  1.00  0.00     0.007 A 
ENDBRANCH  29  30
ENDBRANCH   4  29
TORSDOF 7
ENDMDL
MODEL 5
REMARK VINA RESULT:      -8.6      2.376      6.410
REMARK  7 active torsions:
REMARK  status: ('A' for Active; 'I' for Inactive)
REMARK    1  A    between atoms: C5_9  and  O1_1 
REMARK    2  A    between atoms: C6_10  and  O1_1 
REMARK    3  A    between atoms: C1_5  and  C2_6 
REMARK    4  A    between atoms: C1_5  and  C3_7 
REMARK    5  A    between atoms: C1_5  and  C5_9 
REMARK    6  A    between atoms: C11_15  and  C13_17 
REMARK    7  A    between atoms: C13_17  and  C20_24 
ROOT
HETATM    1  O3  UNK     1      34.884  -6.185  33.358  1.00  0.00    -0.274 OA
HETATM    2  O4  UNK     1      35.143  -7.957  31.956  1.00  0.00    -0.259 OA
HETATM    3  C6  UNK     1      32.182  -6.894  33.664  1.00  0.00     0.104 A 
HETATM    4  C11 UNK     1      32.966  -7.646  32.867  1.00  0.00     0.057 A 
HETATM    5  C12 UNK     1      32.721  -5.726  34.364  1.00  0.00     0.033 A 
HETATM    6  C14 UNK     1      34.063  -5.406  34.190  1.00  0.00     0.092 A 
HETATM    7  C19 UNK     1      34.404  -7.296  32.679  1.00  0.00     0.297 A 
HETATM    8  C23 UNK     1      31.957  -4.908  35.207  1.00  0.00     0.017 A 
HETATM    9  C24 UNK     1      34.655  -4.311  34.821  1.00  0.00     0.038 A 
HETATM   10  C25 UNK     1      32.535  -3.807  35.848  1.00  0.00     0.001 A 
HETATM   11  C28 UNK     1      33.883  -3.508  35.655  1.00  0.00     0.003 A 
ENDROOT
BRANCH   3  12
HETATM   12  O1  UNK     1      30.844  -7.131  33.894  1.00  0.00    -0.276 OA
BRANCH  12  13
HETATM   13  C5  UNK     1      30.587  -8.161  34.774  1.00  0.00     0.281 C 
HETATM   14  O2  UNK     1      31.282  -8.460  35.740  1.00  0.00    -0.263 OA
BRANCH  13  15
HETATM   15  C1  UNK     1      29.305  -8.927  34.348  1.00  0.00     0.099 C 
HETATM   16  C4  UNK     1      29.806 -10.380  34.096  1.00  0.00     0.037 C 
BRANCH  15  17
HETATM   17  C2  UNK     1      28.266  -8.846  35.496  1.00  0.00    -0.035 A 
HETATM   18  C7  UNK     1      27.434  -9.913  35.682  1.00  0.00     0.009 A 
HETATM   19  C15 UNK     1      26.499  -9.840  36.714  1.00  0.00     0.001 A 
HETATM   20  C21 UNK     1      26.436  -8.702  37.519  1.00  0.00     0.000 A 
HETATM   21  C17 UNK     1      27.309  -7.637  37.291  1.00  0.00     0.001 A 
HETATM   22  C9  UNK     1      28.243  -7.711  36.257  1.00  0.00     0.009 A 
ENDBRANCH  15  17
BRANCH  15  23
HETATM   23  C3  UNK     1      28.679  -8.372  33.043  1.00  0.00    -0.035 A 
HETATM   24  C10 UNK     1      28.646  -9.192  31.950  1.00  0.00     0.009 A 
HETATM   25  C18 UNK     1      28.083  -8.693  30.776  1.00  0.00     0.001 A 
HETATM   26  C22 UNK     1      27.575  -7.394  30.743  1.00  0.00     0.000 A 
HETATM   27  C16 UNK     1      27.632  -6.595  31.885  1.00  0.00     0.001 A 
HETATM   28  C8  UNK     1      28.195  -7.095  33.059  1.00  0.00     0.009 A 
ENDBRANCH  15  23
ENDBRANCH  13  15
ENDBRANCH  12  13
ENDBRANCH   3  12
BRANCH   4  29
HETATM   29  C13 UNK     1      32.527  -8.870  32.109  1.00  0.00     0.086 C 
BRANCH  29  30
HETATM   30  C20 UNK     1      31.927  -8.527  30.777  1.00  0.00    -0.054 A 
HETATM   31  C26 UNK     1      31.558  -7.214  30.506  1.00  0.00     0.007 A 
HETATM   32  C29 UNK     1      30.999  -6.896  29.268  1.00  0.00     0.001 A 
HETATM   33  C31 UNK     1      30.813  -7.892  28.309  1.00  0.00     0.000 A 
HETATM   34  C30 UNK     1      31.186  -9.206  28.589  1.00  0.00     0.001 A 
HETATM   35  C27 UNK     1      31.744  -9.526  29.827  1.00  0.00     0.007 A 
ENDBRANCH  29  30
ENDBRANCH   4  29
TORSDOF 7
ENDMDL
MODEL 6
REMARK VINA RESULT:      -8.6      2.330      4.978
REMARK  7 active torsions:
REMARK  status: ('A' for Active; 'I' for Inactive)
REMARK    1  A    between atoms: C5_9  and  O1_1 
REMARK    2  A    between atoms: C6_10  and  O1_1 
REMARK    3  A    between atoms: C1_5  and  C2_6 
REMARK    4  A    between atoms: C1_5  and  C3_7 
REMARK    5  A    between atoms: C1_5  and  C5_9 
REMARK    6  A    between atoms: C11_15  and  C13_17 
REMARK    7  A    between atoms: C13_17  and  C20_24 
ROOT
HETATM    1  O3  UNK     1      29.471  -6.378  36.472  1.00  0.00    -0.274 OA
HETATM    2  O4  UNK     1      27.914  -8.001  36.132  1.00  0.00    -0.259 OA
HETATM    3  C6  UNK     1      30.568  -6.983  33.957  1.00  0.00     0.104 A 
HETATM    4  C11 UNK     1      29.495  -7.676  34.381  1.00  0.00     0.057 A 
HETATM    5  C12 UNK     1      31.159  -5.928  34.784  1.00  0.00     0.033 A 
HETATM    6  C14 UNK     1      30.588  -5.655  36.023  1.00  0.00     0.092 A 
HETATM    7  C19 UNK     1      28.889  -7.384  35.713  1.00  0.00     0.297 A 
HETATM    8  C23 UNK     1      32.272  -5.171  34.395  1.00  0.00     0.017 A 
HETATM    9  C24 UNK     1      31.089  -4.667  36.871  1.00  0.00     0.038 A 
HETATM   10  C25 UNK     1      32.786  -4.176  35.234  1.00  0.00     0.001 A 
HETATM   11  C28 UNK     1      32.195  -3.925  36.472  1.00  0.00     0.003 A 
ENDROOT
BRANCH   3  12
HETATM   12  O1  UNK     1      31.202  -7.184  32.749  1.00  0.00    -0.276 OA
BRANCH  12  13
HETATM   13  C5  UNK     1      30.645  -6.501  31.688  1.00  0.00     0.281 C 
HETATM   14  O2  UNK     1      29.881  -5.545  31.781  1.00  0.00    -0.263 OA
BRANCH  13  15
HETATM   15  C1  UNK     1      31.088  -7.140  30.344  1.00  0.00     0.099 C 
HETATM   16  C4  UNK     1      31.272  -5.919  29.394  1.00  0.00     0.037 C 
BRANCH  15  17
HETATM   17  C2  UNK     1      32.407  -7.923  30.570  1.00  0.00    -0.035 A 
HETATM   18  C7  UNK     1      32.342  -9.094  31.271  1.00  0.00     0.009 A 
HETATM   19  C15 UNK     1      33.529  -9.798  31.475  1.00  0.00     0.001 A 
HETATM   20  C21 UNK     1      34.731  -9.302  30.969  1.00  0.00     0.000 A 
HETATM   21  C17 UNK     1      34.745  -8.101  30.258  1.00  0.00     0.001 A 
HETATM   22  C9  UNK     1      33.558  -7.397  30.055  1.00  0.00     0.009 A 
ENDBRANCH  15  17
BRANCH  15  23
HETATM   23  C3  UNK     1      30.018  -8.090  29.748  1.00  0.00    -0.035 A 
HETATM   24  C10 UNK     1      30.407  -8.954  28.763  1.00  0.00     0.009 A 
HETATM   25  C18 UNK     1      29.445  -9.809  28.227  1.00  0.00     0.001 A 
HETATM   26  C22 UNK     1      28.132  -9.764  28.698  1.00  0.00     0.000 A 
HETATM   27  C16 UNK     1      27.783  -8.864  29.704  1.00  0.00     0.001 A 
HETATM   28  C8  UNK     1      28.746  -8.010  30.240  1.00  0.00     0.009 A 
ENDBRANCH  15  23
ENDBRANCH  13  15
ENDBRANCH  12  13
ENDBRANCH   3  12
BRANCH   4  29
HETATM   29  C13 UNK     1      28.799  -8.770  33.616  1.00  0.00     0.086 C 
BRANCH  29  30
HETATM   30  C20 UNK     1      29.636 -10.010  33.512  1.00  0.00    -0.054 A 
HETATM   31  C26 UNK     1      30.500 -10.347  34.548  1.00  0.00     0.007 A 
HETATM   32  C29 UNK     1      31.279 -11.500  34.450  1.00  0.00     0.001 A 
HETATM   33  C31 UNK     1      31.189 -12.308  33.317  1.00  0.00     0.000 A 
HETATM   34  C30 UNK     1      30.321 -11.964  32.282  1.00  0.00     0.001 A 
HETATM   35  C27 UNK     1      29.542 -10.811  32.379  1.00  0.00     0.007 A 
ENDBRANCH  29  30
ENDBRANCH   4  29
TORSDOF 7
ENDMDL
MODEL 7
REMARK VINA RESULT:      -8.6      2.246      6.891
REMARK  7 active torsions:
REMARK  status: ('A' for Active; 'I' for Inactive)
REMARK    1  A    between atoms: C5_9  and  O1_1 
REMARK    2  A    between atoms: C6_10  and  O1_1 
REMARK    3  A    between atoms: C1_5  and  C2_6 
REMARK    4  A    between atoms: C1_5  and  C3_7 
REMARK    5  A    between atoms: C1_5  and  C5_9 
REMARK    6  A    between atoms: C11_15  and  C13_17 
REMARK    7  A    between atoms: C13_17  and  C20_24 
ROOT
HETATM    1  O3  UNK     1      34.642 -10.349  32.971  1.00  0.00    -0.274 OA
HETATM    2  O4  UNK     1      32.870 -11.648  32.384  1.00  0.00    -0.259 OA
HETATM    3  C6  UNK     1      32.837  -8.415  33.920  1.00  0.00     0.104 A 
HETATM    4  C11 UNK     1      32.351  -9.555  33.392  1.00  0.00     0.057 A 
HETATM    5  C12 UNK     1      34.280  -8.180  34.003  1.00  0.00     0.033 A 
HETATM    6  C14 UNK     1      35.144  -9.160  33.525  1.00  0.00     0.092 A 
HETATM    7  C19 UNK     1      33.281 -10.602  32.875  1.00  0.00     0.297 A 
HETATM    8  C23 UNK     1      34.845  -7.017  34.544  1.00  0.00     0.017 A 
HETATM    9  C24 UNK     1      36.531  -9.014  33.568  1.00  0.00     0.038 A 
HETATM   10  C25 UNK     1      36.234  -6.855  34.595  1.00  0.00     0.001 A 
HETATM   11  C28 UNK     1      37.076  -7.854  34.107  1.00  0.00     0.003 A 
ENDROOT
BRANCH   3  12
HETATM   12  O1  UNK     1      32.061  -7.389  34.414  1.00  0.00    -0.276 OA
BRANCH  12  13
HETATM   13  C5  UNK     1      31.545  -7.615  35.673  1.00  0.00     0.281 C 
HETATM   14  O2  UNK     1      32.152  -8.130  36.607  1.00  0.00    -0.263 OA
BRANCH  13  15
HETATM   15  C1  UNK     1      30.061  -7.162  35.737  1.00  0.00     0.099 C 
HETATM   16  C4  UNK     1      29.278  -8.487  35.972  1.00  0.00     0.037 C 
BRANCH  15  17
HETATM   17  C2  UNK     1      29.893  -6.155  36.904  1.00  0.00    -0.035 A 
HETATM   18  C7  UNK     1      30.549  -4.960  36.817  1.00  0.00     0.009 A 
HETATM   19  C15 UNK     1      30.398  -4.054  37.867  1.00  0.00     0.001 A 
HETATM   20  C21 UNK     1      29.596  -4.382  38.961  1.00  0.00     0.000 A 
HETATM   21  C17 UNK     1      28.946  -5.616  39.004  1.00  0.00     0.001 A 
HETATM   22  C9  UNK     1      29.097  -6.521  37.953  1.00  0.00     0.009 A 
ENDBRANCH  15  17
BRANCH  15  23
HETATM   23  C3  UNK     1      29.574  -6.511  34.418  1.00  0.00    -0.035 A 
HETATM   24  C10 UNK     1      28.251  -6.631  34.096  1.00  0.00     0.009 A 
HETATM   25  C18 UNK     1      27.812  -6.045  32.909  1.00  0.00     0.001 A 
HETATM   26  C22 UNK     1      28.715  -5.363  32.092  1.00  0.00     0.000 A 
HETATM   27  C16 UNK     1      30.056  -5.268  32.463  1.00  0.00     0.001 A 
HETATM   28  C8  UNK     1      30.494  -5.854  33.651  1.00  0.00     0.009 A 
ENDBRANCH  15  23
ENDBRANCH  13  15
ENDBRANCH  12  13
ENDBRANCH   3  12
BRANCH   4  29
HETATM   29  C13 UNK     1      30.894  -9.910  33.264  1.00  0.00     0.086 C 
BRANCH  29  30
HETATM   30  C20 UNK     1      30.266  -9.300  32.046  1.00  0.00    -0.054 A 
HETATM   31  C26 UNK     1      28.900  -9.446  31.830  1.00  0.00     0.007 A 
HETATM   32  C29 UNK     1      28.316  -8.879  30.697  1.00  0.00     0.001 A 
HETATM   33  C31 UNK     1      29.102  -8.171  29.787  1.00  0.00     0.000 A 
HETATM   34  C30 UNK     1      30.471  -8.030  30.011  1.00  0.00     0.001 A 
HETATM   35  C27 UNK     1      31.056  -8.596  31.143  1.00  0.00     0.007 A 
ENDBRANCH  29  30
ENDBRANCH   4  29
TORSDOF 7
ENDMDL
MODEL 8
REMARK VINA RESULT:      -8.6      2.434      6.196
REMARK  7 active torsions:
REMARK  status: ('A' for Active; 'I' for Inactive)
REMARK    1  A    between atoms: C5_9  and  O1_1 
REMARK    2  A    between atoms: C6_10  and  O1_1 
REMARK    3  A    between atoms: C1_5  and  C2_6 
REMARK    4  A    between atoms: C1_5  and  C3_7 
REMARK    5  A    between atoms: C1_5  and  C5_9 
REMARK    6  A    between atoms: C11_15  and  C13_17 
REMARK    7  A    between atoms: C13_17  and  C20_24 
ROOT
HETATM    1  O3  UNK     1      31.913  -9.737  31.638  1.00  0.00    -0.274 OA
HETATM    2  O4  UNK     1      31.896  -7.470  31.457  1.00  0.00    -0.259 OA
HETATM    3  C6  UNK     1      31.550  -9.462  34.411  1.00  0.00     0.104 A 
HETATM    4  C11 UNK     1      31.623  -8.352  33.652  1.00  0.00     0.057 A 
HETATM    5  C12 UNK     1      31.655 -10.793  33.810  1.00  0.00     0.033 A 
HETATM    6  C14 UNK     1      31.834 -10.891  32.434  1.00  0.00     0.092 A 
HETATM    7  C19 UNK     1      31.819  -8.461  32.176  1.00  0.00     0.297 A 
HETATM    8  C23 UNK     1      31.584 -11.983  34.547  1.00  0.00     0.017 A 
HETATM    9  C24 UNK     1      31.942 -12.121  31.783  1.00  0.00     0.038 A 
HETATM   10  C25 UNK     1      31.690 -13.225  33.910  1.00  0.00     0.001 A 
HETATM   11  C28 UNK     1      31.870 -13.293  32.528  1.00  0.00     0.003 A 
ENDROOT
BRANCH   3  12
HETATM   12  O1  UNK     1      31.379  -9.464  35.779  1.00  0.00    -0.276 OA
BRANCH  12  13
HETATM   13  C5  UNK     1      30.090  -9.206  36.196  1.00  0.00     0.281 C 
HETATM   14  O2  UNK     1      29.085  -9.306  35.499  1.00  0.00    -0.263 OA
BRANCH  13  15
HETATM   15  C1  UNK     1      30.087  -8.726  37.672  1.00  0.00     0.099 C 
HETATM   16  C4  UNK     1      31.071  -9.702  38.383  1.00  0.00     0.037 C 
BRANCH  15  17
HETATM   17  C2  UNK     1      30.569  -7.253  37.722  1.00  0.00    -0.035 A 
HETATM   18  C7  UNK     1      29.811  -6.311  37.087  1.00  0.00     0.009 A 
HETATM   19  C15 UNK     1      30.245  -4.986  37.132  1.00  0.00     0.001 A 
HETATM   20  C21 UNK     1      31.419  -4.659  37.811  1.00  0.00     0.000 A 
HETATM   21  C17 UNK     1      32.159  -5.657  38.446  1.00  0.00     0.001 A 
HETATM   22  C9  UNK     1      31.724  -6.982  38.400  1.00  0.00     0.009 A 
ENDBRANCH  15  17
BRANCH  15  23
HETATM   23  C3  UNK     1      28.692  -8.836  38.338  1.00  0.00    -0.035 A 
HETATM   24  C10 UNK     1      27.760  -7.885  38.033  1.00  0.00     0.009 A 
HETATM   25  C18 UNK     1      26.505  -7.985  38.632  1.00  0.00     0.001 A 
HETATM   26  C22 UNK     1      26.233  -9.032  39.513  1.00  0.00     0.000 A 
HETATM   27  C16 UNK     1      27.218  -9.979  39.794  1.00  0.00     0.001 A 
HETATM   28  C8  UNK     1      28.473  -9.879  39.194  1.00  0.00     0.009 A 
ENDBRANCH  15  23
ENDBRANCH  13  15
ENDBRANCH  12  13
ENDBRANCH   3  12
BRANCH   4  29
HETATM   29  C13 UNK     1      31.518  -6.938  34.155  1.00  0.00     0.086 C 
BRANCH  29  30
HETATM   30  C20 UNK     1      32.809  -6.445  34.739  1.00  0.00    -0.054 A 
HETATM   31  C26 UNK     1      33.679  -7.347  35.343  1.00  0.00     0.007 A 
HETATM   32  C29 UNK     1      34.879  -6.889  35.886  1.00  0.00     0.001 A 
HETATM   33  C31 UNK     1      35.202  -5.533  35.823  1.00  0.00     0.000 A 
HETATM   34  C30 UNK     1      34.324  -4.636  35.216  1.00  0.00     0.001 A 
HETATM   35  C27 UNK     1      33.123  -5.092  34.672  1.00  0.00     0.007 A 
ENDBRANCH  29  30
ENDBRANCH   4  29
TORSDOF 7
ENDMDL
MODEL 9
REMARK VINA RESULT:      -8.6      2.353      5.733
REMARK  7 active torsions:
REMARK  status: ('A' for Active; 'I' for Inactive)
REMARK    1  A    between atoms: C5_9  and  O1_1 
REMARK    2  A    between atoms: C6_10  and  O1_1 
REMARK    3  A    between atoms: C1_5  and  C2_6 
REMARK    4  A    between atoms: C1_5  and  C3_7 
REMARK    5  A    between atoms: C1_5  and  C5_9 
REMARK    6  A    between atoms: C11_15  and  C13_17 
REMARK    7  A    between atoms: C13_17  and  C20_24 
ROOT
HETATM    1  O3  UNK     1      35.575  -6.274  34.757  1.00  0.00    -0.274 OA
HETATM    2  O4  UNK     1      34.660  -4.377  35.615  1.00  0.00    -0.259 OA
HETATM    3  C6  UNK     1      32.992  -7.136  34.060  1.00  0.00     0.104 A 
HETATM    4  C11 UNK     1      33.138  -5.943  34.668  1.00  0.00     0.057 A 
HETATM    5  C12 UNK     1      34.155  -7.976  33.762  1.00  0.00     0.033 A 
HETATM    6  C14 UNK     1      35.418  -7.516  34.121  1.00  0.00     0.092 A 
HETATM    7  C19 UNK     1      34.494  -5.456  35.055  1.00  0.00     0.297 A 
HETATM    8  C23 UNK     1      34.067  -9.223  33.130  1.00  0.00     0.017 A 
HETATM    9  C24 UNK     1      36.576  -8.254  33.873  1.00  0.00     0.038 A 
HETATM   10  C25 UNK     1      35.219  -9.976  32.874  1.00  0.00     0.001 A 
HETATM   11  C28 UNK     1      36.473  -9.490  33.245  1.00  0.00     0.003 A 
ENDROOT
BRANCH   3  12
HETATM   12  O1  UNK     1      31.784  -7.675  33.672  1.00  0.00    -0.276 OA
BRANCH  12  13
HETATM   13  C5  UNK     1      31.270  -7.149  32.505  1.00  0.00     0.281 C 
HETATM   14  O2  UNK     1      31.932  -6.785  31.538  1.00  0.00    -0.263 OA
BRANCH  13  15
HETATM   15  C1  UNK     1      29.724  -7.039  32.599  1.00  0.00     0.099 C 
HETATM   16  C4  UNK     1      29.451  -5.511  32.477  1.00  0.00     0.037 C 
BRANCH  15  17
HETATM   17  C2  UNK     1      29.092  -7.852  31.440  1.00  0.00    -0.035 A 
HETATM   18  C7  UNK     1      27.794  -7.585  31.106  1.00  0.00     0.009 A 
HETATM   19  C15 UNK     1      27.225  -8.316  30.063  1.00  0.00     0.001 A 
HETATM   20  C21 UNK     1      27.978  -9.283  29.397  1.00  0.00     0.000 A 
HETATM   21  C17 UNK     1      29.301  -9.519  29.774  1.00  0.00     0.001 A 
HETATM   22  C9  UNK     1      29.869  -8.787  30.818  1.00  0.00     0.009 A 
ENDBRANCH  15  17
BRANCH  15  23
HETATM   23  C3  UNK     1      29.166  -7.548  33.952  1.00  0.00    -0.035 A 
HETATM   24  C10 UNK     1      28.480  -6.663  34.735  1.00  0.00     0.009 A 
HETATM   25  C18 UNK     1      27.978  -7.120  35.953  1.00  0.00     0.001 A 
HETATM   26  C22 UNK     1      28.182  -8.445  36.338  1.00  0.00     0.000 A 
HETATM   27  C16 UNK     1      28.890  -9.312  35.505  1.00  0.00     0.001 A 
HETATM   28  C8  UNK     1      29.391  -8.853  34.287  1.00  0.00     0.009 A 
ENDBRANCH  15  23
ENDBRANCH  13  15
ENDBRANCH  12  13
ENDBRANCH   3  12
BRANCH   4  29
HETATM   29  C13 UNK     1      32.022  -4.994  35.013  1.00  0.00     0.086 C 
BRANCH  29  30
HETATM   30  C20 UNK     1      31.375  -5.331  36.324  1.00  0.00    -0.054 A 
HETATM   31  C26 UNK     1      30.567  -4.391  36.954  1.00  0.00     0.007 A 
HETATM   32  C29 UNK     1      29.966  -4.704  38.173  1.00  0.00     0.001 A 
HETATM   33  C31 UNK     1      30.178  -5.954  38.755  1.00  0.00     0.000 A 
HETATM   34  C30 UNK     1      30.991  -6.890  38.117  1.00  0.00     0.001 A 
HETATM   35  C27 UNK     1      31.592  -6.578  36.898  1.00  0.00     0.007 A 
ENDBRANCH  29  30
ENDBRANCH   4  29
TORSDOF 7
ENDMDL
MODEL 10
REMARK VINA RESULT:      -8.5      2.846      7.196
REMARK  7 active torsions:
REMARK  status: ('A' for Active; 'I' for Inactive)
REMARK    1  A    between atoms: C5_9  and  O1_1 
REMARK    2  A    between atoms: C6_10  and  O1_1 
REMARK    3  A    between atoms: C1_5  and  C2_6 
REMARK    4  A    between atoms: C1_5  and  C3_7 
REMARK    5  A    between atoms: C1_5  and  C5_9 
REMARK    6  A    between atoms: C11_15  and  C13_17 
REMARK    7  A    between atoms: C13_17  and  C20_24 
ROOT
HETATM    1  O3  UNK     1      32.015  -9.158  28.332  1.00  0.00    -0.274 OA
HETATM    2  O4  UNK     1      34.147  -8.455  28.700  1.00  0.00    -0.259 OA
HETATM    3  C6  UNK     1      31.194  -7.646  30.554  1.00  0.00     0.104 A 
HETATM    4  C11 UNK     1      32.496  -7.640  30.209  1.00  0.00     0.057 A 
HETATM    5  C12 UNK     1      30.216  -8.422  29.789  1.00  0.00     0.033 A 
HETATM    6  C14 UNK     1      30.659  -9.158  28.694  1.00  0.00     0.092 A 
HETATM    7  C19 UNK     1      32.967  -8.434  29.037  1.00  0.00     0.297 A 
HETATM    8  C23 UNK     1      28.849  -8.465  30.097  1.00  0.00     0.017 A 
HETATM    9  C24 UNK     1      29.792  -9.923  27.913  1.00  0.00     0.038 A 
HETATM   10  C25 UNK     1      27.967  -9.227  29.323  1.00  0.00     0.001 A 
HETATM   11  C28 UNK     1      28.439  -9.956  28.231  1.00  0.00     0.003 A 
ENDROOT
BRANCH   3  12
HETATM   12  O1  UNK     1      30.664  -6.953  31.622  1.00  0.00    -0.276 OA
BRANCH  12  13
HETATM   13  C5  UNK     1      30.871  -7.547  32.850  1.00  0.00     0.281 C 
HETATM   14  O2  UNK     1      30.860  -8.755  33.065  1.00  0.00    -0.263 OA
BRANCH  13  15
HETATM   15  C1  UNK     1      31.081  -6.464  33.943  1.00  0.00     0.099 C 
HETATM   16  C4  UNK     1      30.930  -5.121  33.170  1.00  0.00     0.037 C 
BRANCH  15  17
HETATM   17  C2  UNK     1      30.001  -6.644  35.041  1.00  0.00    -0.035 A 
HETATM   18  C7  UNK     1      28.987  -7.527  34.802  1.00  0.00     0.009 A 
HETATM   19  C15 UNK     1      28.015  -7.688  35.790  1.00  0.00     0.001 A 
HETATM   20  C21 UNK     1      28.099  -6.960  36.976  1.00  0.00     0.000 A 
HETATM   21  C17 UNK     1      29.156  -6.069  37.175  1.00  0.00     0.001 A 
HETATM   22  C9  UNK     1      30.127  -5.908  36.186  1.00  0.00     0.009 A 
ENDBRANCH  15  17
BRANCH  15  23
HETATM   23  C3  UNK     1      32.489  -6.524  34.587  1.00  0.00    -0.035 A 
HETATM   24  C10 UNK     1      32.813  -7.636  35.313  1.00  0.00     0.009 A 
HETATM   25  C18 UNK     1      34.080  -7.690  35.893  1.00  0.00     0.001 A 
HETATM   26  C22 UNK     1      34.972  -6.630  35.722  1.00  0.00     0.000 A 
HETATM   27  C16 UNK     1      34.594  -5.516  34.972  1.00  0.00     0.001 A 
HETATM   28  C8  UNK     1      33.327  -5.463  34.393  1.00  0.00     0.009 A 
ENDBRANCH  15  23
ENDBRANCH  13  15
ENDBRANCH  12  13
ENDBRANCH   3  12
BRANCH   4  29
HETATM   29  C13 UNK     1      33.585  -6.875  30.911  1.00  0.00     0.086 C 
BRANCH  29  30
HETATM   30  C20 UNK     1      34.474  -7.770  31.724  1.00  0.00    -0.054 A 
HETATM   31  C26 UNK     1      33.998  -9.002  32.158  1.00  0.00     0.007 A 
HETATM   32  C29 UNK     1      34.823  -9.834  32.914  1.00  0.00     0.001 A 
HETATM   33  C31 UNK     1      36.120  -9.428  33.232  1.00  0.00     0.000 A 
HETATM   34  C30 UNK     1      36.589  -8.191  32.794  1.00  0.00     0.001 A 
HETATM   35  C27 UNK     1      35.764  -7.358  32.038  1.00  0.00     0.007 A 
ENDBRANCH  29  30
ENDBRANCH   4  29
TORSDOF 7
ENDMDL
