MODEL 1
REMARK VINA RESULT:      -9.4      0.000      0.000
REMARK  6 active torsions:
REMARK  status: ('A' for Active; 'I' for Inactive)
REMARK    1  A    between atoms: C11_20  and  O2_3 
REMARK    2  A    between atoms: C13_22  and  O3_4 
REMARK    3  A    between atoms: C3_12  and  N1_9 
REMARK       I    between atoms: C8_17  and  N1_9 
REMARK    4  A    between atoms: C11_20  and  C2_11 
REMARK    5  A    between atoms: C13_22  and  C4_13 
REMARK    6  A    between atoms: C5_14  and  C8_17 
ROOT
HETATM    1  O4  UNK     1      21.275  -3.843  37.232  1.00  0.00    -0.267 OA
HETATM    2  N1  UNK     1      19.036  -3.766  36.491  1.00  0.00    -0.316 N 
HETATM    3  C8  UNK     1      20.222  -4.372  36.879  1.00  0.00     0.262 C 
HETATM    4  H1  UNK     1      18.248  -4.341  36.204  1.00  0.00     0.169 HD
ENDROOT
BRANCH   2   5
HETATM    5  C3  UNK     1      18.797  -2.390  36.422  1.00  0.00     0.094 A 
HETATM    6  C2  UNK     1      19.083  -1.493  35.442  1.00  0.00     0.080 A 
HETATM    7  C1  UNK     1      18.655  -0.183  35.804  1.00  0.00    -0.020 A 
HETATM    8  C4  UNK     1      18.063  -0.157  37.047  1.00  0.00     0.089 A 
HETATM    9  C6  UNK     1      18.825   1.013  34.941  1.00  0.00     0.051 C 
HETATM   10  S1  UNK     1      18.025  -1.707  37.774  1.00  0.00    -0.065 SA
BRANCH   6  11
HETATM   11  C11 UNK     1      19.735  -1.849  34.207  1.00  0.00     0.296 C 
HETATM   12  O5  UNK     1      20.878  -2.327  34.142  1.00  0.00    -0.259 OA
BRANCH  11  13
HETATM   13  O2  UNK     1      18.974  -1.612  33.084  1.00  0.00    -0.322 OA
HETATM   14  C18 UNK     1      19.674  -1.498  31.840  1.00  0.00     0.213 C 
ENDBRANCH  11  13
ENDBRANCH   6  11
BRANCH   8  15
HETATM   15  C13 UNK     1      17.508   0.948  37.762  1.00  0.00     0.300 C 
HETATM   16  O7  UNK     1      17.920   1.350  38.869  1.00  0.00    -0.259 OA
BRANCH  15  17
HETATM   17  O3  UNK     1      16.446   1.566  37.126  1.00  0.00    -0.322 OA
HETATM   18  C19 UNK     1      15.453   0.723  36.532  1.00  0.00     0.213 C 
ENDBRANCH  15  17
ENDBRANCH   8  15
ENDBRANCH   2   5
BRANCH   3  19
HETATM   19  C5  UNK     1      20.128  -5.836  36.835  1.00  0.00     0.108 A 
HETATM   20  C12 UNK     1      20.179  -6.588  35.561  1.00  0.00     0.304 A 
HETATM   21  O1  UNK     1      20.080  -7.974  35.648  1.00  0.00    -0.274 OA
HETATM   22  O6  UNK     1      20.302  -6.024  34.479  1.00  0.00    -0.259 OA
HETATM   23  C10 UNK     1      19.939  -8.632  36.886  1.00  0.00     0.089 A 
HETATM   24  C7  UNK     1      19.893  -7.906  38.071  1.00  0.00    -0.001 A 
HETATM   25  C15 UNK     1      19.849 -10.023  36.873  1.00  0.00     0.038 A 
HETATM   26  C14 UNK     1      19.752  -8.595  39.279  1.00  0.00     0.014 A 
HETATM   27  C9  UNK     1      19.994  -6.456  38.012  1.00  0.00     0.037 A 
HETATM   28  C16 UNK     1      19.660  -9.989  39.283  1.00  0.00     0.001 A 
HETATM   29  C17 UNK     1      19.708 -10.701  38.082  1.00  0.00     0.003 A 
ENDBRANCH   3  19
TORSDOF 6
ENDMDL
MODEL 2
REMARK VINA RESULT:      -9.0     17.862     22.432
REMARK  6 active torsions:
REMARK  status: ('A' for Active; 'I' for Inactive)
REMARK    1  A    between atoms: C11_20  and  O2_3 
REMARK    2  A    between atoms: C13_22  and  O3_4 
REMARK    3  A    between atoms: C3_12  and  N1_9 
REMARK       I    between atoms: C8_17  and  N1_9 
REMARK    4  A    between atoms: C11_20  and  C2_11 
REMARK    5  A    between atoms: C13_22  and  C4_13 
REMARK    6  A    between atoms: C5_14  and  C8_17 
ROOT
HETATM    1  O4  UNK     1      17.686  -2.065  16.080  1.00  0.00    -0.267 OA
HETATM    2  N1  UNK     1      19.662  -1.423  14.962  1.00  0.00    -0.316 N 
HETATM    3  C8  UNK     1      18.689  -1.366  15.950  1.00  0.00     0.262 C 
HETATM    4  H1  UNK     1      20.431  -0.758  14.976  1.00  0.00     0.169 HD
ENDROOT
BRANCH   2   5
HETATM    5  C3  UNK     1      19.694  -2.316  13.887  1.00  0.00     0.094 A 
HETATM    6  C2  UNK     1      20.114  -3.607  13.825  1.00  0.00     0.080 A 
HETATM    7  C1  UNK     1      19.962  -4.134  12.510  1.00  0.00    -0.020 A 
HETATM    8  C4  UNK     1      19.431  -3.207  11.640  1.00  0.00     0.089 A 
HETATM    9  C6  UNK     1      20.331  -5.519  12.124  1.00  0.00     0.051 C 
HETATM   10  S1  UNK     1      19.118  -1.709  12.408  1.00  0.00    -0.065 SA
BRANCH   6  11
HETATM   11  C11 UNK     1      20.641  -4.324  14.959  1.00  0.00     0.296 C 
HETATM   12  O5  UNK     1      19.936  -4.919  15.789  1.00  0.00    -0.259 OA
BRANCH  11  13
HETATM   13  O2  UNK     1      22.016  -4.297  15.049  1.00  0.00    -0.322 OA
HETATM   14  C18 UNK     1      22.576  -3.675  16.210  1.00  0.00     0.213 C 
ENDBRANCH  11  13
ENDBRANCH   6  11
BRANCH   8  15
HETATM   15  C13 UNK     1      19.127  -3.342  10.251  1.00  0.00     0.300 C 
HETATM   16  O7  UNK     1      19.835  -2.891   9.327  1.00  0.00    -0.259 OA
BRANCH  15  17
HETATM   17  O3  UNK     1      17.956  -4.028   9.985  1.00  0.00    -0.322 OA
HETATM   18  C19 UNK     1      18.008  -5.059   8.992  1.00  0.00     0.213 C 
ENDBRANCH  15  17
ENDBRANCH   8  15
ENDBRANCH   2   5
BRANCH   3  19
HETATM   19  C5  UNK     1      18.964  -0.306  16.928  1.00  0.00     0.108 A 
HETATM   20  C12 UNK     1      19.194   1.098  16.520  1.00  0.00     0.304 A 
HETATM   21  O1  UNK     1      19.444   2.012  17.540  1.00  0.00    -0.274 OA
HETATM   22  O6  UNK     1      19.166   1.445  15.345  1.00  0.00    -0.259 OA
HETATM   23  C10 UNK     1      19.477   1.624  18.894  1.00  0.00     0.089 A 
HETATM   24  C7  UNK     1      19.259   0.299  19.255  1.00  0.00    -0.001 A 
HETATM   25  C15 UNK     1      19.735   2.610  19.844  1.00  0.00     0.038 A 
HETATM   26  C14 UNK     1      19.300  -0.047  20.608  1.00  0.00     0.014 A 
HETATM   27  C9  UNK     1      18.994  -0.680  18.212  1.00  0.00     0.037 A 
HETATM   28  C16 UNK     1      19.557   0.930  21.573  1.00  0.00     0.001 A 
HETATM   29  C17 UNK     1      19.775   2.256  21.191  1.00  0.00     0.003 A 
ENDBRANCH   3  19
TORSDOF 6
ENDMDL
MODEL 3
REMARK VINA RESULT:      -8.7      6.797     12.325
REMARK  6 active torsions:
REMARK  status: ('A' for Active; 'I' for Inactive)
REMARK    1  A    between atoms: C11_20  and  O2_3 
REMARK    2  A    between atoms: C13_22  and  O3_4 
REMARK    3  A    between atoms: C3_12  and  N1_9 
REMARK       I    between atoms: C8_17  and  N1_9 
REMARK    4  A    between atoms: C11_20  and  C2_11 
REMARK    5  A    between atoms: C13_22  and  C4_13 
REMARK    6  A    between atoms: C5_14  and  C8_17 
ROOT
HETATM    1  O4  UNK     1      19.592   5.579  31.866  1.00  0.00    -0.267 OA
HETATM    2  N1  UNK     1      17.822   4.151  32.496  1.00  0.00    -0.316 N 
HETATM    3  C8  UNK     1      18.512   5.352  32.408  1.00  0.00     0.262 C 
HETATM    4  H1  UNK     1      16.939   4.114  32.998  1.00  0.00     0.169 HD
ENDROOT
BRANCH   2   5
HETATM    5  C3  UNK     1      18.235   2.923  31.970  1.00  0.00     0.094 A 
HETATM    6  C2  UNK     1      18.374   1.710  32.567  1.00  0.00     0.080 A 
HETATM    7  C1  UNK     1      18.826   0.729  31.638  1.00  0.00    -0.020 A 
HETATM    8  C4  UNK     1      19.007   1.255  30.378  1.00  0.00     0.089 A 
HETATM    9  C6  UNK     1      19.073  -0.693  31.987  1.00  0.00     0.051 C 
HETATM   10  S1  UNK     1      18.632   2.925  30.318  1.00  0.00    -0.065 SA
BRANCH   6  11
HETATM   11  C11 UNK     1      18.094   1.476  33.961  1.00  0.00     0.296 C 
HETATM   12  O5  UNK     1      18.928   1.620  34.868  1.00  0.00    -0.259 OA
BRANCH  11  13
HETATM   13  O2  UNK     1      16.800   1.073  34.212  1.00  0.00    -0.322 OA
HETATM   14  C18 UNK     1      16.633  -0.133  34.965  1.00  0.00     0.213 C 
ENDBRANCH  11  13
ENDBRANCH   6  11
BRANCH   8  15
HETATM   15  C13 UNK     1      19.444   0.607  29.182  1.00  0.00     0.300 C 
HETATM   16  O7  UNK     1      18.777   0.545  28.129  1.00  0.00    -0.259 OA
BRANCH  15  17
HETATM   17  O3  UNK     1      20.700   0.033  29.268  1.00  0.00    -0.322 OA
HETATM   18  C19 UNK     1      20.789  -1.385  29.094  1.00  0.00     0.213 C 
ENDBRANCH  15  17
ENDBRANCH   8  15
ENDBRANCH   2   5
BRANCH   3  19
HETATM   19  C5  UNK     1      17.792   6.445  33.072  1.00  0.00     0.108 A 
HETATM   20  C12 UNK     1      18.364   7.175  34.226  1.00  0.00     0.304 A 
HETATM   21  O1  UNK     1      17.586   8.194  34.770  1.00  0.00    -0.274 OA
HETATM   22  O6  UNK     1      19.468   6.901  34.684  1.00  0.00    -0.259 OA
HETATM   23  C10 UNK     1      16.317   8.517  34.250  1.00  0.00     0.089 A 
HETATM   24  C7  UNK     1      15.798   7.818  33.165  1.00  0.00    -0.001 A 
HETATM   25  C15 UNK     1      15.612   9.553  34.861  1.00  0.00     0.038 A 
HETATM   26  C14 UNK     1      14.536   8.168  32.678  1.00  0.00     0.014 A 
HETATM   27  C9  UNK     1      16.588   6.748  32.574  1.00  0.00     0.037 A 
HETATM   28  C16 UNK     1      13.817   9.205  33.280  1.00  0.00     0.001 A 
HETATM   29  C17 UNK     1      14.354   9.895  34.369  1.00  0.00     0.003 A 
ENDBRANCH   3  19
TORSDOF 6
ENDMDL
MODEL 4
REMARK VINA RESULT:      -8.7      2.435      8.660
REMARK  6 active torsions:
REMARK  status: ('A' for Active; 'I' for Inactive)
REMARK    1  A    between atoms: C11_20  and  O2_3 
REMARK    2  A    between atoms: C13_22  and  O3_4 
REMARK    3  A    between atoms: C3_12  and  N1_9 
REMARK       I    between atoms: C8_17  and  N1_9 
REMARK    4  A    between atoms: C11_20  and  C2_11 
REMARK    5  A    between atoms: C13_22  and  C4_13 
REMARK    6  A    between atoms: C5_14  and  C8_17 
ROOT
HETATM    1  O4  UNK     1      21.250  -4.420  37.176  1.00  0.00    -0.267 OA
HETATM    2  N1  UNK     1      19.725  -5.460  35.706  1.00  0.00    -0.316 N 
HETATM    3  C8  UNK     1      20.342  -4.395  36.347  1.00  0.00     0.262 C 
HETATM    4  H1  UNK     1      18.968  -5.282  35.052  1.00  0.00     0.169 HD
ENDROOT
BRANCH   2   5
HETATM    5  C3  UNK     1      20.022  -6.814  35.886  1.00  0.00     0.094 A 
HETATM    6  C2  UNK     1      19.551  -7.708  36.795  1.00  0.00     0.080 A 
HETATM    7  C1  UNK     1      20.137  -8.992  36.604  1.00  0.00    -0.020 A 
HETATM    8  C4  UNK     1      21.028  -9.003  35.553  1.00  0.00     0.089 A 
HETATM    9  C6  UNK     1      19.824 -10.179  37.439  1.00  0.00     0.051 C 
HETATM   10  S1  UNK     1      21.155  -7.470  34.802  1.00  0.00    -0.065 SA
BRANCH   6  11
HETATM   11  C11 UNK     1      18.583  -7.372  37.808  1.00  0.00     0.296 C 
HETATM   12  O5  UNK     1      17.453  -6.925  37.564  1.00  0.00    -0.259 OA
BRANCH  11  13
HETATM   13  O2  UNK     1      19.023  -7.591  39.096  1.00  0.00    -0.322 OA
HETATM   14  C18 UNK     1      20.102  -6.772  39.560  1.00  0.00     0.213 C 
ENDBRANCH  11  13
ENDBRANCH   6  11
BRANCH   8  15
HETATM   15  C13 UNK     1      21.814 -10.083  35.045  1.00  0.00     0.300 C 
HETATM   16  O7  UNK     1      21.588 -10.674  33.970  1.00  0.00    -0.259 OA
BRANCH  15  17
HETATM   17  O3  UNK     1      22.880 -10.443  35.850  1.00  0.00    -0.322 OA
HETATM   18  C19 UNK     1      23.420 -11.758  35.678  1.00  0.00     0.213 C 
ENDBRANCH  15  17
ENDBRANCH   8  15
ENDBRANCH   2   5
BRANCH   3  19
HETATM   19  C5  UNK     1      19.783  -3.105  35.925  1.00  0.00     0.108 A 
HETATM   20  C12 UNK     1      20.051  -2.533  34.587  1.00  0.00     0.304 A 
HETATM   21  O1  UNK     1      19.465  -1.303  34.303  1.00  0.00    -0.274 OA
HETATM   22  O6  UNK     1      20.754  -3.110  33.764  1.00  0.00    -0.259 OA
HETATM   23  C10 UNK     1      18.655  -0.632  35.241  1.00  0.00     0.089 A 
HETATM   24  C7  UNK     1      18.416  -1.188  36.494  1.00  0.00    -0.001 A 
HETATM   25  C15 UNK     1      18.110   0.594  34.866  1.00  0.00     0.038 A 
HETATM   26  C14 UNK     1      17.608  -0.492  37.397  1.00  0.00     0.014 A 
HETATM   27  C9  UNK     1      19.015  -2.473  36.820  1.00  0.00     0.037 A 
HETATM   28  C16 UNK     1      17.054   0.739  37.036  1.00  0.00     0.001 A 
HETATM   29  C17 UNK     1      17.306   1.281  35.773  1.00  0.00     0.003 A 
ENDBRANCH   3  19
TORSDOF 6
ENDMDL
MODEL 5
REMARK VINA RESULT:      -8.6      7.637      9.841
REMARK  6 active torsions:
REMARK  status: ('A' for Active; 'I' for Inactive)
REMARK    1  A    between atoms: C11_20  and  O2_3 
REMARK    2  A    between atoms: C13_22  and  O3_4 
REMARK    3  A    between atoms: C3_12  and  N1_9 
REMARK       I    between atoms: C8_17  and  N1_9 
REMARK    4  A    between atoms: C11_20  and  C2_11 
REMARK    5  A    between atoms: C13_22  and  C4_13 
REMARK    6  A    between atoms: C5_14  and  C8_17 
ROOT
HETATM    1  O4  UNK     1      17.683   2.969  33.210  1.00  0.00    -0.267 OA
HETATM    2  N1  UNK     1      18.307   4.564  31.586  1.00  0.00    -0.316 N 
HETATM    3  C8  UNK     1      18.158   3.293  32.123  1.00  0.00     0.262 C 
HETATM    4  H1  UNK     1      18.740   4.676  30.673  1.00  0.00     0.169 HD
ENDROOT
BRANCH   2   5
HETATM    5  C3  UNK     1      17.935   5.765  32.197  1.00  0.00     0.094 A 
HETATM    6  C2  UNK     1      18.597   6.538  33.098  1.00  0.00     0.080 A 
HETATM    7  C1  UNK     1      17.831   7.686  33.450  1.00  0.00    -0.020 A 
HETATM    8  C4  UNK     1      16.621   7.722  32.793  1.00  0.00     0.089 A 
HETATM    9  C6  UNK     1      18.284   8.723  34.412  1.00  0.00     0.051 C 
HETATM   10  S1  UNK     1      16.412   6.376  31.756  1.00  0.00    -0.065 SA
BRANCH   6  11
HETATM   11  C11 UNK     1      19.904   6.213  33.612  1.00  0.00     0.296 C 
HETATM   12  O5  UNK     1      20.100   5.448  34.567  1.00  0.00    -0.259 OA
BRANCH  11  13
HETATM   13  O2  UNK     1      20.938   6.834  32.944  1.00  0.00    -0.322 OA
HETATM   14  C18 UNK     1      21.685   6.033  32.022  1.00  0.00     0.213 C 
ENDBRANCH  11  13
ENDBRANCH   6  11
BRANCH   8  15
HETATM   15  C13 UNK     1      15.579   8.696  32.870  1.00  0.00     0.300 C 
HETATM   16  O7  UNK     1      15.379   9.584  32.017  1.00  0.00    -0.259 OA
BRANCH  15  17
HETATM   17  O3  UNK     1      14.776   8.587  33.991  1.00  0.00    -0.322 OA
HETATM   18  C19 UNK     1      14.577   9.768  34.777  1.00  0.00     0.213 C 
ENDBRANCH  15  17
ENDBRANCH   8  15
ENDBRANCH   2   5
BRANCH   3  19
HETATM   19  C5  UNK     1      18.656   2.254  31.213  1.00  0.00     0.108 A 
HETATM   20  C12 UNK     1      18.728   2.460  29.749  1.00  0.00     0.304 A 
HETATM   21  O1  UNK     1      19.219   1.400  28.992  1.00  0.00    -0.274 OA
HETATM   22  O6  UNK     1      18.375   3.510  29.224  1.00  0.00    -0.259 OA
HETATM   23  C10 UNK     1      19.628   0.190  29.585  1.00  0.00     0.089 A 
HETATM   24  C7  UNK     1      19.551   0.016  30.963  1.00  0.00    -0.001 A 
HETATM   25  C15 UNK     1      20.106  -0.814  28.745  1.00  0.00     0.038 A 
HETATM   26  C14 UNK     1      19.966  -1.199  31.514  1.00  0.00     0.014 A 
HETATM   27  C9  UNK     1      19.043   1.106  31.782  1.00  0.00     0.037 A 
HETATM   28  C16 UNK     1      20.448  -2.215  30.685  1.00  0.00     0.001 A 
HETATM   29  C17 UNK     1      20.517  -2.023  29.303  1.00  0.00     0.003 A 
ENDBRANCH   3  19
TORSDOF 6
ENDMDL
MODEL 6
REMARK VINA RESULT:      -8.5     17.979     22.470
REMARK  6 active torsions:
REMARK  status: ('A' for Active; 'I' for Inactive)
REMARK    1  A    between atoms: C11_20  and  O2_3 
REMARK    2  A    between atoms: C13_22  and  O3_4 
REMARK    3  A    between atoms: C3_12  and  N1_9 
REMARK       I    between atoms: C8_17  and  N1_9 
REMARK    4  A    between atoms: C11_20  and  C2_11 
REMARK    5  A    between atoms: C13_22  and  C4_13 
REMARK    6  A    between atoms: C5_14  and  C8_17 
ROOT
HETATM    1  O4  UNK     1      17.616  -2.223  15.915  1.00  0.00    -0.267 OA
HETATM    2  N1  UNK     1      19.876  -2.075  15.252  1.00  0.00    -0.316 N 
HETATM    3  C8  UNK     1      18.734  -1.713  15.953  1.00  0.00     0.262 C 
HETATM    4  H1  UNK     1      20.732  -1.541  15.376  1.00  0.00     0.169 HD
ENDROOT
BRANCH   2   5
HETATM    5  C3  UNK     1      19.982  -3.124  14.334  1.00  0.00     0.094 A 
HETATM    6  C2  UNK     1      19.977  -3.110  12.975  1.00  0.00     0.080 A 
HETATM    7  C1  UNK     1      20.111  -4.426  12.447  1.00  0.00    -0.020 A 
HETATM    8  C4  UNK     1      20.211  -5.374  13.441  1.00  0.00     0.089 A 
HETATM    9  C6  UNK     1      20.141  -4.739  10.996  1.00  0.00     0.051 C 
HETATM   10  S1  UNK     1      20.142  -4.677  15.004  1.00  0.00    -0.065 SA
BRANCH   6  11
HETATM   11  C11 UNK     1      19.852  -1.904  12.195  1.00  0.00     0.296 C 
HETATM   12  O5  UNK     1      18.769  -1.438  11.812  1.00  0.00    -0.259 OA
BRANCH  11  13
HETATM   13  O2  UNK     1      21.056  -1.299  11.904  1.00  0.00    -0.322 OA
HETATM   14  C18 UNK     1      21.504  -1.371  10.546  1.00  0.00     0.213 C 
ENDBRANCH  11  13
ENDBRANCH   6  11
BRANCH   8  15
HETATM   15  C13 UNK     1      20.356  -6.791  13.329  1.00  0.00     0.300 C 
HETATM   16  O7  UNK     1      19.406  -7.588  13.191  1.00  0.00    -0.259 OA
BRANCH  15  17
HETATM   17  O3  UNK     1      21.664  -7.238  13.384  1.00  0.00    -0.322 OA
HETATM   18  C19 UNK     1      21.929  -8.559  12.898  1.00  0.00     0.213 C 
ENDBRANCH  15  17
ENDBRANCH   8  15
ENDBRANCH   2   5
BRANCH   3  19
HETATM   19  C5  UNK     1      18.975  -0.564  16.834  1.00  0.00     0.108 A 
HETATM   20  C12 UNK     1      19.201   0.799  16.303  1.00  0.00     0.304 A 
HETATM   21  O1  UNK     1      19.417   1.807  17.238  1.00  0.00    -0.274 OA
HETATM   22  O6  UNK     1      19.199   1.034  15.099  1.00  0.00    -0.259 OA
HETATM   23  C10 UNK     1      19.421   1.548  18.623  1.00  0.00     0.089 A 
HETATM   24  C7  UNK     1      19.206   0.259  19.101  1.00  0.00    -0.001 A 
HETATM   25  C15 UNK     1      19.645   2.621  19.482  1.00  0.00     0.038 A 
HETATM   26  C14 UNK     1      19.217   0.041  20.481  1.00  0.00     0.014 A 
HETATM   27  C9  UNK     1      18.977  -0.816  18.148  1.00  0.00     0.037 A 
HETATM   28  C16 UNK     1      19.441   1.108  21.356  1.00  0.00     0.001 A 
HETATM   29  C17 UNK     1      19.655   2.395  20.857  1.00  0.00     0.003 A 
ENDBRANCH   3  19
TORSDOF 6
ENDMDL
MODEL 7
REMARK VINA RESULT:      -8.5      1.811      2.297
REMARK  6 active torsions:
REMARK  status: ('A' for Active; 'I' for Inactive)
REMARK    1  A    between atoms: C11_20  and  O2_3 
REMARK    2  A    between atoms: C13_22  and  O3_4 
REMARK    3  A    between atoms: C3_12  and  N1_9 
REMARK       I    between atoms: C8_17  and  N1_9 
REMARK    4  A    between atoms: C11_20  and  C2_11 
REMARK    5  A    between atoms: C13_22  and  C4_13 
REMARK    6  A    between atoms: C5_14  and  C8_17 
ROOT
HETATM    1  O4  UNK     1      18.375  -5.252  36.474  1.00  0.00    -0.267 OA
HETATM    2  N1  UNK     1      20.224  -3.794  36.318  1.00  0.00    -0.316 N 
HETATM    3  C8  UNK     1      19.582  -5.015  36.467  1.00  0.00     0.262 C 
HETATM    4  H1  UNK     1      21.239  -3.752  36.352  1.00  0.00     0.169 HD
ENDROOT
BRANCH   2   5
HETATM    5  C3  UNK     1      19.604  -2.553  36.143  1.00  0.00     0.094 A 
HETATM    6  C2  UNK     1      19.528  -1.752  35.048  1.00  0.00     0.080 A 
HETATM    7  C1  UNK     1      18.788  -0.567  35.328  1.00  0.00    -0.020 A 
HETATM    8  C4  UNK     1      18.340  -0.533  36.630  1.00  0.00     0.089 A 
HETATM    9  C6  UNK     1      18.530   0.505  34.334  1.00  0.00     0.051 C 
HETATM   10  S1  UNK     1      18.811  -1.925  37.509  1.00  0.00    -0.065 SA
BRANCH   6  11
HETATM   11  C11 UNK     1      20.127  -2.084  33.779  1.00  0.00     0.296 C 
HETATM   12  O5  UNK     1      21.291  -2.492  33.651  1.00  0.00    -0.259 OA
BRANCH  11  13
HETATM   13  O2  UNK     1      19.288  -1.908  32.701  1.00  0.00    -0.322 OA
HETATM   14  C18 UNK     1      19.906  -1.654  31.434  1.00  0.00     0.213 C 
ENDBRANCH  11  13
ENDBRANCH   6  11
BRANCH   8  15
HETATM   15  C13 UNK     1      17.572   0.470  37.297  1.00  0.00     0.300 C 
HETATM   16  O7  UNK     1      18.052   1.502  37.808  1.00  0.00    -0.259 OA
BRANCH  15  17
HETATM   17  O3  UNK     1      16.213   0.216  37.340  1.00  0.00    -0.322 OA
HETATM   18  C19 UNK     1      15.436   0.591  36.198  1.00  0.00     0.213 C 
ENDBRANCH  15  17
ENDBRANCH   8  15
ENDBRANCH   2   5
BRANCH   3  19
HETATM   19  C5  UNK     1      20.536  -6.118  36.631  1.00  0.00     0.108 A 
HETATM   20  C12 UNK     1      21.583  -6.101  37.677  1.00  0.00     0.304 A 
HETATM   21  O1  UNK     1      22.429  -7.206  37.734  1.00  0.00    -0.274 OA
HETATM   22  O6  UNK     1      21.704  -5.164  38.458  1.00  0.00    -0.259 OA
HETATM   23  C10 UNK     1      22.297  -8.288  36.842  1.00  0.00     0.089 A 
HETATM   24  C7  UNK     1      21.307  -8.283  35.866  1.00  0.00    -0.001 A 
HETATM   25  C15 UNK     1      23.190  -9.350  36.977  1.00  0.00     0.038 A 
HETATM   26  C14 UNK     1      21.208  -9.375  34.999  1.00  0.00     0.014 A 
HETATM   27  C9  UNK     1      20.407  -7.143  35.781  1.00  0.00     0.037 A 
HETATM   28  C16 UNK     1      22.096 -10.448  35.122  1.00  0.00     0.001 A 
HETATM   29  C17 UNK     1      23.085 -10.434  36.108  1.00  0.00     0.003 A 
ENDBRANCH   3  19
TORSDOF 6
ENDMDL
MODEL 8
REMARK VINA RESULT:      -8.4      7.079     12.553
REMARK  6 active torsions:
REMARK  status: ('A' for Active; 'I' for Inactive)
REMARK    1  A    between atoms: C11_20  and  O2_3 
REMARK    2  A    between atoms: C13_22  and  O3_4 
REMARK    3  A    between atoms: C3_12  and  N1_9 
REMARK       I    between atoms: C8_17  and  N1_9 
REMARK    4  A    between atoms: C11_20  and  C2_11 
REMARK    5  A    between atoms: C13_22  and  C4_13 
REMARK    6  A    between atoms: C5_14  and  C8_17 
ROOT
HETATM    1  O4  UNK     1      19.531   5.386  32.532  1.00  0.00    -0.267 OA
HETATM    2  N1  UNK     1      17.657   4.249  31.659  1.00  0.00    -0.316 N 
HETATM    3  C8  UNK     1      18.355   5.331  32.175  1.00  0.00     0.262 C 
HETATM    4  H1  UNK     1      16.673   4.351  31.425  1.00  0.00     0.169 HD
ENDROOT
BRANCH   2   5
HETATM    5  C3  UNK     1      18.169   2.967  31.437  1.00  0.00     0.094 A 
HETATM    6  C2  UNK     1      18.299   1.911  32.282  1.00  0.00     0.080 A 
HETATM    7  C1  UNK     1      18.880   0.791  31.620  1.00  0.00    -0.020 A 
HETATM    8  C4  UNK     1      19.161   1.060  30.298  1.00  0.00     0.089 A 
HETATM    9  C6  UNK     1      19.149  -0.513  32.276  1.00  0.00     0.051 C 
HETATM   10  S1  UNK     1      18.725   2.658  29.861  1.00  0.00    -0.065 SA
BRANCH   6  11
HETATM   11  C11 UNK     1      17.893   1.947  33.665  1.00  0.00     0.296 C 
HETATM   12  O5  UNK     1      16.926   1.317  34.118  1.00  0.00    -0.259 OA
BRANCH  11  13
HETATM   13  O2  UNK     1      18.680   2.754  34.458  1.00  0.00    -0.322 OA
HETATM   14  C18 UNK     1      19.109   2.210  35.710  1.00  0.00     0.213 C 
ENDBRANCH  11  13
ENDBRANCH   6  11
BRANCH   8  15
HETATM   15  C13 UNK     1      19.740   0.212  29.306  1.00  0.00     0.300 C 
HETATM   16  O7  UNK     1      19.337   0.128  28.128  1.00  0.00    -0.259 OA
BRANCH  15  17
HETATM   17  O3  UNK     1      20.815  -0.537  29.749  1.00  0.00    -0.322 OA
HETATM   18  C19 UNK     1      20.733  -1.959  29.600  1.00  0.00     0.213 C 
ENDBRANCH  15  17
ENDBRANCH   8  15
ENDBRANCH   2   5
BRANCH   3  19
HETATM   19  C5  UNK     1      17.512   6.528  32.278  1.00  0.00     0.108 A 
HETATM   20  C12 UNK     1      17.068   7.280  31.083  1.00  0.00     0.304 A 
HETATM   21  O1  UNK     1      16.270   8.398  31.308  1.00  0.00    -0.274 OA
HETATM   22  O6  UNK     1      17.383   6.940  29.948  1.00  0.00    -0.259 OA
HETATM   23  C10 UNK     1      15.900   8.797  32.608  1.00  0.00     0.089 A 
HETATM   24  C7  UNK     1      16.329   8.076  33.717  1.00  0.00    -0.001 A 
HETATM   25  C15 UNK     1      15.099   9.930  32.734  1.00  0.00     0.038 A 
HETATM   26  C14 UNK     1      15.942   8.503  34.990  1.00  0.00     0.014 A 
HETATM   27  C9  UNK     1      17.164   6.902  33.514  1.00  0.00     0.037 A 
HETATM   28  C16 UNK     1      15.138   9.637  35.133  1.00  0.00     0.001 A 
HETATM   29  C17 UNK     1      14.718  10.349  34.007  1.00  0.00     0.003 A 
ENDBRANCH   3  19
TORSDOF 6
ENDMDL
MODEL 9
REMARK VINA RESULT:      -8.4      2.466      8.169
REMARK  6 active torsions:
REMARK  status: ('A' for Active; 'I' for Inactive)
REMARK    1  A    between atoms: C11_20  and  O2_3 
REMARK    2  A    between atoms: C13_22  and  O3_4 
REMARK    3  A    between atoms: C3_12  and  N1_9 
REMARK       I    between atoms: C8_17  and  N1_9 
REMARK    4  A    between atoms: C11_20  and  C2_11 
REMARK    5  A    between atoms: C13_22  and  C4_13 
REMARK    6  A    between atoms: C5_14  and  C8_17 
ROOT
HETATM    1  O4  UNK     1      20.338  -4.271  34.759  1.00  0.00    -0.267 OA
HETATM    2  N1  UNK     1      19.810  -4.227  37.058  1.00  0.00    -0.316 N 
HETATM    3  C8  UNK     1      19.906  -3.720  35.770  1.00  0.00     0.262 C 
HETATM    4  H1  UNK     1      19.446  -3.639  37.803  1.00  0.00     0.169 HD
ENDROOT
BRANCH   2   5
HETATM    5  C3  UNK     1      20.200  -5.504  37.473  1.00  0.00     0.094 A 
HETATM    6  C2  UNK     1      19.538  -6.689  37.417  1.00  0.00     0.080 A 
HETATM    7  C1  UNK     1      20.326  -7.744  37.960  1.00  0.00    -0.020 A 
HETATM    8  C4  UNK     1      21.552  -7.299  38.402  1.00  0.00     0.089 A 
HETATM    9  C6  UNK     1      19.879  -9.158  38.039  1.00  0.00     0.051 C 
HETATM   10  S1  UNK     1      21.749  -5.615  38.162  1.00  0.00    -0.065 SA
BRANCH   6  11
HETATM   11  C11 UNK     1      18.211  -6.831  36.872  1.00  0.00     0.296 C 
HETATM   12  O5  UNK     1      17.204  -6.294  37.357  1.00  0.00    -0.259 OA
BRANCH  11  13
HETATM   13  O2  UNK     1      18.149  -7.626  35.748  1.00  0.00    -0.322 OA
HETATM   14  C18 UNK     1      16.917  -7.621  35.019  1.00  0.00     0.213 C 
ENDBRANCH  11  13
ENDBRANCH   6  11
BRANCH   8  15
HETATM   15  C13 UNK     1      22.619  -8.035  39.003  1.00  0.00     0.300 C 
HETATM   16  O7  UNK     1      22.581  -8.519  40.152  1.00  0.00    -0.259 OA
BRANCH  15  17
HETATM   17  O3  UNK     1      23.736  -8.181  38.201  1.00  0.00    -0.322 OA
HETATM   18  C19 UNK     1      25.018  -8.028  38.822  1.00  0.00     0.213 C 
ENDBRANCH  15  17
ENDBRANCH   8  15
ENDBRANCH   2   5
BRANCH   3  19
HETATM   19  C5  UNK     1      19.407  -2.343  35.686  1.00  0.00     0.108 A 
HETATM   20  C12 UNK     1      19.545  -1.532  34.455  1.00  0.00     0.304 A 
HETATM   21  O1  UNK     1      19.031  -0.238  34.497  1.00  0.00    -0.274 OA
HETATM   22  O6  UNK     1      20.084  -1.972  33.446  1.00  0.00    -0.259 OA
HETATM   23  C10 UNK     1      18.409   0.276  35.652  1.00  0.00     0.089 A 
HETATM   24  C7  UNK     1      18.290  -0.503  36.798  1.00  0.00    -0.001 A 
HETATM   25  C15 UNK     1      17.924   1.582  35.599  1.00  0.00     0.038 A 
HETATM   26  C14 UNK     1      17.667   0.043  37.923  1.00  0.00     0.014 A 
HETATM   27  C9  UNK     1      18.817  -1.859  36.785  1.00  0.00     0.037 A 
HETATM   28  C16 UNK     1      17.176   1.351  37.885  1.00  0.00     0.001 A 
HETATM   29  C17 UNK     1      17.305   2.118  36.726  1.00  0.00     0.003 A 
ENDBRANCH   3  19
TORSDOF 6
ENDMDL
MODEL 10
REMARK VINA RESULT:      -8.0      3.528      9.676
REMARK  6 active torsions:
REMARK  status: ('A' for Active; 'I' for Inactive)
REMARK    1  A    between atoms: C11_20  and  O2_3 
REMARK    2  A    between atoms: C13_22  and  O3_4 
REMARK    3  A    between atoms: C3_12  and  N1_9 
REMARK       I    between atoms: C8_17  and  N1_9 
REMARK    4  A    between atoms: C11_20  and  C2_11 
REMARK    5  A    between atoms: C13_22  and  C4_13 
REMARK    6  A    between atoms: C5_14  and  C8_17 
ROOT
HETATM    1  O4  UNK     1      16.709   0.849  33.993  1.00  0.00    -0.267 OA
HETATM    2  N1  UNK     1      19.019   0.395  34.156  1.00  0.00    -0.316 N 
HETATM    3  C8  UNK     1      17.882   1.024  33.668  1.00  0.00     0.262 C 
HETATM    4  H1  UNK     1      19.929   0.634  33.771  1.00  0.00     0.169 HD
ENDROOT
BRANCH   2   5
HETATM    5  C3  UNK     1      19.054  -0.594  35.143  1.00  0.00     0.094 A 
HETATM    6  C2  UNK     1      18.627  -0.568  36.433  1.00  0.00     0.080 A 
HETATM    7  C1  UNK     1      18.866  -1.815  37.079  1.00  0.00    -0.020 A 
HETATM    8  C4  UNK     1      19.465  -2.727  36.238  1.00  0.00     0.089 A 
HETATM    9  C6  UNK     1      18.509  -2.100  38.491  1.00  0.00     0.051 C 
HETATM   10  S1  UNK     1      19.738  -2.078  34.676  1.00  0.00    -0.065 SA
BRANCH   6  11
HETATM   11  C11 UNK     1      18.015   0.587  37.042  1.00  0.00     0.296 C 
HETATM   12  O5  UNK     1      18.585   1.680  37.178  1.00  0.00    -0.259 OA
BRANCH  11  13
HETATM   13  O2  UNK     1      16.722   0.375  37.469  1.00  0.00    -0.322 OA
HETATM   14  C18 UNK     1      15.764   1.392  37.159  1.00  0.00     0.213 C 
ENDBRANCH  11  13
ENDBRANCH   6  11
BRANCH   8  15
HETATM   15  C13 UNK     1      19.863  -4.073  36.499  1.00  0.00     0.300 C 
HETATM   16  O7  UNK     1      19.102  -5.060  36.428  1.00  0.00    -0.259 OA
BRANCH  15  17
HETATM   17  O3  UNK     1      21.193  -4.219  36.850  1.00  0.00    -0.322 OA
HETATM   18  C19 UNK     1      21.496  -5.109  37.931  1.00  0.00     0.213 C 
ENDBRANCH  15  17
ENDBRANCH   8  15
ENDBRANCH   2   5
BRANCH   3  19
HETATM   19  C5  UNK     1      18.206   2.013  32.633  1.00  0.00     0.108 A 
HETATM   20  C12 UNK     1      18.716   1.617  31.301  1.00  0.00     0.304 A 
HETATM   21  O1  UNK     1      18.986   2.647  30.403  1.00  0.00    -0.274 OA
HETATM   22  O6  UNK     1      18.893   0.442  30.997  1.00  0.00    -0.259 OA
HETATM   23  C10 UNK     1      18.785   3.999  30.742  1.00  0.00     0.089 A 
HETATM   24  C7  UNK     1      18.306   4.349  32.000  1.00  0.00    -0.001 A 
HETATM   25  C15 UNK     1      19.083   4.959  29.777  1.00  0.00     0.038 A 
HETATM   26  C14 UNK     1      18.120   5.702  32.299  1.00  0.00     0.014 A 
HETATM   27  C9  UNK     1      18.014   3.296  32.960  1.00  0.00     0.037 A 
HETATM   28  C16 UNK     1      18.414   6.676  31.342  1.00  0.00     0.001 A 
HETATM   29  C17 UNK     1      18.896   6.306  30.084  1.00  0.00     0.003 A 
ENDBRANCH   3  19
TORSDOF 6
ENDMDL
