MODEL 1
REMARK VINA RESULT:      -8.9      0.000      0.000
REMARK  7 active torsions:
REMARK  status: ('A' for Active; 'I' for Inactive)
REMARK    1  A    between atoms: C1_9  and  O1_2 
REMARK    2  A    between atoms: C24_32  and  O6_7 
REMARK    3  A    between atoms: C6_14  and  N1_8 
REMARK    4  A    between atoms: C1_9  and  C5_13 
REMARK    5  A    between atoms: C5_13  and  C9_17 
REMARK    6  A    between atoms: C10_18  and  C6_14 
REMARK    7  A    between atoms: C13_21  and  C9_17 
ROOT
HETATM    1  O2  UNK     1      27.613  -6.702  34.837  1.00  0.00    -0.269 OA
HETATM    2  N1  UNK     1      29.723  -6.167  33.920  1.00  0.00    -0.310 N 
HETATM    3  C1  UNK     1      29.693  -7.255  36.024  1.00  0.00     0.175 A 
HETATM    4  C2  UNK     1      31.094  -6.956  35.566  1.00  0.00     0.013 A 
HETATM    5  C3  UNK     1      31.055  -6.319  34.325  1.00  0.00     0.047 A 
HETATM    6  C4  UNK     1      28.835  -6.692  34.872  1.00  0.00     0.264 A 
HETATM    7  C7  UNK     1      32.299  -7.221  36.190  1.00  0.00     0.013 A 
HETATM    8  C8  UNK     1      32.211  -5.929  33.670  1.00  0.00     0.030 A 
HETATM    9  C11 UNK     1      33.476  -6.835  35.544  1.00  0.00     0.001 A 
HETATM   10  C12 UNK     1      33.432  -6.195  34.293  1.00  0.00     0.002 A 
ENDROOT
BRANCH   3  11
HETATM   11  O1  UNK     1      29.402  -6.519  37.197  1.00  0.00    -0.375 OA
HETATM   12  H7  UNK     1      30.088  -5.842  37.320  1.00  0.00     0.211 HD
ENDBRANCH   3  11
BRANCH   3  13
HETATM   13  C5  UNK     1      29.429  -8.738  36.234  1.00  0.00     0.137 C 
BRANCH  13  14
HETATM   14  C9  UNK     1      28.591  -9.002  37.467  1.00  0.00     0.169 C 
HETATM   15  O3  UNK     1      29.051  -9.092  38.602  1.00  0.00    -0.292 OA
BRANCH  14  16
HETATM   16  C13 UNK     1      27.138  -9.157  37.249  1.00  0.00     0.086 A 
HETATM   17  C16 UNK     1      26.740 -10.317  36.715  1.00  0.00     0.035 A 
HETATM   18  C18 UNK     1      25.329 -10.563  36.463  1.00  0.00     0.002 A 
HETATM   19  C19 UNK     1      24.406  -9.574  36.786  1.00  0.00     0.123 A 
HETATM   20  C23 UNK     1      24.868 -11.760  35.908  1.00  0.00     0.014 A 
HETATM   21  O4  UNK     1      24.830  -8.355  37.349  1.00  0.00    -0.271 OA
HETATM   22  C24 UNK     1      23.039  -9.747  36.571  1.00  0.00     0.102 A 
HETATM   23  C17 UNK     1      26.173  -8.090  37.601  1.00  0.00     0.302 A 
HETATM   24  O5  UNK     1      26.534  -7.025  38.090  1.00  0.00    -0.259 OA
HETATM   25  C26 UNK     1      22.589 -10.943  36.017  1.00  0.00     0.040 A 
HETATM   26  C25 UNK     1      23.501 -11.947  35.686  1.00  0.00     0.004 A 
BRANCH  22  27
HETATM   27  O6  UNK     1      22.148  -8.771  36.892  1.00  0.00    -0.353 OA
HETATM   28  C27 UNK     1      21.275  -8.323  35.856  1.00  0.00     0.210 C 
ENDBRANCH  22  27
ENDBRANCH  14  16
ENDBRANCH  13  14
ENDBRANCH   3  13
BRANCH   2  29
HETATM   29  C6  UNK     1      29.337  -5.537  32.680  1.00  0.00     0.170 C 
BRANCH  29  30
HETATM   30  C10 UNK     1      28.940  -6.586  31.686  1.00  0.00    -0.040 A 
HETATM   31  C14 UNK     1      27.596  -6.772  31.378  1.00  0.00     0.010 A 
HETATM   32  C20 UNK     1      27.227  -7.749  30.453  1.00  0.00     0.024 A 
HETATM   33  C22 UNK     1      28.203  -8.535  29.841  1.00  0.00     0.034 A 
HETATM   34  C21 UNK     1      29.550  -8.344  30.154  1.00  0.00     0.024 A 
HETATM   35 Cl1  UNK     1      27.747  -9.740  28.702  1.00  0.00    -0.084 Cl
HETATM   36  C15 UNK     1      29.918  -7.367  31.078  1.00  0.00     0.010 A 
ENDBRANCH  29  30
ENDBRANCH   2  29
TORSDOF 7
ENDMDL
MODEL 2
REMARK VINA RESULT:      -8.7      2.374      4.045
REMARK  7 active torsions:
REMARK  status: ('A' for Active; 'I' for Inactive)
REMARK    1  A    between atoms: C1_9  and  O1_2 
REMARK    2  A    between atoms: C24_32  and  O6_7 
REMARK    3  A    between atoms: C6_14  and  N1_8 
REMARK    4  A    between atoms: C1_9  and  C5_13 
REMARK    5  A    between atoms: C5_13  and  C9_17 
REMARK    6  A    between atoms: C10_18  and  C6_14 
REMARK    7  A    between atoms: C13_21  and  C9_17 
ROOT
HETATM    1  O2  UNK     1      33.811  -4.819  35.845  1.00  0.00    -0.269 OA
HETATM    2  N1  UNK     1      32.907  -6.940  35.334  1.00  0.00    -0.310 N 
HETATM    3  C1  UNK     1      33.000  -6.315  37.617  1.00  0.00     0.175 A 
HETATM    4  C2  UNK     1      32.422  -7.692  37.434  1.00  0.00     0.013 A 
HETATM    5  C3  UNK     1      32.388  -8.009  36.075  1.00  0.00     0.047 A 
HETATM    6  C4  UNK     1      33.303  -5.883  36.169  1.00  0.00     0.264 A 
HETATM    7  C7  UNK     1      31.967  -8.589  38.384  1.00  0.00     0.013 A 
HETATM    8  C8  UNK     1      31.902  -9.224  35.623  1.00  0.00     0.030 A 
HETATM    9  C11 UNK     1      31.473  -9.820  37.945  1.00  0.00     0.001 A 
HETATM   10  C12 UNK     1      31.439 -10.134  36.576  1.00  0.00     0.002 A 
ENDROOT
BRANCH   3  11
HETATM   11  O1  UNK     1      34.223  -6.396  38.323  1.00  0.00    -0.375 OA
HETATM   12  H7  UNK     1      34.202  -7.179  38.898  1.00  0.00     0.211 HD
ENDBRANCH   3  11
BRANCH   3  13
HETATM   13  C5  UNK     1      32.045  -5.345  38.295  1.00  0.00     0.137 C 
BRANCH  13  14
HETATM   14  C9  UNK     1      30.848  -5.017  37.427  1.00  0.00     0.169 C 
HETATM   15  O3  UNK     1      30.839  -4.127  36.581  1.00  0.00    -0.292 OA
BRANCH  14  16
HETATM   16  C13 UNK     1      29.639  -5.838  37.643  1.00  0.00     0.086 A 
HETATM   17  C16 UNK     1      29.434  -6.830  36.769  1.00  0.00     0.035 A 
HETATM   18  C18 UNK     1      28.270  -7.692  36.899  1.00  0.00     0.002 A 
HETATM   19  C19 UNK     1      27.380  -7.468  37.943  1.00  0.00     0.123 A 
HETATM   20  C23 UNK     1      28.017  -8.741  36.010  1.00  0.00     0.014 A 
HETATM   21  O4  UNK     1      27.601  -6.423  38.861  1.00  0.00    -0.271 OA
HETATM   22  C24 UNK     1      26.246  -8.259  38.125  1.00  0.00     0.102 A 
HETATM   23  C17 UNK     1      28.705  -5.581  38.762  1.00  0.00     0.302 A 
HETATM   24  O5  UNK     1      28.890  -4.672  39.565  1.00  0.00    -0.259 OA
HETATM   25  C26 UNK     1      26.001  -9.301  37.234  1.00  0.00     0.040 A 
HETATM   26  C25 UNK     1      26.884  -9.542  36.179  1.00  0.00     0.004 A 
BRANCH  22  27
HETATM   27  O6  UNK     1      25.384  -8.029  39.151  1.00  0.00    -0.353 OA
HETATM   28  C27 UNK     1      23.999  -7.930  38.825  1.00  0.00     0.210 C 
ENDBRANCH  22  27
ENDBRANCH  14  16
ENDBRANCH  13  14
ENDBRANCH   3  13
BRANCH   2  29
HETATM   29  C6  UNK     1      33.019  -6.952  33.895  1.00  0.00     0.170 C 
BRANCH  29  30
HETATM   30  C10 UNK     1      31.652  -6.884  33.284  1.00  0.00    -0.040 A 
HETATM   31  C14 UNK     1      30.822  -5.804  33.569  1.00  0.00     0.010 A 
HETATM   32  C20 UNK     1      29.550  -5.740  33.002  1.00  0.00     0.024 A 
HETATM   33  C22 UNK     1      29.113  -6.757  32.152  1.00  0.00     0.034 A 
HETATM   34  C21 UNK     1      29.950  -7.838  31.870  1.00  0.00     0.024 A 
HETATM   35 Cl1  UNK     1      27.543  -6.679  31.453  1.00  0.00    -0.084 Cl
HETATM   36  C15 UNK     1      31.222  -7.900  32.438  1.00  0.00     0.010 A 
ENDBRANCH  29  30
ENDBRANCH   2  29
TORSDOF 7
ENDMDL
MODEL 3
REMARK VINA RESULT:      -8.7      2.659      4.392
REMARK  7 active torsions:
REMARK  status: ('A' for Active; 'I' for Inactive)
REMARK    1  A    between atoms: C1_9  and  O1_2 
REMARK    2  A    between atoms: C24_32  and  O6_7 
REMARK    3  A    between atoms: C6_14  and  N1_8 
REMARK    4  A    between atoms: C1_9  and  C5_13 
REMARK    5  A    between atoms: C5_13  and  C9_17 
REMARK    6  A    between atoms: C10_18  and  C6_14 
REMARK    7  A    between atoms: C13_21  and  C9_17 
ROOT
HETATM    1  O2  UNK     1      30.864  -5.585  38.628  1.00  0.00    -0.269 OA
HETATM    2  N1  UNK     1      30.786  -5.476  36.270  1.00  0.00    -0.310 N 
HETATM    3  C1  UNK     1      29.323  -7.002  37.340  1.00  0.00     0.175 A 
HETATM    4  C2  UNK     1      29.185  -7.047  35.843  1.00  0.00     0.013 A 
HETATM    5  C3  UNK     1      30.064  -6.131  35.263  1.00  0.00     0.047 A 
HETATM    6  C4  UNK     1      30.415  -5.933  37.545  1.00  0.00     0.264 A 
HETATM    7  C7  UNK     1      28.358  -7.830  35.059  1.00  0.00     0.013 A 
HETATM    8  C8  UNK     1      30.145  -5.967  33.891  1.00  0.00     0.030 A 
HETATM    9  C11 UNK     1      28.425  -7.677  33.671  1.00  0.00     0.001 A 
HETATM   10  C12 UNK     1      29.311  -6.752  33.092  1.00  0.00     0.002 A 
ENDROOT
BRANCH   3  11
HETATM   11  O1  UNK     1      29.817  -8.239  37.816  1.00  0.00    -0.375 OA
HETATM   12  H7  UNK     1      29.412  -8.428  38.678  1.00  0.00     0.211 HD
ENDBRANCH   3  11
BRANCH   3  13
HETATM   13  C5  UNK     1      28.036  -6.620  38.054  1.00  0.00     0.137 C 
BRANCH  13  14
HETATM   14  C9  UNK     1      27.406  -7.797  38.769  1.00  0.00     0.169 C 
HETATM   15  O3  UNK     1      27.833  -8.269  39.819  1.00  0.00    -0.292 OA
BRANCH  14  16
HETATM   16  C13 UNK     1      26.210  -8.385  38.133  1.00  0.00     0.086 A 
HETATM   17  C16 UNK     1      26.382  -9.567  37.529  1.00  0.00     0.035 A 
HETATM   18  C18 UNK     1      25.263 -10.226  36.874  1.00  0.00     0.002 A 
HETATM   19  C19 UNK     1      24.017  -9.607  36.887  1.00  0.00     0.123 A 
HETATM   20  C23 UNK     1      25.396 -11.460  36.233  1.00  0.00     0.014 A 
HETATM   21  O4  UNK     1      23.842  -8.363  37.524  1.00  0.00    -0.271 OA
HETATM   22  C24 UNK     1      22.904 -10.185  36.279  1.00  0.00     0.102 A 
HETATM   23  C17 UNK     1      24.894  -7.709  38.159  1.00  0.00     0.302 A 
HETATM   24  O5  UNK     1      24.732  -6.625  38.710  1.00  0.00    -0.259 OA
HETATM   25  C26 UNK     1      23.046 -11.416  35.642  1.00  0.00     0.040 A 
HETATM   26  C25 UNK     1      24.289 -12.052  35.619  1.00  0.00     0.004 A 
BRANCH  22  27
HETATM   27  O6  UNK     1      21.692  -9.569  36.299  1.00  0.00    -0.353 OA
HETATM   28  C27 UNK     1      21.297  -8.874  35.118  1.00  0.00     0.210 C 
ENDBRANCH  22  27
ENDBRANCH  14  16
ENDBRANCH  13  14
ENDBRANCH   3  13
BRANCH   2  29
HETATM   29  C6  UNK     1      31.786  -4.470  36.003  1.00  0.00     0.170 C 
BRANCH  29  30
HETATM   30  C10 UNK     1      33.098  -5.131  35.710  1.00  0.00    -0.040 A 
HETATM   31  C14 UNK     1      33.505  -5.304  34.390  1.00  0.00     0.010 A 
HETATM   32  C20 UNK     1      34.726  -5.920  34.117  1.00  0.00     0.024 A 
HETATM   33  C22 UNK     1      35.534  -6.361  35.165  1.00  0.00     0.034 A 
HETATM   34  C21 UNK     1      35.121  -6.186  36.486  1.00  0.00     0.024 A 
HETATM   35 Cl1  UNK     1      37.040  -7.122  34.828  1.00  0.00    -0.084 Cl
HETATM   36  C15 UNK     1      33.900  -5.569  36.759  1.00  0.00     0.010 A 
ENDBRANCH  29  30
ENDBRANCH   2  29
TORSDOF 7
ENDMDL
MODEL 4
REMARK VINA RESULT:      -8.5      3.840      7.169
REMARK  7 active torsions:
REMARK  status: ('A' for Active; 'I' for Inactive)
REMARK    1  A    between atoms: C1_9  and  O1_2 
REMARK    2  A    between atoms: C24_32  and  O6_7 
REMARK    3  A    between atoms: C6_14  and  N1_8 
REMARK    4  A    between atoms: C1_9  and  C5_13 
REMARK    5  A    between atoms: C5_13  and  C9_17 
REMARK    6  A    between atoms: C10_18  and  C6_14 
REMARK    7  A    between atoms: C13_21  and  C9_17 
ROOT
HETATM    1  O2  UNK     1      31.831  -8.045  39.093  1.00  0.00    -0.269 OA
HETATM    2  N1  UNK     1      31.424  -5.930  38.124  1.00  0.00    -0.310 N 
HETATM    3  C1  UNK     1      33.331  -7.121  37.380  1.00  0.00     0.175 A 
HETATM    4  C2  UNK     1      33.201  -5.787  36.699  1.00  0.00     0.013 A 
HETATM    5  C3  UNK     1      32.064  -5.128  37.170  1.00  0.00     0.047 A 
HETATM    6  C4  UNK     1      32.109  -7.139  38.321  1.00  0.00     0.264 A 
HETATM    7  C7  UNK     1      34.016  -5.201  35.747  1.00  0.00     0.013 A 
HETATM    8  C8  UNK     1      31.705  -3.873  36.709  1.00  0.00     0.030 A 
HETATM    9  C11 UNK     1      33.668  -3.934  35.270  1.00  0.00     0.001 A 
HETATM   10  C12 UNK     1      32.521  -3.276  35.746  1.00  0.00     0.002 A 
ENDROOT
BRANCH   3  11
HETATM   11  O1  UNK     1      34.503  -7.145  38.172  1.00  0.00    -0.375 OA
HETATM   12  H7  UNK     1      35.007  -6.330  38.013  1.00  0.00     0.211 HD
ENDBRANCH   3  11
BRANCH   3  13
HETATM   13  C5  UNK     1      33.303  -8.297  36.416  1.00  0.00     0.137 C 
BRANCH  13  14
HETATM   14  C9  UNK     1      31.935  -8.502  35.800  1.00  0.00     0.169 C 
HETATM   15  O3  UNK     1      30.993  -9.029  36.386  1.00  0.00    -0.292 OA
BRANCH  14  16
HETATM   16  C13 UNK     1      31.764  -8.028  34.412  1.00  0.00     0.086 A 
HETATM   17  C16 UNK     1      30.934  -6.994  34.237  1.00  0.00     0.035 A 
HETATM   18  C18 UNK     1      30.702  -6.457  32.906  1.00  0.00     0.002 A 
HETATM   19  C19 UNK     1      31.355  -7.036  31.823  1.00  0.00     0.123 A 
HETATM   20  C23 UNK     1      29.845  -5.377  32.677  1.00  0.00     0.014 A 
HETATM   21  O4  UNK     1      32.228  -8.125  32.013  1.00  0.00    -0.271 OA
HETATM   22  C24 UNK     1      31.177  -6.569  30.522  1.00  0.00     0.102 A 
HETATM   23  C17 UNK     1      32.470  -8.661  33.275  1.00  0.00     0.302 A 
HETATM   24  O5  UNK     1      33.231  -9.610  33.431  1.00  0.00    -0.259 OA
HETATM   25  C26 UNK     1      30.320  -5.493  30.303  1.00  0.00     0.040 A 
HETATM   26  C25 UNK     1      29.656  -4.898  31.378  1.00  0.00     0.004 A 
BRANCH  22  27
HETATM   27  O6  UNK     1      31.822  -7.145  29.472  1.00  0.00    -0.353 OA
HETATM   28  C27 UNK     1      31.033  -7.917  28.569  1.00  0.00     0.210 C 
ENDBRANCH  22  27
ENDBRANCH  14  16
ENDBRANCH  13  14
ENDBRANCH   3  13
BRANCH   2  29
HETATM   29  C6  UNK     1      30.217  -5.535  38.812  1.00  0.00     0.170 C 
BRANCH  29  30
HETATM   30  C10 UNK     1      29.087  -6.427  38.397  1.00  0.00    -0.040 A 
HETATM   31  C14 UNK     1      28.388  -7.149  39.359  1.00  0.00     0.010 A 
HETATM   32  C20 UNK     1      27.337  -7.980  38.972  1.00  0.00     0.024 A 
HETATM   33  C22 UNK     1      26.989  -8.085  37.625  1.00  0.00     0.034 A 
HETATM   34  C21 UNK     1      27.694  -7.357  36.664  1.00  0.00     0.024 A 
HETATM   35 Cl1  UNK     1      25.693  -9.109  37.148  1.00  0.00    -0.084 Cl
HETATM   36  C15 UNK     1      28.745  -6.527  37.052  1.00  0.00     0.010 A 
ENDBRANCH  29  30
ENDBRANCH   2  29
TORSDOF 7
ENDMDL
MODEL 5
REMARK VINA RESULT:      -8.5      4.706      9.101
REMARK  7 active torsions:
REMARK  status: ('A' for Active; 'I' for Inactive)
REMARK    1  A    between atoms: C1_9  and  O1_2 
REMARK    2  A    between atoms: C24_32  and  O6_7 
REMARK    3  A    between atoms: C6_14  and  N1_8 
REMARK    4  A    between atoms: C1_9  and  C5_13 
REMARK    5  A    between atoms: C5_13  and  C9_17 
REMARK    6  A    between atoms: C10_18  and  C6_14 
REMARK    7  A    between atoms: C13_21  and  C9_17 
ROOT
HETATM    1  O2  UNK     1      27.474  -7.496  30.941  1.00  0.00    -0.269 OA
HETATM    2  N1  UNK     1      28.861  -8.908  32.228  1.00  0.00    -0.310 N 
HETATM    3  C1  UNK     1      28.825  -9.256  29.885  1.00  0.00     0.175 A 
HETATM    4  C2  UNK     1      29.731 -10.232  30.584  1.00  0.00     0.013 A 
HETATM    5  C3  UNK     1      29.718  -9.983  31.958  1.00  0.00     0.047 A 
HETATM    6  C4  UNK     1      28.278  -8.410  31.053  1.00  0.00     0.264 A 
HETATM    7  C7  UNK     1      30.500 -11.253  30.056  1.00  0.00     0.013 A 
HETATM    8  C8  UNK     1      30.467 -10.740  32.842  1.00  0.00     0.030 A 
HETATM    9  C11 UNK     1      31.263 -12.027  30.934  1.00  0.00     0.001 A 
HETATM   10  C12 UNK     1      31.248 -11.771  32.316  1.00  0.00     0.002 A 
ENDROOT
BRANCH   3  11
HETATM   11  O1  UNK     1      27.742  -9.945  29.290  1.00  0.00    -0.375 OA
HETATM   12  H7  UNK     1      27.906 -10.022  28.335  1.00  0.00     0.211 HD
ENDBRANCH   3  11
BRANCH   3  13
HETATM   13  C5  UNK     1      29.544  -8.388  28.864  1.00  0.00     0.137 C 
BRANCH  13  14
HETATM   14  C9  UNK     1      30.438  -7.355  29.516  1.00  0.00     0.169 C 
HETATM   15  O3  UNK     1      30.075  -6.217  29.799  1.00  0.00    -0.292 OA
BRANCH  14  16
HETATM   16  C13 UNK     1      31.820  -7.780  29.813  1.00  0.00     0.086 A 
HETATM   17  C16 UNK     1      32.278  -7.493  31.037  1.00  0.00     0.035 A 
HETATM   18  C18 UNK     1      33.628  -7.872  31.422  1.00  0.00     0.002 A 
HETATM   19  C19 UNK     1      34.431  -8.533  30.499  1.00  0.00     0.123 A 
HETATM   20  C23 UNK     1      34.147  -7.593  32.690  1.00  0.00     0.014 A 
HETATM   21  O4  UNK     1      33.944  -8.833  29.212  1.00  0.00    -0.271 OA
HETATM   22  C24 UNK     1      35.734  -8.924  30.805  1.00  0.00     0.102 A 
HETATM   23  C17 UNK     1      32.657  -8.484  28.814  1.00  0.00     0.302 A 
HETATM   24  O5  UNK     1      32.241  -8.747  27.691  1.00  0.00    -0.259 OA
HETATM   25  C26 UNK     1      36.243  -8.642  32.071  1.00  0.00     0.040 A 
HETATM   26  C25 UNK     1      35.452  -7.979  33.011  1.00  0.00     0.004 A 
BRANCH  22  27
HETATM   27  O6  UNK     1      36.507  -9.571  29.893  1.00  0.00    -0.353 OA
HETATM   28  C27 UNK     1      37.442 -10.525  30.393  1.00  0.00     0.210 C 
ENDBRANCH  22  27
ENDBRANCH  14  16
ENDBRANCH  13  14
ENDBRANCH   3  13
BRANCH   2  29
HETATM   29  C6  UNK     1      28.619  -8.402  33.558  1.00  0.00     0.170 C 
BRANCH  29  30
HETATM   30  C10 UNK     1      29.714  -7.453  33.942  1.00  0.00    -0.040 A 
HETATM   31  C14 UNK     1      30.608  -7.802  34.949  1.00  0.00     0.010 A 
HETATM   32  C20 UNK     1      31.627  -6.919  35.307  1.00  0.00     0.024 A 
HETATM   33  C22 UNK     1      31.746  -5.691  34.656  1.00  0.00     0.034 A 
HETATM   34  C21 UNK     1      30.846  -5.346  33.646  1.00  0.00     0.024 A 
HETATM   35 Cl1  UNK     1      33.002  -4.602  35.097  1.00  0.00    -0.084 Cl
HETATM   36  C15 UNK     1      29.828  -6.230  33.289  1.00  0.00     0.010 A 
ENDBRANCH  29  30
ENDBRANCH   2  29
TORSDOF 7
ENDMDL
MODEL 6
REMARK VINA RESULT:      -8.4      4.503      6.399
REMARK  7 active torsions:
REMARK  status: ('A' for Active; 'I' for Inactive)
REMARK    1  A    between atoms: C1_9  and  O1_2 
REMARK    2  A    between atoms: C24_32  and  O6_7 
REMARK    3  A    between atoms: C6_14  and  N1_8 
REMARK    4  A    between atoms: C1_9  and  C5_13 
REMARK    5  A    between atoms: C5_13  and  C9_17 
REMARK    6  A    between atoms: C10_18  and  C6_14 
REMARK    7  A    between atoms: C13_21  and  C9_17 
ROOT
HETATM    1  O2  UNK     1      31.684  -8.342  32.909  1.00  0.00    -0.269 OA
HETATM    2  N1  UNK     1      31.144 -10.003  31.320  1.00  0.00    -0.310 N 
HETATM    3  C1  UNK     1      31.525 -10.710  33.548  1.00  0.00     0.175 A 
HETATM    4  C2  UNK     1      31.211 -11.865  32.639  1.00  0.00     0.013 A 
HETATM    5  C3  UNK     1      30.994 -11.396  31.342  1.00  0.00     0.047 A 
HETATM    6  C4  UNK     1      31.466  -9.502  32.591  1.00  0.00     0.264 A 
HETATM    7  C7  UNK     1      31.125 -13.215  32.928  1.00  0.00     0.013 A 
HETATM    8  C8  UNK     1      30.686 -12.253  30.299  1.00  0.00     0.030 A 
HETATM    9  C11 UNK     1      30.815 -14.095  31.887  1.00  0.00     0.001 A 
HETATM   10  C12 UNK     1      30.596 -13.617  30.584  1.00  0.00     0.002 A 
ENDROOT
BRANCH   3  11
HETATM   11  O1  UNK     1      32.847 -10.827  34.037  1.00  0.00    -0.375 OA
HETATM   12  H7  UNK     1      33.446 -10.346  33.442  1.00  0.00     0.211 HD
ENDBRANCH   3  11
BRANCH   3  13
HETATM   13  C5  UNK     1      30.535 -10.555  34.693  1.00  0.00     0.137 C 
BRANCH  13  14
HETATM   14  C9  UNK     1      31.224 -10.325  36.021  1.00  0.00     0.169 C 
HETATM   15  O3  UNK     1      31.734 -11.219  36.691  1.00  0.00    -0.292 OA
BRANCH  14  16
HETATM   16  C13 UNK     1      31.263  -8.931  36.505  1.00  0.00     0.086 A 
HETATM   17  C16 UNK     1      30.213  -8.526  37.228  1.00  0.00     0.035 A 
HETATM   18  C18 UNK     1      30.161  -7.169  37.749  1.00  0.00     0.002 A 
HETATM   19  C19 UNK     1      31.217  -6.305  37.483  1.00  0.00     0.123 A 
HETATM   20  C23 UNK     1      29.084  -6.704  38.509  1.00  0.00     0.014 A 
HETATM   21  O4  UNK     1      32.321  -6.736  36.722  1.00  0.00    -0.271 OA
HETATM   22  C24 UNK     1      31.229  -4.993  37.953  1.00  0.00     0.102 A 
HETATM   23  C17 UNK     1      32.400  -8.028  36.210  1.00  0.00     0.302 A 
HETATM   24  O5  UNK     1      33.364  -8.395  35.547  1.00  0.00    -0.259 OA
HETATM   25  C26 UNK     1      30.152  -4.537  38.710  1.00  0.00     0.040 A 
HETATM   26  C25 UNK     1      29.082  -5.390  38.987  1.00  0.00     0.004 A 
BRANCH  22  27
HETATM   27  O6  UNK     1      32.269  -4.158  37.685  1.00  0.00    -0.353 OA
HETATM   28  C27 UNK     1      32.162  -3.338  36.523  1.00  0.00     0.210 C 
ENDBRANCH  22  27
ENDBRANCH  14  16
ENDBRANCH  13  14
ENDBRANCH   3  13
BRANCH   2  29
HETATM   29  C6  UNK     1      30.992  -9.208  30.124  1.00  0.00     0.170 C 
BRANCH  29  30
HETATM   30  C10 UNK     1      29.666  -8.510  30.151  1.00  0.00    -0.040 A 
HETATM   31  C14 UNK     1      29.616  -7.127  30.287  1.00  0.00     0.010 A 
HETATM   32  C20 UNK     1      28.382  -6.478  30.312  1.00  0.00     0.024 A 
HETATM   33  C22 UNK     1      27.203  -7.215  30.202  1.00  0.00     0.034 A 
HETATM   34  C21 UNK     1      27.259  -8.603  30.066  1.00  0.00     0.024 A 
HETATM   35 Cl1  UNK     1      25.681  -6.415  30.234  1.00  0.00    -0.084 Cl
HETATM   36  C15 UNK     1      28.493  -9.252  30.041  1.00  0.00     0.010 A 
ENDBRANCH  29  30
ENDBRANCH   2  29
TORSDOF 7
ENDMDL
MODEL 7
REMARK VINA RESULT:      -8.4      3.841      6.625
REMARK  7 active torsions:
REMARK  status: ('A' for Active; 'I' for Inactive)
REMARK    1  A    between atoms: C1_9  and  O1_2 
REMARK    2  A    between atoms: C24_32  and  O6_7 
REMARK    3  A    between atoms: C6_14  and  N1_8 
REMARK    4  A    between atoms: C1_9  and  C5_13 
REMARK    5  A    between atoms: C5_13  and  C9_17 
REMARK    6  A    between atoms: C10_18  and  C6_14 
REMARK    7  A    between atoms: C13_21  and  C9_17 
ROOT
HETATM    1  O2  UNK     1      30.882  -6.243  33.881  1.00  0.00    -0.269 OA
HETATM    2  N1  UNK     1      31.050  -5.025  35.897  1.00  0.00    -0.310 N 
HETATM    3  C1  UNK     1      29.353  -6.672  35.756  1.00  0.00     0.175 A 
HETATM    4  C2  UNK     1      29.337  -5.961  37.081  1.00  0.00     0.013 A 
HETATM    5  C3  UNK     1      30.354  -5.005  37.113  1.00  0.00     0.047 A 
HETATM    6  C4  UNK     1      30.522  -5.986  35.020  1.00  0.00     0.264 A 
HETATM    7  C7  UNK     1      28.497  -6.139  38.165  1.00  0.00     0.013 A 
HETATM    8  C8  UNK     1      30.564  -4.202  38.220  1.00  0.00     0.030 A 
HETATM    9  C11 UNK     1      28.695  -5.337  39.292  1.00  0.00     0.001 A 
HETATM   10  C12 UNK     1      29.721  -4.377  39.320  1.00  0.00     0.002 A 
ENDROOT
BRANCH   3  11
HETATM   11  O1  UNK     1      28.160  -6.399  35.048  1.00  0.00    -0.375 OA
HETATM   12  H7  UNK     1      27.935  -7.171  34.502  1.00  0.00     0.211 HD
ENDBRANCH   3  11
BRANCH   3  13
HETATM   13  C5  UNK     1      29.582  -8.171  35.878  1.00  0.00     0.137 C 
BRANCH  13  14
HETATM   14  C9  UNK     1      28.551  -8.973  35.112  1.00  0.00     0.169 C 
HETATM   15  O3  UNK     1      27.440  -9.256  35.551  1.00  0.00    -0.292 OA
BRANCH  14  16
HETATM   16  C13 UNK     1      28.943  -9.424  33.762  1.00  0.00     0.086 A 
HETATM   17  C16 UNK     1      29.590 -10.593  33.693  1.00  0.00     0.035 A 
HETATM   18  C18 UNK     1      30.018 -11.120  32.407  1.00  0.00     0.002 A 
HETATM   19  C19 UNK     1      29.743 -10.390  31.255  1.00  0.00     0.123 A 
HETATM   20  C23 UNK     1      30.695 -12.337  32.288  1.00  0.00     0.014 A 
HETATM   21  O4  UNK     1      29.061  -9.160  31.333  1.00  0.00    -0.271 OA
HETATM   22  C24 UNK     1      30.124 -10.839  29.992  1.00  0.00     0.102 A 
HETATM   23  C17 UNK     1      28.640  -8.630  32.549  1.00  0.00     0.302 A 
HETATM   24  O5  UNK     1      28.048  -7.557  32.608  1.00  0.00    -0.259 OA
HETATM   25  C26 UNK     1      30.800 -12.053  29.883  1.00  0.00     0.040 A 
HETATM   26  C25 UNK     1      31.084 -12.800  31.028  1.00  0.00     0.004 A 
BRANCH  22  27
HETATM   27  O6  UNK     1      29.849 -10.115  28.874  1.00  0.00    -0.353 OA
HETATM   28  C27 UNK     1      28.606 -10.373  28.223  1.00  0.00     0.210 C 
ENDBRANCH  22  27
ENDBRANCH  14  16
ENDBRANCH  13  14
ENDBRANCH   3  13
BRANCH   2  29
HETATM   29  C6  UNK     1      32.160  -4.150  35.604  1.00  0.00     0.170 C 
BRANCH  29  30
HETATM   30  C10 UNK     1      33.402  -4.964  35.405  1.00  0.00    -0.040 A 
HETATM   31  C14 UNK     1      34.081  -4.903  34.192  1.00  0.00     0.010 A 
HETATM   32  C20 UNK     1      35.237  -5.661  34.006  1.00  0.00     0.024 A 
HETATM   33  C22 UNK     1      35.708  -6.477  35.035  1.00  0.00     0.034 A 
HETATM   34  C21 UNK     1      35.023  -6.535  36.249  1.00  0.00     0.024 A 
HETATM   35 Cl1  UNK     1      37.134  -7.413  34.806  1.00  0.00    -0.084 Cl
HETATM   36  C15 UNK     1      33.868  -5.776  36.434  1.00  0.00     0.010 A 
ENDBRANCH  29  30
ENDBRANCH   2  29
TORSDOF 7
ENDMDL
MODEL 8
REMARK VINA RESULT:      -8.4      5.313      8.104
REMARK  7 active torsions:
REMARK  status: ('A' for Active; 'I' for Inactive)
REMARK    1  A    between atoms: C1_9  and  O1_2 
REMARK    2  A    between atoms: C24_32  and  O6_7 
REMARK    3  A    between atoms: C6_14  and  N1_8 
REMARK    4  A    between atoms: C1_9  and  C5_13 
REMARK    5  A    between atoms: C5_13  and  C9_17 
REMARK    6  A    between atoms: C10_18  and  C6_14 
REMARK    7  A    between atoms: C13_21  and  C9_17 
ROOT
HETATM    1  O2  UNK     1      30.709 -10.711  28.179  1.00  0.00    -0.269 OA
HETATM    2  N1  UNK     1      29.713 -10.049  30.215  1.00  0.00    -0.310 N 
HETATM    3  C1  UNK     1      31.543 -11.549  30.333  1.00  0.00     0.175 A 
HETATM    4  C2  UNK     1      30.992 -11.226  31.695  1.00  0.00     0.013 A 
HETATM    5  C3  UNK     1      29.921 -10.340  31.570  1.00  0.00     0.047 A 
HETATM    6  C4  UNK     1      30.631 -10.729  29.399  1.00  0.00     0.264 A 
HETATM    7  C7  UNK     1      31.399 -11.676  32.938  1.00  0.00     0.013 A 
HETATM    8  C8  UNK     1      29.226  -9.876  32.674  1.00  0.00     0.030 A 
HETATM    9  C11 UNK     1      30.709 -11.218  34.064  1.00  0.00     0.001 A 
HETATM   10  C12 UNK     1      29.632 -10.324  33.932  1.00  0.00     0.002 A 
ENDROOT
BRANCH   3  11
HETATM   11  O1  UNK     1      31.351 -12.922  30.050  1.00  0.00    -0.375 OA
HETATM   12  H7  UNK     1      30.747 -13.298  30.711  1.00  0.00     0.211 HD
ENDBRANCH   3  11
BRANCH   3  13
HETATM   13  C5  UNK     1      33.002 -11.159  30.163  1.00  0.00     0.137 C 
BRANCH  13  14
HETATM   14  C9  UNK     1      33.185  -9.660  30.044  1.00  0.00     0.169 C 
HETATM   15  O3  UNK     1      33.166  -9.051  28.978  1.00  0.00    -0.292 OA
BRANCH  14  16
HETATM   16  C13 UNK     1      33.400  -8.925  31.306  1.00  0.00     0.086 A 
HETATM   17  C16 UNK     1      32.383  -8.164  31.728  1.00  0.00     0.035 A 
HETATM   18  C18 UNK     1      32.501  -7.402  32.961  1.00  0.00     0.002 A 
HETATM   19  C19 UNK     1      33.683  -7.478  33.689  1.00  0.00     0.123 A 
HETATM   20  C23 UNK     1      31.464  -6.596  33.440  1.00  0.00     0.014 A 
HETATM   21  O4  UNK     1      34.750  -8.280  33.241  1.00  0.00    -0.271 OA
HETATM   22  C24 UNK     1      33.859  -6.773  34.879  1.00  0.00     0.102 A 
HETATM   23  C17 UNK     1      34.668  -9.021  32.065  1.00  0.00     0.302 A 
HETATM   24  O5  UNK     1      35.602  -9.716  31.681  1.00  0.00    -0.259 OA
HETATM   25  C26 UNK     1      32.821  -5.971  35.349  1.00  0.00     0.040 A 
HETATM   26  C25 UNK     1      31.626  -5.883  34.631  1.00  0.00     0.004 A 
BRANCH  22  27
HETATM   27  O6  UNK     1      35.021  -6.856  35.581  1.00  0.00    -0.353 OA
HETATM   28  C27 UNK     1      35.377  -5.732  36.384  1.00  0.00     0.210 C 
ENDBRANCH  22  27
ENDBRANCH  14  16
ENDBRANCH  13  14
ENDBRANCH   3  13
BRANCH   2  29
HETATM   29  C6  UNK     1      28.673  -9.166  29.744  1.00  0.00     0.170 C 
BRANCH  29  30
HETATM   30  C10 UNK     1      29.018  -7.751  30.095  1.00  0.00    -0.040 A 
HETATM   31  C14 UNK     1      28.227  -7.052  31.002  1.00  0.00     0.010 A 
HETATM   32  C20 UNK     1      28.547  -5.735  31.329  1.00  0.00     0.024 A 
HETATM   33  C22 UNK     1      29.657  -5.122  30.747  1.00  0.00     0.034 A 
HETATM   34  C21 UNK     1      30.447  -5.827  29.838  1.00  0.00     0.024 A 
HETATM   35 Cl1  UNK     1      30.052  -3.497  31.150  1.00  0.00    -0.084 Cl
HETATM   36  C15 UNK     1      30.126  -7.145  29.512  1.00  0.00     0.010 A 
ENDBRANCH  29  30
ENDBRANCH   2  29
TORSDOF 7
ENDMDL
MODEL 9
REMARK VINA RESULT:      -8.4      2.505      4.422
REMARK  7 active torsions:
REMARK  status: ('A' for Active; 'I' for Inactive)
REMARK    1  A    between atoms: C1_9  and  O1_2 
REMARK    2  A    between atoms: C24_32  and  O6_7 
REMARK    3  A    between atoms: C6_14  and  N1_8 
REMARK    4  A    between atoms: C1_9  and  C5_13 
REMARK    5  A    between atoms: C5_13  and  C9_17 
REMARK    6  A    between atoms: C10_18  and  C6_14 
REMARK    7  A    between atoms: C13_21  and  C9_17 
ROOT
HETATM    1  O2  UNK     1      34.449  -6.822  34.154  1.00  0.00    -0.269 OA
HETATM    2  N1  UNK     1      33.148  -8.643  34.909  1.00  0.00    -0.310 N 
HETATM    3  C1  UNK     1      33.513  -6.859  36.425  1.00  0.00     0.175 A 
HETATM    4  C2  UNK     1      32.689  -7.958  37.038  1.00  0.00     0.013 A 
HETATM    5  C3  UNK     1      32.502  -8.980  36.106  1.00  0.00     0.047 A 
HETATM    6  C4  UNK     1      33.784  -7.395  35.005  1.00  0.00     0.264 A 
HETATM    7  C7  UNK     1      32.151  -8.051  38.309  1.00  0.00     0.013 A 
HETATM    8  C8  UNK     1      31.777 -10.119  36.409  1.00  0.00     0.030 A 
HETATM    9  C11 UNK     1      31.415  -9.194  38.633  1.00  0.00     0.001 A 
HETATM   10  C12 UNK     1      31.229 -10.219  37.689  1.00  0.00     0.002 A 
ENDROOT
BRANCH   3  11
HETATM   11  O1  UNK     1      34.749  -6.749  37.104  1.00  0.00    -0.375 OA
HETATM   12  H7  UNK     1      34.668  -7.173  37.975  1.00  0.00     0.211 HD
ENDBRANCH   3  11
BRANCH   3  13
HETATM   13  C5  UNK     1      32.796  -5.519  36.382  1.00  0.00     0.137 C 
BRANCH  13  14
HETATM   14  C9  UNK     1      31.584  -5.544  35.475  1.00  0.00     0.169 C 
HETATM   15  O3  UNK     1      31.582  -5.118  34.324  1.00  0.00    -0.292 OA
BRANCH  14  16
HETATM   16  C13 UNK     1      30.351  -6.123  36.046  1.00  0.00     0.086 A 
HETATM   17  C16 UNK     1      29.946  -7.286  35.524  1.00  0.00     0.035 A 
HETATM   18  C18 UNK     1      28.743  -7.933  36.022  1.00  0.00     0.002 A 
HETATM   19  C19 UNK     1      28.025  -7.324  37.045  1.00  0.00     0.123 A 
HETATM   20  C23 UNK     1      28.283  -9.149  35.507  1.00  0.00     0.014 A 
HETATM   21  O4  UNK     1      28.456  -6.099  37.591  1.00  0.00    -0.271 OA
HETATM   22  C24 UNK     1      26.863  -7.892  37.567  1.00  0.00     0.102 A 
HETATM   23  C17 UNK     1      29.603  -5.456  37.136  1.00  0.00     0.302 A 
HETATM   24  O5  UNK     1      29.971  -4.389  37.616  1.00  0.00    -0.259 OA
HETATM   25  C26 UNK     1      26.412  -9.103  37.047  1.00  0.00     0.040 A 
HETATM   26  C25 UNK     1      27.120  -9.730  36.020  1.00  0.00     0.004 A 
BRANCH  22  27
HETATM   27  O6  UNK     1      26.171  -7.284  38.567  1.00  0.00    -0.353 OA
HETATM   28  C27 UNK     1      24.823  -7.704  38.772  1.00  0.00     0.210 C 
ENDBRANCH  22  27
ENDBRANCH  14  16
ENDBRANCH  13  14
ENDBRANCH   3  13
BRANCH   2  29
HETATM   29  C6  UNK     1      33.154  -9.493  33.743  1.00  0.00     0.170 C 
BRANCH  29  30
HETATM   30  C10 UNK     1      31.867  -9.325  32.993  1.00  0.00    -0.040 A 
HETATM   31  C14 UNK     1      30.952 -10.372  32.948  1.00  0.00     0.010 A 
HETATM   32  C20 UNK     1      29.755 -10.216  32.250  1.00  0.00     0.024 A 
HETATM   33  C22 UNK     1      29.478  -9.013  31.600  1.00  0.00     0.034 A 
HETATM   34  C21 UNK     1      30.399  -7.966  31.649  1.00  0.00     0.024 A 
HETATM   35 Cl1  UNK     1      28.001  -8.821  30.739  1.00  0.00    -0.084 Cl
HETATM   36  C15 UNK     1      31.596  -8.123  32.347  1.00  0.00     0.010 A 
ENDBRANCH  29  30
ENDBRANCH   2  29
TORSDOF 7
ENDMDL
MODEL 10
REMARK VINA RESULT:      -8.4      4.250      6.662
REMARK  7 active torsions:
REMARK  status: ('A' for Active; 'I' for Inactive)
REMARK    1  A    between atoms: C1_9  and  O1_2 
REMARK    2  A    between atoms: C24_32  and  O6_7 
REMARK    3  A    between atoms: C6_14  and  N1_8 
REMARK    4  A    between atoms: C1_9  and  C5_13 
REMARK    5  A    between atoms: C5_13  and  C9_17 
REMARK    6  A    between atoms: C10_18  and  C6_14 
REMARK    7  A    between atoms: C13_21  and  C9_17 
ROOT
HETATM    1  O2  UNK     1      33.647  -7.579  37.605  1.00  0.00    -0.269 OA
HETATM    2  N1  UNK     1      31.333  -7.627  38.074  1.00  0.00    -0.310 N 
HETATM    3  C1  UNK     1      32.386  -5.506  37.996  1.00  0.00     0.175 A 
HETATM    4  C2  UNK     1      30.922  -5.395  38.322  1.00  0.00     0.013 A 
HETATM    5  C3  UNK     1      30.351  -6.669  38.354  1.00  0.00     0.047 A 
HETATM    6  C4  UNK     1      32.583  -7.029  37.851  1.00  0.00     0.264 A 
HETATM    7  C7  UNK     1      30.158  -4.269  38.572  1.00  0.00     0.013 A 
HETATM    8  C8  UNK     1      29.008  -6.858  38.633  1.00  0.00     0.030 A 
HETATM    9  C11 UNK     1      28.801  -4.441  38.855  1.00  0.00     0.001 A 
HETATM   10  C12 UNK     1      28.230  -5.726  38.884  1.00  0.00     0.002 A 
ENDROOT
BRANCH   3  11
HETATM   11  O1  UNK     1      33.159  -5.060  39.094  1.00  0.00    -0.375 OA
HETATM   12  H7  UNK     1      34.098  -5.211  38.898  1.00  0.00     0.211 HD
ENDBRANCH   3  11
BRANCH   3  13
HETATM   13  C5  UNK     1      32.778  -4.775  36.722  1.00  0.00     0.137 C 
BRANCH  13  14
HETATM   14  C9  UNK     1      33.374  -5.704  35.687  1.00  0.00     0.169 C 
HETATM   15  O3  UNK     1      34.536  -6.100  35.710  1.00  0.00    -0.292 OA
BRANCH  14  16
HETATM   16  C13 UNK     1      32.473  -6.137  34.600  1.00  0.00     0.086 A 
HETATM   17  C16 UNK     1      31.162  -6.000  34.829  1.00  0.00     0.035 A 
HETATM   18  C18 UNK     1      30.195  -6.399  33.817  1.00  0.00     0.002 A 
HETATM   19  C19 UNK     1      30.657  -6.922  32.615  1.00  0.00     0.123 A 
HETATM   20  C23 UNK     1      28.817  -6.272  34.013  1.00  0.00     0.014 A 
HETATM   21  O4  UNK     1      32.038  -7.064  32.379  1.00  0.00    -0.271 OA
HETATM   22  C24 UNK     1      29.784  -7.322  31.604  1.00  0.00     0.102 A 
HETATM   23  C17 UNK     1      32.987  -6.692  33.327  1.00  0.00     0.302 A 
HETATM   24  O5  UNK     1      34.188  -6.820  33.114  1.00  0.00    -0.259 OA
HETATM   25  C26 UNK     1      28.412  -7.194  31.808  1.00  0.00     0.040 A 
HETATM   26  C25 UNK     1      27.929  -6.670  33.009  1.00  0.00     0.004 A 
BRANCH  22  27
HETATM   27  O6  UNK     1      30.249  -7.833  30.433  1.00  0.00    -0.353 OA
HETATM   28  C27 UNK     1      29.299  -8.033  29.388  1.00  0.00     0.210 C 
ENDBRANCH  22  27
ENDBRANCH  14  16
ENDBRANCH  13  14
ENDBRANCH   3  13
BRANCH   2  29
HETATM   29  C6  UNK     1      31.070  -9.046  38.037  1.00  0.00     0.170 C 
BRANCH  29  30
HETATM   30  C10 UNK     1      30.700  -9.451  36.642  1.00  0.00    -0.040 A 
HETATM   31  C14 UNK     1      31.694  -9.842  35.751  1.00  0.00     0.010 A 
HETATM   32  C20 UNK     1      31.351 -10.219  34.452  1.00  0.00     0.024 A 
HETATM   33  C22 UNK     1      30.015 -10.202  34.052  1.00  0.00     0.034 A 
HETATM   34  C21 UNK     1      29.022  -9.809  34.950  1.00  0.00     0.024 A 
HETATM   35 Cl1  UNK     1      29.591 -10.666  32.450  1.00  0.00    -0.084 Cl
HETATM   36  C15 UNK     1      29.366  -9.433  36.248  1.00  0.00     0.010 A 
ENDBRANCH  29  30
ENDBRANCH   2  29
TORSDOF 7
ENDMDL
