MODEL 1
REMARK VINA RESULT:      -8.1      0.000      0.000
REMARK  5 active torsions:
REMARK  status: ('A' for Active; 'I' for Inactive)
REMARK    1  A    between atoms: C13_19  and  N1_5 
REMARK    2  A    between atoms: C4_10  and  N1_5 
REMARK    3  A    between atoms: C13_19  and  N2_6 
REMARK    4  A    between atoms: C9_15  and  N2_6 
REMARK    5  A    between atoms: C12_18  and  C9_15 
ROOT
HETATM    1  O1  UNK     1      18.963  -9.455  38.288  1.00  0.00    -0.275 OA
HETATM    2  O2  UNK     1      19.125 -11.565  39.155  1.00  0.00    -0.260 OA
HETATM    3  C1  UNK     1      20.262  -8.876  36.302  1.00  0.00     0.004 A 
HETATM    4  C2  UNK     1      19.355  -8.526  37.304  1.00  0.00     0.092 A 
HETATM    5  C3  UNK     1      20.806 -10.241  36.291  1.00  0.00    -0.043 A 
HETATM    6  C4  UNK     1      19.140  -6.292  36.442  1.00  0.00     0.036 A 
HETATM    7  C5  UNK     1      18.791  -7.252  37.386  1.00  0.00     0.067 A 
HETATM    8  C6  UNK     1      20.600  -7.896  35.360  1.00  0.00     0.017 A 
HETATM    9  C7  UNK     1      20.043  -6.614  35.430  1.00  0.00     0.030 A 
HETATM   10  C8  UNK     1      20.416 -11.103  37.240  1.00  0.00     0.090 A 
HETATM   11  C10 UNK     1      21.783 -10.649  35.227  1.00  0.00     0.049 C 
HETATM   12  C11 UNK     1      19.460 -10.749  38.303  1.00  0.00     0.288 A 
ENDROOT
BRANCH   6  13
HETATM   13  N1  UNK     1      18.588  -5.014  36.506  1.00  0.00    -0.333 N 
HETATM   14  H5  UNK     1      17.586  -5.041  36.672  1.00  0.00     0.168 HD
BRANCH  13  15
HETATM   15  C13 UNK     1      19.158  -3.736  36.646  1.00  0.00     0.172 C 
HETATM   16  S2  UNK     1      20.631  -3.339  37.351  1.00  0.00    -0.041 SA
BRANCH  15  17
HETATM   17  N2  UNK     1      18.422  -2.692  36.099  1.00  0.00    -0.362 N 
HETATM   18  H11 UNK     1      17.412  -2.796  36.115  1.00  0.00     0.162 HD
BRANCH  17  19
HETATM   19  C9  UNK     1      18.940  -1.472  35.509  1.00  0.00     0.168 C 
BRANCH  19  20
HETATM   20  C12 UNK     1      18.398  -0.288  36.250  1.00  0.00     0.000 A 
HETATM   21  S1  UNK     1      18.467   1.247  35.515  1.00  0.00    -0.105 SA
HETATM   22  C16 UNK     1      17.723   1.974  36.876  1.00  0.00     0.050 A 
HETATM   23  C15 UNK     1      17.435   1.054  37.860  1.00  0.00     0.008 A 
HETATM   24  C14 UNK     1      17.830  -0.265  37.492  1.00  0.00     0.017 A 
ENDBRANCH  19  20
ENDBRANCH  17  19
ENDBRANCH  15  17
ENDBRANCH  13  15
ENDBRANCH   6  13
TORSDOF 5
ENDMDL
MODEL 2
REMARK VINA RESULT:      -8.1      5.367      7.576
REMARK  5 active torsions:
REMARK  status: ('A' for Active; 'I' for Inactive)
REMARK    1  A    between atoms: C13_19  and  N1_5 
REMARK    2  A    between atoms: C4_10  and  N1_5 
REMARK    3  A    between atoms: C13_19  and  N2_6 
REMARK    4  A    between atoms: C9_15  and  N2_6 
REMARK    5  A    between atoms: C12_18  and  C9_15 
ROOT
HETATM    1  O1  UNK     1      20.235  -3.060  34.913  1.00  0.00    -0.275 OA
HETATM    2  O2  UNK     1      20.998  -4.403  36.599  1.00  0.00    -0.260 OA
HETATM    3  C1  UNK     1      18.734  -1.208  35.447  1.00  0.00     0.004 A 
HETATM    4  C2  UNK     1      19.453  -1.957  34.514  1.00  0.00     0.092 A 
HETATM    5  C3  UNK     1      18.805  -1.592  36.864  1.00  0.00    -0.043 A 
HETATM    6  C4  UNK     1      18.688  -0.583  32.697  1.00  0.00     0.036 A 
HETATM    7  C5  UNK     1      19.441  -1.661  33.151  1.00  0.00     0.067 A 
HETATM    8  C6  UNK     1      17.982  -0.127  34.970  1.00  0.00     0.017 A 
HETATM    9  C7  UNK     1      17.959   0.182  33.606  1.00  0.00     0.030 A 
HETATM   10  C8  UNK     1      19.556  -2.645  37.213  1.00  0.00     0.090 A 
HETATM   11  C10 UNK     1      18.043  -0.807  37.891  1.00  0.00     0.049 C 
HETATM   12  C11 UNK     1      20.321  -3.446  36.242  1.00  0.00     0.288 A 
ENDROOT
BRANCH   6  13
HETATM   13  N1  UNK     1      18.662  -0.269  31.339  1.00  0.00    -0.333 N 
HETATM   14  H5  UNK     1      17.715  -0.130  31.000  1.00  0.00     0.168 HD
BRANCH  13  15
HETATM   15  C13 UNK     1      19.661   0.139  30.437  1.00  0.00     0.172 C 
HETATM   16  S2  UNK     1      20.679  -0.834  29.520  1.00  0.00    -0.041 SA
BRANCH  15  17
HETATM   17  N2  UNK     1      19.784   1.513  30.266  1.00  0.00    -0.362 N 
HETATM   18  H11 UNK     1      20.684   1.917  30.506  1.00  0.00     0.162 HD
BRANCH  17  19
HETATM   19  C9  UNK     1      18.767   2.429  29.784  1.00  0.00     0.168 C 
BRANCH  19  20
HETATM   20  C12 UNK     1      18.629   3.573  30.742  1.00  0.00     0.000 A 
HETATM   21  S1  UNK     1      19.214   5.106  30.284  1.00  0.00    -0.105 SA
HETATM   22  C16 UNK     1      18.723   5.781  31.779  1.00  0.00     0.050 A 
HETATM   23  C15 UNK     1      18.130   4.847  32.598  1.00  0.00     0.008 A 
HETATM   24  C14 UNK     1      18.076   3.559  31.990  1.00  0.00     0.017 A 
ENDBRANCH  19  20
ENDBRANCH  17  19
ENDBRANCH  15  17
ENDBRANCH  13  15
ENDBRANCH   6  13
TORSDOF 5
ENDMDL
MODEL 3
REMARK VINA RESULT:      -8.1      9.100     13.273
REMARK  5 active torsions:
REMARK  status: ('A' for Active; 'I' for Inactive)
REMARK    1  A    between atoms: C13_19  and  N1_5 
REMARK    2  A    between atoms: C4_10  and  N1_5 
REMARK    3  A    between atoms: C13_19  and  N2_6 
REMARK    4  A    between atoms: C9_15  and  N2_6 
REMARK    5  A    between atoms: C12_18  and  C9_15 
ROOT
HETATM    1  O1  UNK     1      16.444   6.780  33.143  1.00  0.00    -0.275 OA
HETATM    2  O2  UNK     1      15.166   8.152  34.452  1.00  0.00    -0.260 OA
HETATM    3  C1  UNK     1      18.866   7.090  33.095  1.00  0.00     0.004 A 
HETATM    4  C2  UNK     1      17.721   6.413  32.673  1.00  0.00     0.092 A 
HETATM    5  C3  UNK     1      18.718   8.201  34.045  1.00  0.00    -0.043 A 
HETATM    6  C4  UNK     1      19.006   4.938  31.277  1.00  0.00     0.036 A 
HETATM    7  C5  UNK     1      17.773   5.346  31.775  1.00  0.00     0.067 A 
HETATM    8  C6  UNK     1      20.098   6.663  32.583  1.00  0.00     0.017 A 
HETATM    9  C7  UNK     1      20.167   5.595  31.680  1.00  0.00     0.030 A 
HETATM   10  C8  UNK     1      17.491   8.528  34.473  1.00  0.00     0.090 A 
HETATM   11  C10 UNK     1      19.930   8.949  34.517  1.00  0.00     0.049 C 
HETATM   12  C11 UNK     1      16.272   7.824  34.038  1.00  0.00     0.288 A 
ENDROOT
BRANCH   6  13
HETATM   13  N1  UNK     1      19.081   3.874  30.379  1.00  0.00    -0.333 N 
HETATM   14  H5  UNK     1      19.909   3.930  29.793  1.00  0.00     0.168 HD
BRANCH  13  15
HETATM   15  C13 UNK     1      18.405   2.643  30.302  1.00  0.00     0.172 C 
HETATM   16  S2  UNK     1      18.028   1.761  28.922  1.00  0.00    -0.041 SA
BRANCH  15  17
HETATM   17  N2  UNK     1      18.045   2.084  31.522  1.00  0.00    -0.362 N 
HETATM   18  H11 UNK     1      17.226   2.479  31.973  1.00  0.00     0.162 HD
BRANCH  17  19
HETATM   19  C9  UNK     1      18.712   1.000  32.218  1.00  0.00     0.168 C 
BRANCH  19  20
HETATM   20  C12 UNK     1      18.396   1.075  33.681  1.00  0.00     0.000 A 
HETATM   21  S1  UNK     1      18.139  -0.371  34.543  1.00  0.00    -0.105 SA
HETATM   22  C16 UNK     1      17.862   0.499  35.992  1.00  0.00     0.050 A 
HETATM   23  C15 UNK     1      17.966   1.859  35.806  1.00  0.00     0.008 A 
HETATM   24  C14 UNK     1      18.278   2.193  34.457  1.00  0.00     0.017 A 
ENDBRANCH  19  20
ENDBRANCH  17  19
ENDBRANCH  15  17
ENDBRANCH  13  15
ENDBRANCH   6  13
TORSDOF 5
ENDMDL
MODEL 4
REMARK VINA RESULT:      -8.1      9.265     14.000
REMARK  5 active torsions:
REMARK  status: ('A' for Active; 'I' for Inactive)
REMARK    1  A    between atoms: C13_19  and  N1_5 
REMARK    2  A    between atoms: C4_10  and  N1_5 
REMARK    3  A    between atoms: C13_19  and  N2_6 
REMARK    4  A    between atoms: C9_15  and  N2_6 
REMARK    5  A    between atoms: C12_18  and  C9_15 
ROOT
HETATM    1  O1  UNK     1      16.445   8.214  33.161  1.00  0.00    -0.275 OA
HETATM    2  O2  UNK     1      15.729  10.365  33.460  1.00  0.00    -0.260 OA
HETATM    3  C1  UNK     1      18.769   7.648  33.654  1.00  0.00     0.004 A 
HETATM    4  C2  UNK     1      17.493   7.275  33.227  1.00  0.00     0.092 A 
HETATM    5  C3  UNK     1      19.002   9.048  34.037  1.00  0.00    -0.043 A 
HETATM    6  C4  UNK     1      18.182   4.997  32.892  1.00  0.00     0.036 A 
HETATM    7  C5  UNK     1      17.187   5.968  32.847  1.00  0.00     0.067 A 
HETATM    8  C6  UNK     1      19.757   6.656  33.694  1.00  0.00     0.017 A 
HETATM    9  C7  UNK     1      19.465   5.340  33.315  1.00  0.00     0.030 A 
HETATM   10  C8  UNK     1      17.986   9.918  33.963  1.00  0.00     0.090 A 
HETATM   11  C10 UNK     1      20.362   9.480  34.501  1.00  0.00     0.049 C 
HETATM   12  C11 UNK     1      16.634   9.541  33.514  1.00  0.00     0.288 A 
ENDROOT
BRANCH   6  13
HETATM   13  N1  UNK     1      17.897   3.684  32.517  1.00  0.00    -0.333 N 
HETATM   14  H5  UNK     1      17.610   3.622  31.545  1.00  0.00     0.168 HD
BRANCH  13  15
HETATM   15  C13 UNK     1      18.172   2.442  33.116  1.00  0.00     0.172 C 
HETATM   16  S2  UNK     1      18.269   2.089  34.756  1.00  0.00    -0.041 SA
BRANCH  15  17
HETATM   17  N2  UNK     1      18.344   1.381  32.234  1.00  0.00    -0.362 N 
HETATM   18  H11 UNK     1      17.984   1.514  31.295  1.00  0.00     0.162 HD
BRANCH  17  19
HETATM   19  C9  UNK     1      18.984   0.109  32.512  1.00  0.00     0.168 C 
BRANCH  19  20
HETATM   20  C12 UNK     1      19.542  -0.459  31.243  1.00  0.00     0.000 A 
HETATM   21  S1  UNK     1      19.662   0.546  29.873  1.00  0.00    -0.105 SA
HETATM   22  C16 UNK     1      20.325  -0.732  28.947  1.00  0.00     0.050 A 
HETATM   23  C15 UNK     1      20.445  -1.893  29.679  1.00  0.00     0.008 A 
HETATM   24  C14 UNK     1      19.987  -1.731  31.018  1.00  0.00     0.017 A 
ENDBRANCH  19  20
ENDBRANCH  17  19
ENDBRANCH  15  17
ENDBRANCH  13  15
ENDBRANCH   6  13
TORSDOF 5
ENDMDL
MODEL 5
REMARK VINA RESULT:      -8.0      6.289      8.169
REMARK  5 active torsions:
REMARK  status: ('A' for Active; 'I' for Inactive)
REMARK    1  A    between atoms: C13_19  and  N1_5 
REMARK    2  A    between atoms: C4_10  and  N1_5 
REMARK    3  A    between atoms: C13_19  and  N2_6 
REMARK    4  A    between atoms: C9_15  and  N2_6 
REMARK    5  A    between atoms: C12_18  and  C9_15 
ROOT
HETATM    1  O1  UNK     1      17.655   0.600  35.873  1.00  0.00    -0.275 OA
HETATM    2  O2  UNK     1      17.157   1.009  38.067  1.00  0.00    -0.260 OA
HETATM    3  C1  UNK     1      18.996  -1.358  35.296  1.00  0.00     0.004 A 
HETATM    4  C2  UNK     1      18.289  -0.217  34.916  1.00  0.00     0.092 A 
HETATM    5  C3  UNK     1      19.068  -1.698  36.725  1.00  0.00    -0.043 A 
HETATM    6  C4  UNK     1      18.776  -0.590  32.592  1.00  0.00     0.036 A 
HETATM    7  C5  UNK     1      18.171   0.177  33.582  1.00  0.00     0.067 A 
HETATM    8  C6  UNK     1      19.598  -2.118  34.285  1.00  0.00     0.017 A 
HETATM    9  C7  UNK     1      19.489  -1.736  32.943  1.00  0.00     0.030 A 
HETATM   10  C8  UNK     1      18.455  -0.903  37.612  1.00  0.00     0.090 A 
HETATM   11  C10 UNK     1      19.820  -2.919  37.166  1.00  0.00     0.049 C 
HETATM   12  C11 UNK     1      17.706   0.305  37.227  1.00  0.00     0.288 A 
ENDROOT
BRANCH   6  13
HETATM   13  N1  UNK     1      18.670  -0.215  31.253  1.00  0.00    -0.333 N 
HETATM   14  H5  UNK     1      17.710  -0.018  30.989  1.00  0.00     0.168 HD
BRANCH  13  15
HETATM   15  C13 UNK     1      19.622   0.187  30.298  1.00  0.00     0.172 C 
HETATM   16  S2  UNK     1      20.578  -0.792  29.324  1.00  0.00    -0.041 SA
BRANCH  15  17
HETATM   17  N2  UNK     1      19.749   1.560  30.126  1.00  0.00    -0.362 N 
HETATM   18  H11 UNK     1      20.668   1.953  30.304  1.00  0.00     0.162 HD
BRANCH  17  19
HETATM   19  C9  UNK     1      18.712   2.490  29.721  1.00  0.00     0.168 C 
BRANCH  19  20
HETATM   20  C12 UNK     1      18.624   3.608  30.715  1.00  0.00     0.000 A 
HETATM   21  S1  UNK     1      19.213   5.145  30.280  1.00  0.00    -0.105 SA
HETATM   22  C16 UNK     1      18.786   5.783  31.810  1.00  0.00     0.050 A 
HETATM   23  C15 UNK     1      18.210   4.833  32.624  1.00  0.00     0.008 A 
HETATM   24  C14 UNK     1      18.117   3.565  31.982  1.00  0.00     0.017 A 
ENDBRANCH  19  20
ENDBRANCH  17  19
ENDBRANCH  15  17
ENDBRANCH  13  15
ENDBRANCH   6  13
TORSDOF 5
ENDMDL
MODEL 6
REMARK VINA RESULT:      -8.0      7.527     11.011
REMARK  5 active torsions:
REMARK  status: ('A' for Active; 'I' for Inactive)
REMARK    1  A    between atoms: C13_19  and  N1_5 
REMARK    2  A    between atoms: C4_10  and  N1_5 
REMARK    3  A    between atoms: C13_19  and  N2_6 
REMARK    4  A    between atoms: C9_15  and  N2_6 
REMARK    5  A    between atoms: C12_18  and  C9_15 
ROOT
HETATM    1  O1  UNK     1      17.977   3.870  33.266  1.00  0.00    -0.275 OA
HETATM    2  O2  UNK     1      17.631   5.897  34.266  1.00  0.00    -0.260 OA
HETATM    3  C1  UNK     1      18.674   3.794  30.926  1.00  0.00     0.004 A 
HETATM    4  C2  UNK     1      18.336   3.143  32.114  1.00  0.00     0.092 A 
HETATM    5  C3  UNK     1      18.648   5.263  30.897  1.00  0.00    -0.043 A 
HETATM    6  C4  UNK     1      18.683   0.981  31.122  1.00  0.00     0.036 A 
HETATM    7  C5  UNK     1      18.336   1.752  32.227  1.00  0.00     0.067 A 
HETATM    8  C6  UNK     1      19.021   3.000  29.826  1.00  0.00     0.017 A 
HETATM    9  C7  UNK     1      19.025   1.604  29.924  1.00  0.00     0.030 A 
HETATM   10  C8  UNK     1      18.301   5.928  32.008  1.00  0.00     0.090 A 
HETATM   11  C10 UNK     1      19.005   5.993  29.636  1.00  0.00     0.049 C 
HETATM   12  C11 UNK     1      17.943   5.256  33.269  1.00  0.00     0.288 A 
ENDROOT
BRANCH   6  13
HETATM   13  N1  UNK     1      18.690  -0.411  31.214  1.00  0.00    -0.333 N 
HETATM   14  H5  UNK     1      18.404  -0.849  30.344  1.00  0.00     0.168 HD
BRANCH  13  15
HETATM   15  C13 UNK     1      19.247  -1.301  32.150  1.00  0.00     0.172 C 
HETATM   16  S2  UNK     1      20.716  -2.110  32.052  1.00  0.00    -0.041 SA
BRANCH  15  17
HETATM   17  N2  UNK     1      18.499  -1.495  33.305  1.00  0.00    -0.362 N 
HETATM   18  H11 UNK     1      17.602  -1.957  33.188  1.00  0.00     0.162 HD
BRANCH  17  19
HETATM   19  C9  UNK     1      18.860  -1.110  34.657  1.00  0.00     0.168 C 
BRANCH  19  20
HETATM   20  C12 UNK     1      17.687  -0.456  35.321  1.00  0.00     0.000 A 
HETATM   21  S1  UNK     1      17.903   0.265  36.849  1.00  0.00    -0.105 SA
HETATM   22  C16 UNK     1      16.257   0.734  36.901  1.00  0.00     0.050 A 
HETATM   23  C15 UNK     1      15.571   0.342  35.773  1.00  0.00     0.008 A 
HETATM   24  C14 UNK     1      16.408  -0.353  34.853  1.00  0.00     0.017 A 
ENDBRANCH  19  20
ENDBRANCH  17  19
ENDBRANCH  15  17
ENDBRANCH  13  15
ENDBRANCH   6  13
TORSDOF 5
ENDMDL
MODEL 7
REMARK VINA RESULT:      -8.0      8.029     10.294
REMARK  5 active torsions:
REMARK  status: ('A' for Active; 'I' for Inactive)
REMARK    1  A    between atoms: C13_19  and  N1_5 
REMARK    2  A    between atoms: C4_10  and  N1_5 
REMARK    3  A    between atoms: C13_19  and  N2_6 
REMARK    4  A    between atoms: C9_15  and  N2_6 
REMARK    5  A    between atoms: C12_18  and  C9_15 
ROOT
HETATM    1  O1  UNK     1      19.326  -0.363  32.760  1.00  0.00    -0.275 OA
HETATM    2  O2  UNK     1      20.145  -2.457  33.180  1.00  0.00    -0.260 OA
HETATM    3  C1  UNK     1      19.354   0.494  30.473  1.00  0.00     0.004 A 
HETATM    4  C2  UNK     1      19.053   0.656  31.826  1.00  0.00     0.092 A 
HETATM    5  C3  UNK     1      19.966  -0.769  30.034  1.00  0.00    -0.043 A 
HETATM    6  C4  UNK     1      18.178   2.863  31.451  1.00  0.00     0.036 A 
HETATM    7  C5  UNK     1      18.471   1.822  32.326  1.00  0.00     0.067 A 
HETATM    8  C6  UNK     1      19.051   1.553  29.608  1.00  0.00     0.017 A 
HETATM    9  C7  UNK     1      18.468   2.729  30.094  1.00  0.00     0.030 A 
HETATM   10  C8  UNK     1      20.215  -1.720  30.945  1.00  0.00     0.090 A 
HETATM   11  C10 UNK     1      20.302  -0.974  28.586  1.00  0.00     0.049 C 
HETATM   12  C11 UNK     1      19.903  -1.564  32.376  1.00  0.00     0.288 A 
ENDROOT
BRANCH   6  13
HETATM   13  N1  UNK     1      17.596   4.036  31.929  1.00  0.00    -0.333 N 
HETATM   14  H5  UNK     1      16.829   3.847  32.567  1.00  0.00     0.168 HD
BRANCH  13  15
HETATM   15  C13 UNK     1      18.012   5.380  31.915  1.00  0.00     0.172 C 
HETATM   16  S2  UNK     1      19.330   6.040  31.109  1.00  0.00    -0.041 SA
BRANCH  15  17
HETATM   17  N2  UNK     1      17.205   6.260  32.626  1.00  0.00    -0.362 N 
HETATM   18  H11 UNK     1      16.443   6.689  32.110  1.00  0.00     0.162 HD
BRANCH  17  19
HETATM   19  C9  UNK     1      17.335   6.632  34.023  1.00  0.00     0.168 C 
BRANCH  19  20
HETATM   20  C12 UNK     1      18.201   7.849  34.139  1.00  0.00     0.000 A 
HETATM   21  S1  UNK     1      17.537   9.372  33.765  1.00  0.00    -0.105 SA
HETATM   22  C16 UNK     1      19.023  10.147  34.115  1.00  0.00     0.050 A 
HETATM   23  C15 UNK     1      19.994   9.252  34.506  1.00  0.00     0.008 A 
HETATM   24  C14 UNK     1      19.512   7.912  34.519  1.00  0.00     0.017 A 
ENDBRANCH  19  20
ENDBRANCH  17  19
ENDBRANCH  15  17
ENDBRANCH  13  15
ENDBRANCH   6  13
TORSDOF 5
ENDMDL
MODEL 8
REMARK VINA RESULT:      -8.0      9.046     13.577
REMARK  5 active torsions:
REMARK  status: ('A' for Active; 'I' for Inactive)
REMARK    1  A    between atoms: C13_19  and  N1_5 
REMARK    2  A    between atoms: C4_10  and  N1_5 
REMARK    3  A    between atoms: C13_19  and  N2_6 
REMARK    4  A    between atoms: C9_15  and  N2_6 
REMARK    5  A    between atoms: C12_18  and  C9_15 
ROOT
HETATM    1  O1  UNK     1      16.604   6.487  33.206  1.00  0.00    -0.275 OA
HETATM    2  O2  UNK     1      15.399   7.584  34.811  1.00  0.00    -0.260 OA
HETATM    3  C1  UNK     1      18.999   6.920  33.004  1.00  0.00     0.004 A 
HETATM    4  C2  UNK     1      17.846   6.257  32.582  1.00  0.00     0.092 A 
HETATM    5  C3  UNK     1      18.896   7.869  34.122  1.00  0.00    -0.043 A 
HETATM    6  C4  UNK     1      19.054   5.072  30.875  1.00  0.00     0.036 A 
HETATM    7  C5  UNK     1      17.856   5.340  31.530  1.00  0.00     0.067 A 
HETATM    8  C6  UNK     1      20.195   6.636  32.333  1.00  0.00     0.017 A 
HETATM    9  C7  UNK     1      20.221   5.719  31.276  1.00  0.00     0.030 A 
HETATM   10  C8  UNK     1      17.701   8.068  34.695  1.00  0.00     0.090 A 
HETATM   11  C10 UNK     1      20.117   8.598  34.600  1.00  0.00     0.049 C 
HETATM   12  C11 UNK     1      16.475   7.377  34.261  1.00  0.00     0.288 A 
ENDROOT
BRANCH   6  13
HETATM   13  N1  UNK     1      19.087   4.158  29.822  1.00  0.00    -0.333 N 
HETATM   14  H5  UNK     1      19.532   4.547  28.996  1.00  0.00     0.168 HD
BRANCH  13  15
HETATM   15  C13 UNK     1      18.873   2.770  29.759  1.00  0.00     0.172 C 
HETATM   16  S2  UNK     1      17.911   1.925  28.670  1.00  0.00    -0.041 SA
BRANCH  15  17
HETATM   17  N2  UNK     1      19.576   2.016  30.690  1.00  0.00    -0.362 N 
HETATM   18  H11 UNK     1      20.539   2.292  30.858  1.00  0.00     0.162 HD
BRANCH  17  19
HETATM   19  C9  UNK     1      19.084   0.881  31.448  1.00  0.00     0.168 C 
BRANCH  19  20
HETATM   20  C12 UNK     1      19.764  -0.368  30.978  1.00  0.00     0.000 A 
HETATM   21  S1  UNK     1      19.750  -1.743  31.984  1.00  0.00    -0.105 SA
HETATM   22  C16 UNK     1      20.646  -2.640  30.834  1.00  0.00     0.050 A 
HETATM   23  C15 UNK     1      20.943  -1.895  29.714  1.00  0.00     0.008 A 
HETATM   24  C14 UNK     1      20.427  -0.569  29.801  1.00  0.00     0.017 A 
ENDBRANCH  19  20
ENDBRANCH  17  19
ENDBRANCH  15  17
ENDBRANCH  13  15
ENDBRANCH   6  13
TORSDOF 5
ENDMDL
MODEL 9
REMARK VINA RESULT:      -7.9      8.029     10.439
REMARK  5 active torsions:
REMARK  status: ('A' for Active; 'I' for Inactive)
REMARK    1  A    between atoms: C13_19  and  N1_5 
REMARK    2  A    between atoms: C4_10  and  N1_5 
REMARK    3  A    between atoms: C13_19  and  N2_6 
REMARK    4  A    between atoms: C9_15  and  N2_6 
REMARK    5  A    between atoms: C12_18  and  C9_15 
ROOT
HETATM    1  O1  UNK     1      19.200  -0.036  32.795  1.00  0.00    -0.275 OA
HETATM    2  O2  UNK     1      19.933  -2.138  33.319  1.00  0.00    -0.260 OA
HETATM    3  C1  UNK     1      19.317   0.728  30.478  1.00  0.00     0.004 A 
HETATM    4  C2  UNK     1      18.988   0.954  31.815  1.00  0.00     0.092 A 
HETATM    5  C3  UNK     1      19.894  -0.572  30.105  1.00  0.00    -0.043 A 
HETATM    6  C4  UNK     1      18.201   3.173  31.331  1.00  0.00     0.036 A 
HETATM    7  C5  UNK     1      18.435   2.158  32.253  1.00  0.00     0.067 A 
HETATM    8  C6  UNK     1      19.074   1.762  29.565  1.00  0.00     0.017 A 
HETATM    9  C7  UNK     1      18.521   2.975  29.989  1.00  0.00     0.030 A 
HETATM   10  C8  UNK     1      20.086  -1.494  31.058  1.00  0.00     0.090 A 
HETATM   11  C10 UNK     1      20.260  -0.846  28.676  1.00  0.00     0.049 C 
HETATM   12  C11 UNK     1      19.744  -1.270  32.474  1.00  0.00     0.288 A 
ENDROOT
BRANCH   6  13
HETATM   13  N1  UNK     1      17.649   4.384  31.748  1.00  0.00    -0.333 N 
HETATM   14  H5  UNK     1      16.635   4.351  31.769  1.00  0.00     0.168 HD
BRANCH  13  15
HETATM   15  C13 UNK     1      18.200   5.516  32.376  1.00  0.00     0.172 C 
HETATM   16  S2  UNK     1      18.843   5.622  33.925  1.00  0.00    -0.041 SA
BRANCH  15  17
HETATM   17  N2  UNK     1      18.245   6.666  31.598  1.00  0.00    -0.362 N 
HETATM   18  H11 UNK     1      19.165   7.058  31.426  1.00  0.00     0.162 HD
BRANCH  17  19
HETATM   19  C9  UNK     1      17.120   7.365  31.005  1.00  0.00     0.168 C 
BRANCH  19  20
HETATM   20  C12 UNK     1      16.074   7.609  32.050  1.00  0.00     0.000 A 
HETATM   21  S1  UNK     1      16.402   8.717  33.301  1.00  0.00    -0.105 SA
HETATM   22  C16 UNK     1      14.863   8.442  33.999  1.00  0.00     0.050 A 
HETATM   23  C15 UNK     1      14.127   7.523  33.283  1.00  0.00     0.008 A 
HETATM   24  C14 UNK     1      14.837   7.038  32.147  1.00  0.00     0.017 A 
ENDBRANCH  19  20
ENDBRANCH  17  19
ENDBRANCH  15  17
ENDBRANCH  13  15
ENDBRANCH   6  13
TORSDOF 5
ENDMDL
MODEL 10
REMARK VINA RESULT:      -7.9      1.517      2.180
REMARK  5 active torsions:
REMARK  status: ('A' for Active; 'I' for Inactive)
REMARK    1  A    between atoms: C13_19  and  N1_5 
REMARK    2  A    between atoms: C4_10  and  N1_5 
REMARK    3  A    between atoms: C13_19  and  N2_6 
REMARK    4  A    between atoms: C9_15  and  N2_6 
REMARK    5  A    between atoms: C12_18  and  C9_15 
ROOT
HETATM    1  O1  UNK     1      21.594  -9.155  35.195  1.00  0.00    -0.275 OA
HETATM    2  O2  UNK     1      22.656 -11.164  34.941  1.00  0.00    -0.260 OA
HETATM    3  C1  UNK     1      19.929  -8.898  36.963  1.00  0.00     0.004 A 
HETATM    4  C2  UNK     1      20.653  -8.372  35.892  1.00  0.00     0.092 A 
HETATM    5  C3  UNK     1      20.168 -10.294  37.356  1.00  0.00    -0.043 A 
HETATM    6  C4  UNK     1      19.573  -6.235  36.105  1.00  0.00     0.036 A 
HETATM    7  C5  UNK     1      20.488  -7.057  35.455  1.00  0.00     0.067 A 
HETATM    8  C6  UNK     1      19.013  -8.055  37.605  1.00  0.00     0.017 A 
HETATM    9  C7  UNK     1      18.837  -6.734  37.178  1.00  0.00     0.030 A 
HETATM   10  C8  UNK     1      21.069 -11.014  36.674  1.00  0.00     0.090 A 
HETATM   11  C10 UNK     1      19.406 -10.889  38.504  1.00  0.00     0.049 C 
HETATM   12  C11 UNK     1      21.840 -10.474  35.541  1.00  0.00     0.288 A 
ENDROOT
BRANCH   6  13
HETATM   13  N1  UNK     1      19.393  -4.918  35.685  1.00  0.00    -0.333 N 
HETATM   14  H5  UNK     1      18.885  -4.865  34.807  1.00  0.00     0.168 HD
BRANCH  13  15
HETATM   15  C13 UNK     1      19.535  -3.681  36.341  1.00  0.00     0.172 C 
HETATM   16  S2  UNK     1      20.601  -3.291  37.579  1.00  0.00    -0.041 SA
BRANCH  15  17
HETATM   17  N2  UNK     1      18.716  -2.661  35.872  1.00  0.00    -0.362 N 
HETATM   18  H11 UNK     1      17.717  -2.844  35.887  1.00  0.00     0.162 HD
BRANCH  17  19
HETATM   19  C9  UNK     1      19.132  -1.367  35.367  1.00  0.00     0.168 C 
BRANCH  19  20
HETATM   20  C12 UNK     1      18.557  -0.284  36.228  1.00  0.00     0.000 A 
HETATM   21  S1  UNK     1      18.699   1.335  35.721  1.00  0.00    -0.105 SA
HETATM   22  C16 UNK     1      17.872   1.884  37.117  1.00  0.00     0.050 A 
HETATM   23  C15 UNK     1      17.503   0.845  37.941  1.00  0.00     0.008 A 
HETATM   24  C14 UNK     1      17.904  -0.420  37.420  1.00  0.00     0.017 A 
ENDBRANCH  19  20
ENDBRANCH  17  19
ENDBRANCH  15  17
ENDBRANCH  13  15
ENDBRANCH   6  13
TORSDOF 5
ENDMDL
