MODEL 1
REMARK VINA RESULT:      -9.9      0.000      0.000
REMARK  2 active torsions:
REMARK  status: ('A' for Active; 'I' for Inactive)
REMARK    1  A    between atoms: C1_5  and  N1_4 
REMARK       I    between atoms: C10_14  and  N1_4 
REMARK    2  A    between atoms: C10_14  and  C5_9 
ROOT
HETATM    1  O2  UNK     1      21.350  -4.594  37.018  1.00  0.00    -0.267 OA
HETATM    2  N1  UNK     1      19.077  -5.227  37.059  1.00  0.00    -0.322 N 
HETATM    3  C10 UNK     1      20.150  -4.368  36.869  1.00  0.00     0.262 C 
HETATM    4  H2  UNK     1      18.140  -4.863  36.910  1.00  0.00     0.169 HD
ENDROOT
BRANCH   3   5
HETATM    5  C5  UNK     1      19.715  -3.035  36.436  1.00  0.00     0.108 A 
HETATM    6  C13 UNK     1      20.039  -2.501  35.094  1.00  0.00     0.304 A 
HETATM    7  O1  UNK     1      19.570  -1.224  34.799  1.00  0.00    -0.274 OA
HETATM    8  O3  UNK     1      20.687  -3.147  34.278  1.00  0.00    -0.259 OA
HETATM    9  C9  UNK     1      18.824  -0.474  35.729  1.00  0.00     0.089 A 
HETATM   10  C16 UNK     1      18.397   0.796  35.343  1.00  0.00     0.038 A 
HETATM   11  C3  UNK     1      18.531  -0.994  36.985  1.00  0.00    -0.001 A 
HETATM   12  C18 UNK     1      17.657   1.562  36.241  1.00  0.00     0.003 A 
HETATM   13  C17 UNK     1      17.353   1.056  37.506  1.00  0.00     0.001 A 
HETATM   14  C14 UNK     1      17.787  -0.219  37.879  1.00  0.00     0.014 A 
HETATM   15  C8  UNK     1      19.006  -2.326  37.323  1.00  0.00     0.037 A 
ENDBRANCH   3   5
BRANCH   2  16
HETATM   16  C1  UNK     1      19.152  -6.562  37.469  1.00  0.00     0.041 A 
HETATM   17  C2  UNK     1      18.700  -7.589  36.642  1.00  0.00    -0.035 A 
HETATM   18  C12 UNK     1      18.124  -7.300  35.293  1.00  0.00     0.050 C 
HETATM   19  C6  UNK     1      18.782  -8.914  37.069  1.00  0.00     0.015 A 
HETATM   20  C4  UNK     1      19.316  -9.211  38.324  1.00  0.00    -0.061 A 
HETATM   21  C11 UNK     1      19.767  -8.182  39.150  1.00  0.00     0.009 A 
HETATM   22  C15 UNK     1      19.404 -10.628  38.780  1.00  0.00     0.048 C 
HETATM   23  C7  UNK     1      19.685  -6.857  38.723  1.00  0.00     0.030 A 
ENDBRANCH   2  16
TORSDOF 2
ENDMDL
MODEL 2
REMARK VINA RESULT:      -9.8      7.906     12.025
REMARK  2 active torsions:
REMARK  status: ('A' for Active; 'I' for Inactive)
REMARK    1  A    between atoms: C1_5  and  N1_4 
REMARK       I    between atoms: C10_14  and  N1_4 
REMARK    2  A    between atoms: C10_14  and  C5_9 
ROOT
HETATM    1  O2  UNK     1      17.610   3.402  32.876  1.00  0.00    -0.267 OA
HETATM    2  N1  UNK     1      18.717   4.895  31.422  1.00  0.00    -0.322 N 
HETATM    3  C10 UNK     1      18.271   3.660  31.871  1.00  0.00     0.262 C 
HETATM    4  H2  UNK     1      19.276   4.923  30.574  1.00  0.00     0.169 HD
ENDROOT
BRANCH   3   5
HETATM    5  C5  UNK     1      18.682   2.571  30.977  1.00  0.00     0.108 A 
HETATM    6  C13 UNK     1      18.631   2.703  29.504  1.00  0.00     0.304 A 
HETATM    7  O1  UNK     1      19.048   1.600  28.763  1.00  0.00    -0.274 OA
HETATM    8  O3  UNK     1      18.243   3.730  28.958  1.00  0.00    -0.259 OA
HETATM    9  C9  UNK     1      19.495   0.417  29.380  1.00  0.00     0.089 A 
HETATM   10  C16 UNK     1      19.893  -0.634  28.555  1.00  0.00     0.038 A 
HETATM   11  C3  UNK     1      19.535   0.313  30.766  1.00  0.00    -0.001 A 
HETATM   12  C18 UNK     1      20.340  -1.818  29.136  1.00  0.00     0.003 A 
HETATM   13  C17 UNK     1      20.387  -1.940  30.526  1.00  0.00     0.001 A 
HETATM   14  C14 UNK     1      19.986  -0.878  31.341  1.00  0.00     0.014 A 
HETATM   15  C8  UNK     1      19.107   1.448  31.569  1.00  0.00     0.037 A 
ENDBRANCH   3   5
BRANCH   2  16
HETATM   16  C1  UNK     1      18.495   6.128  32.043  1.00  0.00     0.041 A 
HETATM   17  C2  UNK     1      19.508   6.757  32.765  1.00  0.00    -0.035 A 
HETATM   18  C12 UNK     1      20.862   6.138  32.898  1.00  0.00     0.050 C 
HETATM   19  C6  UNK     1      19.266   7.986  33.378  1.00  0.00     0.015 A 
HETATM   20  C4  UNK     1      18.011   8.585  33.269  1.00  0.00    -0.061 A 
HETATM   21  C11 UNK     1      16.999   7.955  32.547  1.00  0.00     0.009 A 
HETATM   22  C15 UNK     1      17.753   9.900  33.924  1.00  0.00     0.048 C 
HETATM   23  C7  UNK     1      17.240   6.726  31.934  1.00  0.00     0.030 A 
ENDBRANCH   2  16
TORSDOF 2
ENDMDL
MODEL 3
REMARK VINA RESULT:      -9.3     19.452     21.956
REMARK  2 active torsions:
REMARK  status: ('A' for Active; 'I' for Inactive)
REMARK    1  A    between atoms: C1_5  and  N1_4 
REMARK       I    between atoms: C10_14  and  N1_4 
REMARK    2  A    between atoms: C10_14  and  C5_9 
ROOT
HETATM    1  O2  UNK     1      17.132  -1.717  17.087  1.00  0.00    -0.267 OA
HETATM    2  N1  UNK     1      19.241  -0.665  16.945  1.00  0.00    -0.322 N 
HETATM    3  C10 UNK     1      18.208  -1.496  16.532  1.00  0.00     0.262 C 
HETATM    4  H2  UNK     1      20.077  -0.618  16.371  1.00  0.00     0.169 HD
ENDROOT
BRANCH   3   5
HETATM    5  C5  UNK     1      18.517  -2.162  15.262  1.00  0.00     0.108 A 
HETATM    6  C13 UNK     1      19.119  -1.437  14.121  1.00  0.00     0.304 A 
HETATM    7  O1  UNK     1      19.366  -2.179  12.969  1.00  0.00    -0.274 OA
HETATM    8  O3  UNK     1      19.391  -0.243  14.182  1.00  0.00    -0.259 OA
HETATM    9  C9  UNK     1      19.058  -3.551  12.888  1.00  0.00     0.089 A 
HETATM   10  C16 UNK     1      19.341  -4.209  11.693  1.00  0.00     0.038 A 
HETATM   11  C3  UNK     1      18.491  -4.213  13.972  1.00  0.00    -0.001 A 
HETATM   12  C18 UNK     1      19.048  -5.566  11.583  1.00  0.00     0.003 A 
HETATM   13  C17 UNK     1      18.480  -6.248  12.660  1.00  0.00     0.001 A 
HETATM   14  C14 UNK     1      18.201  -5.575  13.854  1.00  0.00     0.014 A 
HETATM   15  C8  UNK     1      18.223  -3.466  15.191  1.00  0.00     0.037 A 
ENDBRANCH   3   5
BRANCH   2  16
HETATM   16  C1  UNK     1      19.260   0.110  18.109  1.00  0.00     0.041 A 
HETATM   17  C2  UNK     1      19.218   1.502  18.041  1.00  0.00    -0.035 A 
HETATM   18  C12 UNK     1      19.149   2.210  16.727  1.00  0.00     0.050 C 
HETATM   19  C6  UNK     1      19.239   2.257  19.213  1.00  0.00     0.015 A 
HETATM   20  C4  UNK     1      19.302   1.620  20.453  1.00  0.00    -0.061 A 
HETATM   21  C11 UNK     1      19.345   0.228  20.519  1.00  0.00     0.009 A 
HETATM   22  C15 UNK     1      19.325   2.428  21.706  1.00  0.00     0.048 C 
HETATM   23  C7  UNK     1      19.324  -0.528  19.347  1.00  0.00     0.030 A 
ENDBRANCH   2  16
TORSDOF 2
ENDMDL
MODEL 4
REMARK VINA RESULT:      -9.3      1.494      7.468
REMARK  2 active torsions:
REMARK  status: ('A' for Active; 'I' for Inactive)
REMARK    1  A    between atoms: C1_5  and  N1_4 
REMARK       I    between atoms: C10_14  and  N1_4 
REMARK    2  A    between atoms: C10_14  and  C5_9 
ROOT
HETATM    1  O2  UNK     1      21.075  -3.707  37.677  1.00  0.00    -0.267 OA
HETATM    2  N1  UNK     1      18.958  -3.648  36.634  1.00  0.00    -0.322 N 
HETATM    3  C10 UNK     1      20.097  -4.244  37.158  1.00  0.00     0.262 C 
HETATM    4  H2  UNK     1      18.251  -4.248  36.219  1.00  0.00     0.169 HD
ENDROOT
BRANCH   3   5
HETATM    5  C5  UNK     1      20.054  -5.706  37.038  1.00  0.00     0.108 A 
HETATM    6  C13 UNK     1      20.133  -6.389  35.727  1.00  0.00     0.304 A 
HETATM    7  O1  UNK     1      20.081  -7.780  35.743  1.00  0.00    -0.274 OA
HETATM    8  O3  UNK     1      20.240  -5.766  34.676  1.00  0.00    -0.259 OA
HETATM    9  C9  UNK     1      19.959  -8.505  36.944  1.00  0.00     0.089 A 
HETATM   10  C16 UNK     1      19.916  -9.896  36.859  1.00  0.00     0.038 A 
HETATM   11  C3  UNK     1      19.886  -7.844  38.165  1.00  0.00    -0.001 A 
HETATM   12  C18 UNK     1      19.796 -10.641  38.029  1.00  0.00     0.003 A 
HETATM   13  C17 UNK     1      19.721  -9.994  39.265  1.00  0.00     0.001 A 
HETATM   14  C14 UNK     1      19.766  -8.599  39.334  1.00  0.00     0.014 A 
HETATM   15  C8  UNK     1      19.938  -6.391  38.182  1.00  0.00     0.037 A 
ENDBRANCH   3   5
BRANCH   2  16
HETATM   16  C1  UNK     1      18.690  -2.276  36.594  1.00  0.00     0.041 A 
HETATM   17  C2  UNK     1      19.098  -1.500  35.511  1.00  0.00    -0.035 A 
HETATM   18  C12 UNK     1      19.832  -2.105  34.358  1.00  0.00     0.050 C 
HETATM   19  C6  UNK     1      18.822  -0.133  35.490  1.00  0.00     0.015 A 
HETATM   20  C4  UNK     1      18.138   0.457  36.553  1.00  0.00    -0.061 A 
HETATM   21  C11 UNK     1      17.730  -0.320  37.636  1.00  0.00     0.009 A 
HETATM   22  C15 UNK     1      17.842   1.918  36.530  1.00  0.00     0.048 C 
HETATM   23  C7  UNK     1      18.007  -1.688  37.658  1.00  0.00     0.030 A 
ENDBRANCH   2  16
TORSDOF 2
ENDMDL
MODEL 5
REMARK VINA RESULT:      -9.2      6.924     11.618
REMARK  2 active torsions:
REMARK  status: ('A' for Active; 'I' for Inactive)
REMARK    1  A    between atoms: C1_5  and  N1_4 
REMARK       I    between atoms: C10_14  and  N1_4 
REMARK    2  A    between atoms: C10_14  and  C5_9 
ROOT
HETATM    1  O2  UNK     1      17.159   4.173  31.155  1.00  0.00    -0.267 OA
HETATM    2  N1  UNK     1      18.647   4.494  32.958  1.00  0.00    -0.322 N 
HETATM    3  C10 UNK     1      18.007   3.780  31.954  1.00  0.00     0.262 C 
HETATM    4  H2  UNK     1      19.312   4.002  33.546  1.00  0.00     0.169 HD
ENDROOT
BRANCH   3   5
HETATM    5  C5  UNK     1      18.456   2.384  31.905  1.00  0.00     0.108 A 
HETATM    6  C13 UNK     1      18.343   1.482  33.072  1.00  0.00     0.304 A 
HETATM    7  O1  UNK     1      18.803   0.179  32.902  1.00  0.00    -0.274 OA
HETATM    8  O3  UNK     1      17.869   1.857  34.139  1.00  0.00    -0.259 OA
HETATM    9  C9  UNK     1      19.350  -0.263  31.682  1.00  0.00     0.089 A 
HETATM   10  C16 UNK     1      19.783  -1.585  31.606  1.00  0.00     0.038 A 
HETATM   11  C3  UNK     1      19.447   0.602  30.597  1.00  0.00    -0.001 A 
HETATM   12  C18 UNK     1      20.328  -2.051  30.413  1.00  0.00     0.003 A 
HETATM   13  C17 UNK     1      20.433  -1.198  29.312  1.00  0.00     0.001 A 
HETATM   14  C14 UNK     1      19.994   0.126  29.402  1.00  0.00     0.014 A 
HETATM   15  C8  UNK     1      18.974   1.969  30.742  1.00  0.00     0.037 A 
ENDBRANCH   3   5
BRANCH   2  16
HETATM   16  C1  UNK     1      18.446   5.843  33.266  1.00  0.00     0.041 A 
HETATM   17  C2  UNK     1      19.501   6.754  33.209  1.00  0.00    -0.035 A 
HETATM   18  C12 UNK     1      20.876   6.321  32.815  1.00  0.00     0.050 C 
HETATM   19  C6  UNK     1      19.280   8.095  33.521  1.00  0.00     0.015 A 
HETATM   20  C4  UNK     1      18.006   8.525  33.891  1.00  0.00    -0.061 A 
HETATM   21  C11 UNK     1      16.953   7.614  33.949  1.00  0.00     0.009 A 
HETATM   22  C15 UNK     1      17.771   9.959  34.225  1.00  0.00     0.048 C 
HETATM   23  C7  UNK     1      17.172   6.272  33.637  1.00  0.00     0.030 A 
ENDBRANCH   2  16
TORSDOF 2
ENDMDL
MODEL 6
REMARK VINA RESULT:      -8.8     19.763     22.221
REMARK  2 active torsions:
REMARK  status: ('A' for Active; 'I' for Inactive)
REMARK    1  A    between atoms: C1_5  and  N1_4 
REMARK       I    between atoms: C10_14  and  N1_4 
REMARK    2  A    between atoms: C10_14  and  C5_9 
ROOT
HETATM    1  O2  UNK     1      17.051  -1.848  16.914  1.00  0.00    -0.267 OA
HETATM    2  N1  UNK     1      19.169  -0.818  16.761  1.00  0.00    -0.322 N 
HETATM    3  C10 UNK     1      18.132  -1.651  16.362  1.00  0.00     0.262 C 
HETATM    4  H2  UNK     1      20.009  -0.793  16.191  1.00  0.00     0.169 HD
ENDROOT
BRANCH   3   5
HETATM    5  C5  UNK     1      18.444  -2.353  15.112  1.00  0.00     0.108 A 
HETATM    6  C13 UNK     1      18.026  -3.752  14.872  1.00  0.00     0.304 A 
HETATM    7  O1  UNK     1      18.381  -4.309  13.646  1.00  0.00    -0.274 OA
HETATM    8  O3  UNK     1      17.398  -4.394  15.706  1.00  0.00    -0.259 OA
HETATM    9  C9  UNK     1      19.103  -3.581  12.680  1.00  0.00     0.089 A 
HETATM   10  C16 UNK     1      19.412  -4.223  11.482  1.00  0.00     0.038 A 
HETATM   11  C3  UNK     1      19.486  -2.267  12.926  1.00  0.00    -0.001 A 
HETATM   12  C18 UNK     1      20.125  -3.529  10.508  1.00  0.00     0.003 A 
HETATM   13  C17 UNK     1      20.518  -2.209  10.737  1.00  0.00     0.001 A 
HETATM   14  C14 UNK     1      20.200  -1.577  11.943  1.00  0.00     0.014 A 
HETATM   15  C8  UNK     1      19.130  -1.656  14.197  1.00  0.00     0.037 A 
ENDBRANCH   3   5
BRANCH   2  16
HETATM   16  C1  UNK     1      19.187  -0.013  17.904  1.00  0.00     0.041 A 
HETATM   17  C2  UNK     1      19.196   1.377  17.799  1.00  0.00    -0.035 A 
HETATM   18  C12 UNK     1      19.186   2.052  16.465  1.00  0.00     0.050 C 
HETATM   19  C6  UNK     1      19.215   2.162  18.951  1.00  0.00     0.015 A 
HETATM   20  C4  UNK     1      19.225   1.557  20.207  1.00  0.00    -0.061 A 
HETATM   21  C11 UNK     1      19.216   0.167  20.311  1.00  0.00     0.009 A 
HETATM   22  C15 UNK     1      19.245   2.398  21.440  1.00  0.00     0.048 C 
HETATM   23  C7  UNK     1      19.197  -0.619  19.159  1.00  0.00     0.030 A 
ENDBRANCH   2  16
TORSDOF 2
ENDMDL
MODEL 7
REMARK VINA RESULT:      -8.7     19.869     21.549
REMARK  2 active torsions:
REMARK  status: ('A' for Active; 'I' for Inactive)
REMARK    1  A    between atoms: C1_5  and  N1_4 
REMARK       I    between atoms: C10_14  and  N1_4 
REMARK    2  A    between atoms: C10_14  and  C5_9 
ROOT
HETATM    1  O2  UNK     1      17.892  -3.271  15.807  1.00  0.00    -0.267 OA
HETATM    2  N1  UNK     1      20.081  -3.059  14.951  1.00  0.00    -0.322 N 
HETATM    3  C10 UNK     1      18.917  -2.632  15.574  1.00  0.00     0.262 C 
HETATM    4  H2  UNK     1      20.829  -2.385  14.820  1.00  0.00     0.169 HD
ENDROOT
BRANCH   3   5
HETATM    5  C5  UNK     1      18.998  -1.224  15.979  1.00  0.00     0.108 A 
HETATM    6  C13 UNK     1      19.250  -0.140  15.003  1.00  0.00     0.304 A 
HETATM    7  O1  UNK     1      19.305   1.156  15.509  1.00  0.00    -0.274 OA
HETATM    8  O3  UNK     1      19.404  -0.366  13.808  1.00  0.00    -0.259 OA
HETATM    9  C9  UNK     1      19.130   1.427  16.880  1.00  0.00     0.089 A 
HETATM   10  C16 UNK     1      19.201   2.757  17.292  1.00  0.00     0.038 A 
HETATM   11  C3  UNK     1      18.895   0.394  17.780  1.00  0.00    -0.001 A 
HETATM   12  C18 UNK     1      19.033   3.056  18.641  1.00  0.00     0.003 A 
HETATM   13  C17 UNK     1      18.795   2.032  19.560  1.00  0.00     0.001 A 
HETATM   14  C14 UNK     1      18.725   0.703  19.132  1.00  0.00     0.014 A 
HETATM   15  C8  UNK     1      18.831  -0.972  17.283  1.00  0.00     0.037 A 
ENDBRANCH   3   5
BRANCH   2  16
HETATM   16  C1  UNK     1      20.325  -4.341  14.449  1.00  0.00     0.041 A 
HETATM   17  C2  UNK     1      20.063  -4.648  13.114  1.00  0.00    -0.035 A 
HETATM   18  C12 UNK     1      19.515  -3.619  12.177  1.00  0.00     0.050 C 
HETATM   19  C6  UNK     1      20.312  -5.932  12.633  1.00  0.00     0.015 A 
HETATM   20  C4  UNK     1      20.823  -6.910  13.487  1.00  0.00    -0.061 A 
HETATM   21  C11 UNK     1      21.084  -6.603  14.821  1.00  0.00     0.009 A 
HETATM   22  C15 UNK     1      21.090  -8.284  12.972  1.00  0.00     0.048 C 
HETATM   23  C7  UNK     1      20.835  -5.318  15.303  1.00  0.00     0.030 A 
ENDBRANCH   2  16
TORSDOF 2
ENDMDL
MODEL 8
REMARK VINA RESULT:      -8.7      6.884      8.974
REMARK  2 active torsions:
REMARK  status: ('A' for Active; 'I' for Inactive)
REMARK    1  A    between atoms: C1_5  and  N1_4 
REMARK       I    between atoms: C10_14  and  N1_4 
REMARK    2  A    between atoms: C10_14  and  C5_9 
ROOT
HETATM    1  O2  UNK     1      25.814  -9.112  39.449  1.00  0.00    -0.267 OA
HETATM    2  N1  UNK     1      24.547  -7.748  37.999  1.00  0.00    -0.322 N 
HETATM    3  C10 UNK     1      25.647  -8.102  38.767  1.00  0.00     0.262 C 
HETATM    4  H2  UNK     1      24.569  -6.856  37.512  1.00  0.00     0.169 HD
ENDROOT
BRANCH   3   5
HETATM    5  C5  UNK     1      26.706  -7.088  38.706  1.00  0.00     0.108 A 
HETATM    6  C13 UNK     1      26.412  -5.640  38.784  1.00  0.00     0.304 A 
HETATM    7  O1  UNK     1      27.502  -4.776  38.715  1.00  0.00    -0.274 OA
HETATM    8  O3  UNK     1      25.268  -5.216  38.904  1.00  0.00    -0.259 OA
HETATM    9  C9  UNK     1      28.820  -5.253  38.577  1.00  0.00     0.089 A 
HETATM   10  C16 UNK     1      29.847  -4.312  38.517  1.00  0.00     0.038 A 
HETATM   11  C3  UNK     1      29.075  -6.618  38.505  1.00  0.00    -0.001 A 
HETATM   12  C18 UNK     1      31.161  -4.752  38.381  1.00  0.00     0.003 A 
HETATM   13  C17 UNK     1      31.435  -6.119  38.308  1.00  0.00     0.001 A 
HETATM   14  C14 UNK     1      30.396  -7.052  38.370  1.00  0.00     0.014 A 
HETATM   15  C8  UNK     1      27.957  -7.546  38.576  1.00  0.00     0.037 A 
ENDBRANCH   3   5
BRANCH   2  16
HETATM   16  C1  UNK     1      23.374  -8.494  37.844  1.00  0.00     0.041 A 
HETATM   17  C2  UNK     1      22.323  -8.368  38.751  1.00  0.00    -0.035 A 
HETATM   18  C12 UNK     1      22.412  -7.433  39.914  1.00  0.00     0.050 C 
HETATM   19  C6  UNK     1      21.162  -9.122  38.580  1.00  0.00     0.015 A 
HETATM   20  C4  UNK     1      21.054 -10.001  37.502  1.00  0.00    -0.061 A 
HETATM   21  C11 UNK     1      22.106 -10.127  36.597  1.00  0.00     0.009 A 
HETATM   22  C15 UNK     1      19.812 -10.807  37.320  1.00  0.00     0.048 C 
HETATM   23  C7  UNK     1      23.268  -9.373  36.768  1.00  0.00     0.030 A 
ENDBRANCH   2  16
TORSDOF 2
ENDMDL
MODEL 9
REMARK VINA RESULT:      -8.5      2.828      4.018
REMARK  2 active torsions:
REMARK  status: ('A' for Active; 'I' for Inactive)
REMARK    1  A    between atoms: C1_5  and  N1_4 
REMARK       I    between atoms: C10_14  and  N1_4 
REMARK    2  A    between atoms: C10_14  and  C5_9 
ROOT
HETATM    1  O2  UNK     1      21.189  -2.737  36.167  1.00  0.00    -0.267 OA
HETATM    2  N1  UNK     1      19.792  -4.387  35.221  1.00  0.00    -0.322 N 
HETATM    3  C10 UNK     1      20.414  -3.150  35.305  1.00  0.00     0.262 C 
HETATM    4  H2  UNK     1      19.158  -4.553  34.445  1.00  0.00     0.169 HD
ENDROOT
BRANCH   3   5
HETATM    5  C5  UNK     1      20.050  -2.276  34.183  1.00  0.00     0.108 A 
HETATM    6  C13 UNK     1      19.161  -1.106  34.356  1.00  0.00     0.304 A 
HETATM    7  O1  UNK     1      18.889  -0.354  33.216  1.00  0.00    -0.274 OA
HETATM    8  O3  UNK     1      18.686  -0.807  35.446  1.00  0.00    -0.259 OA
HETATM    9  C9  UNK     1      19.429  -0.688  31.959  1.00  0.00     0.089 A 
HETATM   10  C16 UNK     1      19.100   0.125  30.876  1.00  0.00     0.038 A 
HETATM   11  C3  UNK     1      20.262  -1.793  31.819  1.00  0.00    -0.001 A 
HETATM   12  C18 UNK     1      19.619  -0.180  29.620  1.00  0.00     0.003 A 
HETATM   13  C17 UNK     1      20.457  -1.285  29.460  1.00  0.00     0.001 A 
HETATM   14  C14 UNK     1      20.779  -2.091  30.555  1.00  0.00     0.014 A 
HETATM   15  C8  UNK     1      20.566  -2.598  32.991  1.00  0.00     0.037 A 
ENDBRANCH   3   5
BRANCH   2  16
HETATM   16  C1  UNK     1      19.928  -5.442  36.129  1.00  0.00     0.041 A 
HETATM   17  C2  UNK     1      20.201  -6.735  35.686  1.00  0.00    -0.035 A 
HETATM   18  C12 UNK     1      20.358  -7.037  34.230  1.00  0.00     0.050 C 
HETATM   19  C6  UNK     1      20.332  -7.774  36.607  1.00  0.00     0.015 A 
HETATM   20  C4  UNK     1      20.190  -7.519  37.971  1.00  0.00    -0.061 A 
HETATM   21  C11 UNK     1      19.917  -6.225  38.413  1.00  0.00     0.009 A 
HETATM   22  C15 UNK     1      20.331  -8.630  38.956  1.00  0.00     0.048 C 
HETATM   23  C7  UNK     1      19.785  -5.186  37.492  1.00  0.00     0.030 A 
ENDBRANCH   2  16
TORSDOF 2
ENDMDL
MODEL 10
REMARK VINA RESULT:      -8.4      1.397      2.278
REMARK  2 active torsions:
REMARK  status: ('A' for Active; 'I' for Inactive)
REMARK    1  A    between atoms: C1_5  and  N1_4 
REMARK       I    between atoms: C10_14  and  N1_4 
REMARK    2  A    between atoms: C10_14  and  C5_9 
ROOT
HETATM    1  O2  UNK     1      21.321  -4.396  36.934  1.00  0.00    -0.267 OA
HETATM    2  N1  UNK     1      19.076  -5.114  37.051  1.00  0.00    -0.322 N 
HETATM    3  C10 UNK     1      20.112  -4.229  36.785  1.00  0.00     0.262 C 
HETATM    4  H2  UNK     1      18.124  -4.799  36.889  1.00  0.00     0.169 HD
ENDROOT
BRANCH   3   5
HETATM    5  C5  UNK     1      19.618  -2.949  36.263  1.00  0.00     0.108 A 
HETATM    6  C13 UNK     1      19.040  -1.911  37.145  1.00  0.00     0.304 A 
HETATM    7  O1  UNK     1      18.606  -0.739  36.531  1.00  0.00    -0.274 OA
HETATM    8  O3  UNK     1      18.946  -2.069  38.357  1.00  0.00    -0.259 OA
HETATM    9  C9  UNK     1      18.709  -0.548  35.140  1.00  0.00     0.089 A 
HETATM   10  C16 UNK     1      18.248   0.659  34.616  1.00  0.00     0.038 A 
HETATM   11  C3  UNK     1      19.255  -1.536  34.328  1.00  0.00    -0.001 A 
HETATM   12  C18 UNK     1      18.337   0.878  33.244  1.00  0.00     0.003 A 
HETATM   13  C17 UNK     1      18.882  -0.103  32.413  1.00  0.00     0.001 A 
HETATM   14  C14 UNK     1      19.341  -1.308  32.952  1.00  0.00     0.014 A 
HETATM   15  C8  UNK     1      19.718  -2.772  34.940  1.00  0.00     0.037 A 
ENDBRANCH   3   5
BRANCH   2  16
HETATM   16  C1  UNK     1      19.209  -6.411  37.555  1.00  0.00     0.041 A 
HETATM   17  C2  UNK     1      18.757  -7.510  36.826  1.00  0.00    -0.035 A 
HETATM   18  C12 UNK     1      18.118  -7.340  35.485  1.00  0.00     0.050 C 
HETATM   19  C6  UNK     1      18.898  -8.796  37.346  1.00  0.00     0.015 A 
HETATM   20  C4  UNK     1      19.491  -8.982  38.596  1.00  0.00    -0.061 A 
HETATM   21  C11 UNK     1      19.942  -7.883  39.324  1.00  0.00     0.009 A 
HETATM   22  C15 UNK     1      19.641 -10.358  39.152  1.00  0.00     0.048 C 
HETATM   23  C7  UNK     1      19.801  -6.596  38.804  1.00  0.00     0.030 A 
ENDBRANCH   2  16
TORSDOF 2
ENDMDL
