MODEL 1
REMARK VINA RESULT:     -10.0      0.000      0.000
REMARK  9 active torsions:
REMARK  status: ('A' for Active; 'I' for Inactive)
REMARK    1  A    between atoms: C17_27  and  O1_3 
REMARK    2  A    between atoms: C8_18  and  O1_3 
REMARK    3  A    between atoms: C9_19  and  O3_5 
REMARK    4  A    between atoms: C11_21  and  O4_6 
REMARK       I    between atoms: C12_22  and  N1_10 
REMARK    5  A    between atoms: C4_14  and  N1_10 
REMARK    6  A    between atoms: C1_11  and  C3_13 
REMARK    7  A    between atoms: C2_12  and  C8_18 
REMARK    8  A    between atoms: C10_20  and  C12_22 
REMARK    9  A    between atoms: C17_27  and  C18_28 
ROOT
HETATM    1  S1  UNK     1      17.928  -0.526  36.833  1.00  0.00    -0.082 SA
HETATM    2  C1  UNK     1      19.348  -2.632  36.446  1.00  0.00    -0.000 A 
HETATM    3  C2  UNK     1      19.620  -1.764  35.349  1.00  0.00     0.085 A 
HETATM    4  C4  UNK     1      18.915  -0.585  35.435  1.00  0.00     0.094 A 
HETATM    5  C5  UNK     1      18.444  -2.082  37.328  1.00  0.00     0.065 A 
ENDROOT
BRANCH   4   6
HETATM    6  N1  UNK     1      18.876   0.532  34.595  1.00  0.00    -0.316 N 
HETATM    7  C12 UNK     1      17.735   1.131  34.081  1.00  0.00     0.262 C 
HETATM    8  O6  UNK     1      16.559   0.815  34.254  1.00  0.00    -0.267 OA
HETATM    9  H4  UNK     1      19.782   0.918  34.346  1.00  0.00     0.169 HD
BRANCH   7  10
HETATM   10  C10 UNK     1      18.056   2.284  33.233  1.00  0.00     0.108 A 
HETATM   11  C15 UNK     1      17.984   3.487  33.816  1.00  0.00     0.037 A 
HETATM   12  C14 UNK     1      18.284   4.691  33.055  1.00  0.00     0.001 A 
HETATM   13  C16 UNK     1      18.647   4.568  31.718  1.00  0.00     0.089 A 
HETATM   14  C20 UNK     1      18.221   5.965  33.623  1.00  0.00     0.038 A 
HETATM   15  O2  UNK     1      18.723   3.300  31.110  1.00  0.00    -0.274 OA
HETATM   16  C21 UNK     1      18.948   5.681  30.935  1.00  0.00     0.040 A 
HETATM   17  C19 UNK     1      18.440   2.131  31.812  1.00  0.00     0.304 A 
HETATM   18  O7  UNK     1      18.508   1.031  31.274  1.00  0.00    -0.259 OA
HETATM   19  C23 UNK     1      18.882   6.948  31.508  1.00  0.00     0.026 A 
HETATM   20  C22 UNK     1      18.520   7.091  32.850  1.00  0.00     0.035 A 
HETATM   21 Cl1  UNK     1      18.441   8.660  33.553  1.00  0.00    -0.084 Cl
ENDBRANCH   7  10
ENDBRANCH   4   6
BRANCH   3  22
HETATM   22  C8  UNK     1      20.520  -2.049  34.258  1.00  0.00     0.297 C 
HETATM   23  O5  UNK     1      21.714  -2.344  34.406  1.00  0.00    -0.259 OA
BRANCH  22  24
HETATM   24  O1  UNK     1      19.934  -1.961  33.015  1.00  0.00    -0.317 OA
BRANCH  24  25
HETATM   25  C17 UNK     1      20.808  -1.732  31.903  1.00  0.00     0.178 C 
BRANCH  25  26
HETATM   26  C18 UNK     1      20.130  -2.226  30.635  1.00  0.00     0.022 C 
HETATM   27  C24 UNK     1      20.478  -1.364  29.435  1.00  0.00     0.007 C 
ENDBRANCH  25  26
ENDBRANCH  24  25
ENDBRANCH  22  24
ENDBRANCH   3  22
BRANCH   2  28
HETATM   28  C3  UNK     1      19.897  -3.939  36.692  1.00  0.00    -0.021 A 
HETATM   29  C6  UNK     1      19.377  -5.051  36.029  1.00  0.00     0.052 A 
HETATM   30  C9  UNK     1      19.907  -6.318  36.268  1.00  0.00     0.102 A 
HETATM   31  C11 UNK     1      20.960  -6.475  37.170  1.00  0.00     0.101 A 
HETATM   32  C13 UNK     1      21.482  -5.364  37.833  1.00  0.00     0.040 A 
HETATM   33  C7  UNK     1      20.951  -4.096  37.593  1.00  0.00     0.015 A 
BRANCH  30  34
HETATM   34  O3  UNK     1      19.390  -7.396  35.615  1.00  0.00    -0.353 OA
HETATM   35  C25 UNK     1      17.969  -7.526  35.606  1.00  0.00     0.210 C 
ENDBRANCH  30  34
BRANCH  31  36
HETATM   36  O4  UNK     1      21.487  -7.708  37.412  1.00  0.00    -0.353 OA
HETATM   37  C26 UNK     1      21.002  -8.406  38.557  1.00  0.00     0.210 C 
ENDBRANCH  31  36
ENDBRANCH   2  28
TORSDOF 9
ENDMDL
MODEL 2
REMARK VINA RESULT:      -9.2      6.229     11.028
REMARK  9 active torsions:
REMARK  status: ('A' for Active; 'I' for Inactive)
REMARK    1  A    between atoms: C17_27  and  O1_3 
REMARK    2  A    between atoms: C8_18  and  O1_3 
REMARK    3  A    between atoms: C9_19  and  O3_5 
REMARK    4  A    between atoms: C11_21  and  O4_6 
REMARK       I    between atoms: C12_22  and  N1_10 
REMARK    5  A    between atoms: C4_14  and  N1_10 
REMARK    6  A    between atoms: C1_11  and  C3_13 
REMARK    7  A    between atoms: C2_12  and  C8_18 
REMARK    8  A    between atoms: C10_20  and  C12_22 
REMARK    9  A    between atoms: C17_27  and  C18_28 
ROOT
HETATM    1  S1  UNK     1      19.605   8.598  34.428  1.00  0.00    -0.082 SA
HETATM    2  C1  UNK     1      18.714   6.817  32.806  1.00  0.00    -0.000 A 
HETATM    3  C2  UNK     1      17.728   7.844  32.845  1.00  0.00     0.085 A 
HETATM    4  C4  UNK     1      18.085   8.873  33.688  1.00  0.00     0.094 A 
HETATM    5  C5  UNK     1      19.788   7.099  33.621  1.00  0.00     0.065 A 
ENDROOT
BRANCH   4   6
HETATM    6  N1  UNK     1      17.432  10.062  34.024  1.00  0.00    -0.316 N 
HETATM    7  C12 UNK     1      17.921  11.346  33.835  1.00  0.00     0.262 C 
HETATM    8  O6  UNK     1      18.995  11.694  33.347  1.00  0.00    -0.267 OA
HETATM    9  H4  UNK     1      16.518   9.947  34.452  1.00  0.00     0.169 HD
BRANCH   7  10
HETATM   10  C10 UNK     1      16.976  12.367  34.302  1.00  0.00     0.108 A 
HETATM   11  C15 UNK     1      16.111  11.983  35.249  1.00  0.00     0.037 A 
HETATM   12  C14 UNK     1      15.134  12.924  35.776  1.00  0.00     0.001 A 
HETATM   13  C16 UNK     1      15.117  14.223  35.280  1.00  0.00     0.089 A 
HETATM   14  C20 UNK     1      14.213  12.566  36.763  1.00  0.00     0.038 A 
HETATM   15  O2  UNK     1      16.030  14.622  34.285  1.00  0.00    -0.274 OA
HETATM   16  C21 UNK     1      14.207  15.173  35.743  1.00  0.00     0.040 A 
HETATM   17  C19 UNK     1      16.975  13.744  33.761  1.00  0.00     0.304 A 
HETATM   18  O7  UNK     1      17.766  14.100  32.894  1.00  0.00    -0.259 OA
HETATM   19  C23 UNK     1      13.292  14.808  36.727  1.00  0.00     0.026 A 
HETATM   20  C22 UNK     1      13.295  13.508  37.237  1.00  0.00     0.035 A 
HETATM   21 Cl1  UNK     1      12.161  13.064  38.454  1.00  0.00    -0.084 Cl
ENDBRANCH   7  10
ENDBRANCH   4   6
BRANCH   3  22
HETATM   22  C8  UNK     1      16.489   7.846  32.106  1.00  0.00     0.297 C 
HETATM   23  O5  UNK     1      16.316   8.468  31.048  1.00  0.00    -0.259 OA
BRANCH  22  24
HETATM   24  O1  UNK     1      15.494   7.088  32.684  1.00  0.00    -0.317 OA
BRANCH  24  25
HETATM   25  C17 UNK     1      14.198   7.691  32.785  1.00  0.00     0.178 C 
BRANCH  25  26
HETATM   26  C18 UNK     1      14.239   8.766  33.860  1.00  0.00     0.022 C 
HETATM   27  C24 UNK     1      13.837  10.125  33.316  1.00  0.00     0.007 C 
ENDBRANCH  25  26
ENDBRANCH  24  25
ENDBRANCH  22  24
ENDBRANCH   3  22
BRANCH   2  28
HETATM   28  C3  UNK     1      18.684   5.596  32.042  1.00  0.00    -0.021 A 
HETATM   29  C6  UNK     1      18.240   4.413  32.634  1.00  0.00     0.052 A 
HETATM   30  C9  UNK     1      18.213   3.231  31.896  1.00  0.00     0.102 A 
HETATM   31  C11 UNK     1      18.630   3.230  30.564  1.00  0.00     0.101 A 
HETATM   32  C13 UNK     1      19.073   4.413  29.971  1.00  0.00     0.040 A 
HETATM   33  C7  UNK     1      19.100   5.596  30.710  1.00  0.00     0.015 A 
BRANCH  30  34
HETATM   34  O3  UNK     1      17.779   2.082  32.485  1.00  0.00    -0.353 OA
HETATM   35  C25 UNK     1      18.094   1.903  33.864  1.00  0.00     0.210 C 
ENDBRANCH  30  34
BRANCH  31  36
HETATM   36  O4  UNK     1      18.608   2.081  29.832  1.00  0.00    -0.353 OA
HETATM   37  C26 UNK     1      17.886   2.110  28.604  1.00  0.00     0.210 C 
ENDBRANCH  31  36
ENDBRANCH   2  28
TORSDOF 9
ENDMDL
MODEL 3
REMARK VINA RESULT:      -9.2      6.166     12.243
REMARK  9 active torsions:
REMARK  status: ('A' for Active; 'I' for Inactive)
REMARK    1  A    between atoms: C17_27  and  O1_3 
REMARK    2  A    between atoms: C8_18  and  O1_3 
REMARK    3  A    between atoms: C9_19  and  O3_5 
REMARK    4  A    between atoms: C11_21  and  O4_6 
REMARK       I    between atoms: C12_22  and  N1_10 
REMARK    5  A    between atoms: C4_14  and  N1_10 
REMARK    6  A    between atoms: C1_11  and  C3_13 
REMARK    7  A    between atoms: C2_12  and  C8_18 
REMARK    8  A    between atoms: C10_20  and  C12_22 
REMARK    9  A    between atoms: C17_27  and  C18_28 
ROOT
HETATM    1  S1  UNK     1      20.345   6.756  33.618  1.00  0.00    -0.082 SA
HETATM    2  C1  UNK     1      18.480   8.517  33.478  1.00  0.00    -0.000 A 
HETATM    3  C2  UNK     1      18.123   7.489  32.558  1.00  0.00     0.085 A 
HETATM    4  C4  UNK     1      19.050   6.471  32.534  1.00  0.00     0.094 A 
HETATM    5  C5  UNK     1      19.667   8.245  34.122  1.00  0.00     0.065 A 
ENDROOT
BRANCH   4   6
HETATM    6  N1  UNK     1      19.102   5.285  31.795  1.00  0.00    -0.316 N 
HETATM    7  C12 UNK     1      18.346   4.145  32.023  1.00  0.00     0.262 C 
HETATM    8  O6  UNK     1      17.499   3.948  32.893  1.00  0.00    -0.267 OA
HETATM    9  H4  UNK     1      19.770   5.283  31.030  1.00  0.00     0.169 HD
BRANCH   7  10
HETATM   10  C10 UNK     1      18.654   3.082  31.059  1.00  0.00     0.108 A 
HETATM   11  C15 UNK     1      19.077   1.921  31.573  1.00  0.00     0.037 A 
HETATM   12  C14 UNK     1      19.407   0.807  30.696  1.00  0.00     0.001 A 
HETATM   13  C16 UNK     1      19.274   0.972  29.321  1.00  0.00     0.089 A 
HETATM   14  C20 UNK     1      19.852  -0.421  31.189  1.00  0.00     0.038 A 
HETATM   15  O2  UNK     1      18.828   2.196  28.786  1.00  0.00    -0.274 OA
HETATM   16  C21 UNK     1      19.574  -0.055  28.427  1.00  0.00     0.040 A 
HETATM   17  C19 UNK     1      18.506   3.279  29.599  1.00  0.00     0.304 A 
HETATM   18  O7  UNK     1      18.118   4.341  29.125  1.00  0.00    -0.259 OA
HETATM   19  C23 UNK     1      20.018  -1.277  28.927  1.00  0.00     0.026 A 
HETATM   20  C22 UNK     1      20.156  -1.460  30.305  1.00  0.00     0.035 A 
HETATM   21 Cl1  UNK     1      20.705  -2.973  30.916  1.00  0.00    -0.084 Cl
ENDBRANCH   7  10
ENDBRANCH   4   6
BRANCH   3  22
HETATM   22  C8  UNK     1      16.941   7.478  31.731  1.00  0.00     0.297 C 
HETATM   23  O5  UNK     1      16.854   8.064  30.643  1.00  0.00    -0.259 OA
BRANCH  22  24
HETATM   24  O1  UNK     1      15.898   6.751  32.259  1.00  0.00    -0.317 OA
BRANCH  24  25
HETATM   25  C17 UNK     1      14.616   6.916  31.641  1.00  0.00     0.178 C 
BRANCH  25  26
HETATM   26  C18 UNK     1      13.636   7.448  32.675  1.00  0.00     0.022 C 
HETATM   27  C24 UNK     1      14.142   7.242  34.091  1.00  0.00     0.007 C 
ENDBRANCH  25  26
ENDBRANCH  24  25
ENDBRANCH  22  24
ENDBRANCH   3  22
BRANCH   2  28
HETATM   28  C3  UNK     1      17.758   9.728  33.770  1.00  0.00    -0.021 A 
HETATM   29  C6  UNK     1      18.420  10.956  33.756  1.00  0.00     0.052 A 
HETATM   30  C9  UNK     1      17.722  12.129  34.040  1.00  0.00     0.102 A 
HETATM   31  C11 UNK     1      16.360  12.075  34.338  1.00  0.00     0.101 A 
HETATM   32  C13 UNK     1      15.697  10.847  34.351  1.00  0.00     0.040 A 
HETATM   33  C7  UNK     1      16.396   9.674  34.066  1.00  0.00     0.015 A 
BRANCH  30  34
HETATM   34  O3  UNK     1      18.380  13.322  34.025  1.00  0.00    -0.353 OA
HETATM   35  C25 UNK     1      18.798  13.814  32.753  1.00  0.00     0.210 C 
ENDBRANCH  30  34
BRANCH  31  36
HETATM   36  O4  UNK     1      15.666  13.214  34.617  1.00  0.00    -0.353 OA
HETATM   37  C26 UNK     1      14.902  13.783  33.557  1.00  0.00     0.210 C 
ENDBRANCH  31  36
ENDBRANCH   2  28
TORSDOF 9
ENDMDL
MODEL 4
REMARK VINA RESULT:      -9.1      6.298     11.086
REMARK  9 active torsions:
REMARK  status: ('A' for Active; 'I' for Inactive)
REMARK    1  A    between atoms: C17_27  and  O1_3 
REMARK    2  A    between atoms: C8_18  and  O1_3 
REMARK    3  A    between atoms: C9_19  and  O3_5 
REMARK    4  A    between atoms: C11_21  and  O4_6 
REMARK       I    between atoms: C12_22  and  N1_10 
REMARK    5  A    between atoms: C4_14  and  N1_10 
REMARK    6  A    between atoms: C1_11  and  C3_13 
REMARK    7  A    between atoms: C2_12  and  C8_18 
REMARK    8  A    between atoms: C10_20  and  C12_22 
REMARK    9  A    between atoms: C17_27  and  C18_28 
ROOT
HETATM    1  S1  UNK     1      19.501   8.632  34.368  1.00  0.00    -0.082 SA
HETATM    2  C1  UNK     1      18.666   6.827  32.742  1.00  0.00    -0.000 A 
HETATM    3  C2  UNK     1      17.667   7.843  32.752  1.00  0.00     0.085 A 
HETATM    4  C4  UNK     1      17.994   8.882  33.594  1.00  0.00     0.094 A 
HETATM    5  C5  UNK     1      19.719   7.130  33.577  1.00  0.00     0.065 A 
ENDROOT
BRANCH   4   6
HETATM    6  N1  UNK     1      17.319  10.066  33.907  1.00  0.00    -0.316 N 
HETATM    7  C12 UNK     1      17.842  11.349  33.839  1.00  0.00     0.262 C 
HETATM    8  O6  UNK     1      18.970  11.700  33.498  1.00  0.00    -0.267 OA
HETATM    9  H4  UNK     1      16.359   9.947  34.218  1.00  0.00     0.169 HD
BRANCH   7  10
HETATM   10  C10 UNK     1      16.859  12.363  34.239  1.00  0.00     0.108 A 
HETATM   11  C15 UNK     1      16.959  13.555  33.638  1.00  0.00     0.037 A 
HETATM   12  C14 UNK     1      16.029  14.624  33.969  1.00  0.00     0.001 A 
HETATM   13  C16 UNK     1      15.040  14.385  34.917  1.00  0.00     0.089 A 
HETATM   14  C20 UNK     1      16.097  15.883  33.368  1.00  0.00     0.038 A 
HETATM   15  O2  UNK     1      14.939  13.129  35.546  1.00  0.00    -0.274 OA
HETATM   16  C21 UNK     1      14.119  15.366  35.279  1.00  0.00     0.040 A 
HETATM   17  C19 UNK     1      15.814  12.087  35.251  1.00  0.00     0.304 A 
HETATM   18  O7  UNK     1      15.719  10.996  35.803  1.00  0.00    -0.259 OA
HETATM   19  C23 UNK     1      14.193  16.619  34.675  1.00  0.00     0.026 A 
HETATM   20  C22 UNK     1      15.180  16.877  33.720  1.00  0.00     0.035 A 
HETATM   21 Cl1  UNK     1      15.267  18.426  32.976  1.00  0.00    -0.084 Cl
ENDBRANCH   7  10
ENDBRANCH   4   6
BRANCH   3  22
HETATM   22  C8  UNK     1      16.443   7.823  31.988  1.00  0.00     0.297 C 
HETATM   23  O5  UNK     1      16.287   8.431  30.919  1.00  0.00    -0.259 OA
BRANCH  22  24
HETATM   24  O1  UNK     1      15.445   7.062  32.553  1.00  0.00    -0.317 OA
BRANCH  24  25
HETATM   25  C17 UNK     1      14.137   7.646  32.603  1.00  0.00     0.178 C 
BRANCH  25  26
HETATM   26  C18 UNK     1      14.112   8.703  33.696  1.00  0.00     0.022 C 
HETATM   27  C24 UNK     1      13.709  10.064  33.156  1.00  0.00     0.007 C 
ENDBRANCH  25  26
ENDBRANCH  24  25
ENDBRANCH  22  24
ENDBRANCH   3  22
BRANCH   2  28
HETATM   28  C3  UNK     1      18.668   5.601  31.988  1.00  0.00    -0.021 A 
HETATM   29  C6  UNK     1      18.191   4.425  32.567  1.00  0.00     0.052 A 
HETATM   30  C9  UNK     1      18.194   3.236  31.839  1.00  0.00     0.102 A 
HETATM   31  C11 UNK     1      18.673   3.223  30.528  1.00  0.00     0.101 A 
HETATM   32  C13 UNK     1      19.149   4.399  29.948  1.00  0.00     0.040 A 
HETATM   33  C7  UNK     1      19.146   5.588  30.677  1.00  0.00     0.015 A 
BRANCH  30  34
HETATM   34  O3  UNK     1      17.727   2.094  32.415  1.00  0.00    -0.353 OA
HETATM   35  C25 UNK     1      18.097   1.856  33.772  1.00  0.00     0.210 C 
ENDBRANCH  30  34
BRANCH  31  36
HETATM   36  O4  UNK     1      18.682   2.068  29.805  1.00  0.00    -0.353 OA
HETATM   37  C26 UNK     1      17.878   2.035  28.628  1.00  0.00     0.210 C 
ENDBRANCH  31  36
ENDBRANCH   2  28
TORSDOF 9
ENDMDL
MODEL 5
REMARK VINA RESULT:      -8.7      1.711      2.560
REMARK  9 active torsions:
REMARK  status: ('A' for Active; 'I' for Inactive)
REMARK    1  A    between atoms: C17_27  and  O1_3 
REMARK    2  A    between atoms: C8_18  and  O1_3 
REMARK    3  A    between atoms: C9_19  and  O3_5 
REMARK    4  A    between atoms: C11_21  and  O4_6 
REMARK       I    between atoms: C12_22  and  N1_10 
REMARK    5  A    between atoms: C4_14  and  N1_10 
REMARK    6  A    between atoms: C1_11  and  C3_13 
REMARK    7  A    between atoms: C2_12  and  C8_18 
REMARK    8  A    between atoms: C10_20  and  C12_22 
REMARK    9  A    between atoms: C17_27  and  C18_28 
ROOT
HETATM    1  S1  UNK     1      17.652  -2.004  37.020  1.00  0.00    -0.082 SA
HETATM    2  C1  UNK     1      19.370  -3.791  36.347  1.00  0.00    -0.000 A 
HETATM    3  C2  UNK     1      19.717  -2.616  35.619  1.00  0.00     0.085 A 
HETATM    4  C4  UNK     1      18.865  -1.569  35.891  1.00  0.00     0.094 A 
HETATM    5  C5  UNK     1      18.266  -3.597  37.147  1.00  0.00     0.065 A 
ENDROOT
BRANCH   4   6
HETATM    6  N1  UNK     1      18.831  -0.256  35.412  1.00  0.00    -0.316 N 
HETATM    7  C12 UNK     1      18.078   0.207  34.344  1.00  0.00     0.262 C 
HETATM    8  O6  UNK     1      17.306  -0.421  33.620  1.00  0.00    -0.267 OA
HETATM    9  H4  UNK     1      19.430   0.399  35.907  1.00  0.00     0.169 HD
BRANCH   7  10
HETATM   10  C10 UNK     1      18.282   1.641  34.110  1.00  0.00     0.108 A 
HETATM   11  C15 UNK     1      18.322   2.033  32.831  1.00  0.00     0.037 A 
HETATM   12  C14 UNK     1      18.520   3.436  32.499  1.00  0.00     0.001 A 
HETATM   13  C16 UNK     1      18.666   4.357  33.531  1.00  0.00     0.089 A 
HETATM   14  C20 UNK     1      18.569   3.889  31.179  1.00  0.00     0.038 A 
HETATM   15  O2  UNK     1      18.623   3.939  34.875  1.00  0.00    -0.274 OA
HETATM   16  C21 UNK     1      18.859   5.714  33.281  1.00  0.00     0.040 A 
HETATM   17  C19 UNK     1      18.435   2.604  35.224  1.00  0.00     0.304 A 
HETATM   18  O7  UNK     1      18.399   2.249  36.397  1.00  0.00    -0.259 OA
HETATM   19  C23 UNK     1      18.907   6.158  31.962  1.00  0.00     0.026 A 
HETATM   20  C22 UNK     1      18.762   5.247  30.912  1.00  0.00     0.035 A 
HETATM   21 Cl1  UNK     1      18.821   5.802  29.283  1.00  0.00    -0.084 Cl
ENDBRANCH   7  10
ENDBRANCH   4   6
BRANCH   3  22
HETATM   22  C8  UNK     1      20.820  -2.495  34.697  1.00  0.00     0.297 C 
HETATM   23  O5  UNK     1      21.929  -2.034  35.003  1.00  0.00    -0.259 OA
BRANCH  22  24
HETATM   24  O1  UNK     1      20.534  -2.939  33.425  1.00  0.00    -0.317 OA
BRANCH  24  25
HETATM   25  C17 UNK     1      20.905  -2.079  32.342  1.00  0.00     0.178 C 
BRANCH  25  26
HETATM   26  C18 UNK     1      20.767  -2.845  31.036  1.00  0.00     0.022 C 
HETATM   27  C24 UNK     1      20.391  -1.933  29.882  1.00  0.00     0.007 C 
ENDBRANCH  25  26
ENDBRANCH  24  25
ENDBRANCH  22  24
ENDBRANCH   3  22
BRANCH   2  28
HETATM   28  C3  UNK     1      20.029  -5.071  36.318  1.00  0.00    -0.021 A 
HETATM   29  C6  UNK     1      20.804  -5.482  37.402  1.00  0.00     0.052 A 
HETATM   30  C9  UNK     1      21.443  -6.720  37.375  1.00  0.00     0.102 A 
HETATM   31  C11 UNK     1      21.307  -7.550  36.261  1.00  0.00     0.101 A 
HETATM   32  C13 UNK     1      20.532  -7.141  35.176  1.00  0.00     0.040 A 
HETATM   33  C7  UNK     1      19.892  -5.902  35.205  1.00  0.00     0.015 A 
BRANCH  30  34
HETATM   34  O3  UNK     1      22.198  -7.110  38.439  1.00  0.00    -0.353 OA
HETATM   35  C25 UNK     1      23.050  -6.126  39.024  1.00  0.00     0.210 C 
ENDBRANCH  30  34
BRANCH  31  36
HETATM   36  O4  UNK     1      21.927  -8.763  36.222  1.00  0.00    -0.353 OA
HETATM   37  C26 UNK     1      21.618  -9.613  35.120  1.00  0.00     0.210 C 
ENDBRANCH  31  36
ENDBRANCH   2  28
TORSDOF 9
ENDMDL
MODEL 6
REMARK VINA RESULT:      -8.5     17.966     21.774
REMARK  9 active torsions:
REMARK  status: ('A' for Active; 'I' for Inactive)
REMARK    1  A    between atoms: C17_27  and  O1_3 
REMARK    2  A    between atoms: C8_18  and  O1_3 
REMARK    3  A    between atoms: C9_19  and  O3_5 
REMARK    4  A    between atoms: C11_21  and  O4_6 
REMARK       I    between atoms: C12_22  and  N1_10 
REMARK    5  A    between atoms: C4_14  and  N1_10 
REMARK    6  A    between atoms: C1_11  and  C3_13 
REMARK    7  A    between atoms: C2_12  and  C8_18 
REMARK    8  A    between atoms: C10_20  and  C12_22 
REMARK    9  A    between atoms: C17_27  and  C18_28 
ROOT
HETATM    1  S1  UNK     1      20.560  -5.532  15.329  1.00  0.00    -0.082 SA
HETATM    2  C1  UNK     1      20.286  -6.117  12.843  1.00  0.00    -0.000 A 
HETATM    3  C2  UNK     1      20.003  -4.725  12.955  1.00  0.00     0.085 A 
HETATM    4  C4  UNK     1      20.115  -4.277  14.252  1.00  0.00     0.094 A 
HETATM    5  C5  UNK     1      20.603  -6.680  14.059  1.00  0.00     0.065 A 
ENDROOT
BRANCH   4   6
HETATM    6  N1  UNK     1      19.932  -3.009  14.811  1.00  0.00    -0.316 N 
HETATM    7  C12 UNK     1      18.822  -2.582  15.526  1.00  0.00     0.262 C 
HETATM    8  O6  UNK     1      17.804  -3.211  15.809  1.00  0.00    -0.267 OA
HETATM    9  H4  UNK     1      20.694  -2.355  14.658  1.00  0.00     0.169 HD
BRANCH   7  10
HETATM   10  C10 UNK     1      18.958  -1.190  15.968  1.00  0.00     0.108 A 
HETATM   11  C15 UNK     1      18.897  -0.979  17.289  1.00  0.00     0.037 A 
HETATM   12  C14 UNK     1      19.022   0.369  17.824  1.00  0.00     0.001 A 
HETATM   13  C16 UNK     1      19.206   1.428  16.941  1.00  0.00     0.089 A 
HETATM   14  C20 UNK     1      18.963   0.634  19.194  1.00  0.00     0.038 A 
HETATM   15  O2  UNK     1      19.270   1.201  15.553  1.00  0.00    -0.274 OA
HETATM   16  C21 UNK     1      19.332   2.742  17.388  1.00  0.00     0.040 A 
HETATM   17  C19 UNK     1      19.153  -0.077  15.012  1.00  0.00     0.304 A 
HETATM   18  O7  UNK     1      19.210  -0.266  13.801  1.00  0.00    -0.259 OA
HETATM   19  C23 UNK     1      19.272   2.998  18.756  1.00  0.00     0.026 A 
HETATM   20  C22 UNK     1      19.089   1.947  19.657  1.00  0.00     0.035 A 
HETATM   21 Cl1  UNK     1      19.016   2.270  21.347  1.00  0.00    -0.084 Cl
ENDBRANCH   7  10
ENDBRANCH   4   6
BRANCH   3  22
HETATM   22  C8  UNK     1      19.638  -3.853  11.865  1.00  0.00     0.297 C 
HETATM   23  O5  UNK     1      18.572  -3.223  11.812  1.00  0.00    -0.259 OA
BRANCH  22  24
HETATM   24  O1  UNK     1      20.585  -3.779  10.868  1.00  0.00    -0.317 OA
BRANCH  24  25
HETATM   25  C17 UNK     1      20.125  -3.399   9.566  1.00  0.00     0.178 C 
BRANCH  25  26
HETATM   26  C18 UNK     1      19.998  -4.647   8.706  1.00  0.00     0.022 C 
HETATM   27  C24 UNK     1      18.554  -4.933   8.335  1.00  0.00     0.007 C 
ENDBRANCH  25  26
ENDBRANCH  24  25
ENDBRANCH  22  24
ENDBRANCH   3  22
BRANCH   2  28
HETATM   28  C3  UNK     1      20.269  -6.926  11.653  1.00  0.00    -0.021 A 
HETATM   29  C6  UNK     1      19.058  -7.408  11.154  1.00  0.00     0.052 A 
HETATM   30  C9  UNK     1      19.041  -8.194  10.002  1.00  0.00     0.102 A 
HETATM   31  C11 UNK     1      20.235  -8.497   9.347  1.00  0.00     0.101 A 
HETATM   32  C13 UNK     1      21.446  -8.015   9.844  1.00  0.00     0.040 A 
HETATM   33  C7  UNK     1      21.463  -7.229  10.997  1.00  0.00     0.015 A 
BRANCH  30  34
HETATM   34  O3  UNK     1      17.853  -8.659   9.525  1.00  0.00    -0.353 OA
HETATM   35  C25 UNK     1      16.688  -7.896   9.833  1.00  0.00     0.210 C 
ENDBRANCH  30  34
BRANCH  31  36
HETATM   36  O4  UNK     1      20.231  -9.264   8.220  1.00  0.00    -0.353 OA
HETATM   37  C26 UNK     1      20.637  -8.634   7.007  1.00  0.00     0.210 C 
ENDBRANCH  31  36
ENDBRANCH   2  28
TORSDOF 9
ENDMDL
MODEL 7
REMARK VINA RESULT:      -8.3     25.656     27.653
REMARK  9 active torsions:
REMARK  status: ('A' for Active; 'I' for Inactive)
REMARK    1  A    between atoms: C17_27  and  O1_3 
REMARK    2  A    between atoms: C8_18  and  O1_3 
REMARK    3  A    between atoms: C9_19  and  O3_5 
REMARK    4  A    between atoms: C11_21  and  O4_6 
REMARK       I    between atoms: C12_22  and  N1_10 
REMARK    5  A    between atoms: C4_14  and  N1_10 
REMARK    6  A    between atoms: C1_11  and  C3_13 
REMARK    7  A    between atoms: C2_12  and  C8_18 
REMARK    8  A    between atoms: C10_20  and  C12_22 
REMARK    9  A    between atoms: C17_27  and  C18_28 
ROOT
HETATM    1  S1  UNK     1      16.690  11.850   7.561  1.00  0.00    -0.082 SA
HETATM    2  C1  UNK     1      15.193  10.011   8.549  1.00  0.00    -0.000 A 
HETATM    3  C2  UNK     1      16.429   9.935   9.253  1.00  0.00     0.085 A 
HETATM    4  C4  UNK     1      17.333  10.878   8.815  1.00  0.00     0.094 A 
HETATM    5  C5  UNK     1      15.199  11.010   7.600  1.00  0.00     0.065 A 
ENDROOT
BRANCH   4   6
HETATM    6  N1  UNK     1      18.642  11.159   9.216  1.00  0.00    -0.316 N 
HETATM    7  C12 UNK     1      19.052  12.254   9.963  1.00  0.00     0.262 C 
HETATM    8  O6  UNK     1      18.370  13.173  10.414  1.00  0.00    -0.267 OA
HETATM    9  H4  UNK     1      19.341  10.487   8.913  1.00  0.00     0.169 HD
BRANCH   7  10
HETATM   10  C10 UNK     1      20.499  12.241  10.205  1.00  0.00     0.108 A 
HETATM   11  C15 UNK     1      20.896  12.556  11.444  1.00  0.00     0.037 A 
HETATM   12  C14 UNK     1      22.312  12.570  11.780  1.00  0.00     0.001 A 
HETATM   13  C16 UNK     1      23.240  12.251  10.794  1.00  0.00     0.089 A 
HETATM   14  C20 UNK     1      22.770  12.894  13.059  1.00  0.00     0.038 A 
HETATM   15  O2  UNK     1      22.817  11.920   9.493  1.00  0.00    -0.274 OA
HETATM   16  C21 UNK     1      24.610  12.247  11.051  1.00  0.00     0.040 A 
HETATM   17  C19 UNK     1      21.470  11.899   9.141  1.00  0.00     0.304 A 
HETATM   18  O7  UNK     1      21.111  11.609   8.005  1.00  0.00    -0.259 OA
HETATM   19  C23 UNK     1      25.058  12.571  12.329  1.00  0.00     0.026 A 
HETATM   20  C22 UNK     1      24.141  12.893  13.332  1.00  0.00     0.035 A 
HETATM   21 Cl1  UNK     1      24.701  13.291  14.910  1.00  0.00    -0.084 Cl
ENDBRANCH   7  10
ENDBRANCH   4   6
BRANCH   3  22
HETATM   22  C8  UNK     1      16.740   8.996  10.303  1.00  0.00     0.297 C 
HETATM   23  O5  UNK     1      16.191   8.997  11.415  1.00  0.00    -0.259 OA
BRANCH  22  24
HETATM   24  O1  UNK     1      17.714   8.084   9.966  1.00  0.00    -0.317 OA
BRANCH  24  25
HETATM   25  C17 UNK     1      17.464   6.715  10.305  1.00  0.00     0.178 C 
BRANCH  25  26
HETATM   26  C18 UNK     1      16.334   6.191   9.432  1.00  0.00     0.022 C 
HETATM   27  C24 UNK     1      15.204   5.606  10.260  1.00  0.00     0.007 C 
ENDBRANCH  25  26
ENDBRANCH  24  25
ENDBRANCH  22  24
ENDBRANCH   3  22
BRANCH   2  28
HETATM   28  C3  UNK     1      14.023   9.192   8.732  1.00  0.00    -0.021 A 
HETATM   29  C6  UNK     1      13.802   8.095   7.898  1.00  0.00     0.052 A 
HETATM   30  C9  UNK     1      12.669   7.302   8.073  1.00  0.00     0.102 A 
HETATM   31  C11 UNK     1      11.755   7.605   9.084  1.00  0.00     0.101 A 
HETATM   32  C13 UNK     1      11.976   8.701   9.919  1.00  0.00     0.040 A 
HETATM   33  C7  UNK     1      13.111   9.494   9.743  1.00  0.00     0.015 A 
BRANCH  30  34
HETATM   34  O3  UNK     1      12.463   6.235   7.252  1.00  0.00    -0.353 OA
HETATM   35  C25 UNK     1      11.631   6.446   6.113  1.00  0.00     0.210 C 
ENDBRANCH  30  34
BRANCH  31  36
HETATM   36  O4  UNK     1      10.644   6.838   9.266  1.00  0.00    -0.353 OA
HETATM   37  C26 UNK     1       9.396   7.403   8.872  1.00  0.00     0.210 C 
ENDBRANCH  31  36
ENDBRANCH   2  28
TORSDOF 9
ENDMDL
MODEL 8
REMARK VINA RESULT:      -8.3     10.029     14.094
REMARK  9 active torsions:
REMARK  status: ('A' for Active; 'I' for Inactive)
REMARK    1  A    between atoms: C17_27  and  O1_3 
REMARK    2  A    between atoms: C8_18  and  O1_3 
REMARK    3  A    between atoms: C9_19  and  O3_5 
REMARK    4  A    between atoms: C11_21  and  O4_6 
REMARK       I    between atoms: C12_22  and  N1_10 
REMARK    5  A    between atoms: C4_14  and  N1_10 
REMARK    6  A    between atoms: C1_11  and  C3_13 
REMARK    7  A    between atoms: C2_12  and  C8_18 
REMARK    8  A    between atoms: C10_20  and  C12_22 
REMARK    9  A    between atoms: C17_27  and  C18_28 
ROOT
HETATM    1  S1  UNK     1      29.603  -9.682  38.285  1.00  0.00    -0.082 SA
HETATM    2  C1  UNK     1      31.235  -8.591  36.627  1.00  0.00    -0.000 A 
HETATM    3  C2  UNK     1      30.054  -7.796  36.600  1.00  0.00     0.085 A 
HETATM    4  C4  UNK     1      29.086  -8.277  37.454  1.00  0.00     0.094 A 
HETATM    5  C5  UNK     1      31.126  -9.650  37.501  1.00  0.00     0.065 A 
ENDROOT
BRANCH   4   6
HETATM    6  N1  UNK     1      27.797  -7.819  37.742  1.00  0.00    -0.316 N 
HETATM    7  C12 UNK     1      27.200  -7.789  38.994  1.00  0.00     0.262 C 
HETATM    8  O6  UNK     1      27.666  -8.145  40.075  1.00  0.00    -0.267 OA
HETATM    9  H4  UNK     1      27.266  -7.490  36.941  1.00  0.00     0.169 HD
BRANCH   7  10
HETATM   10  C10 UNK     1      25.837  -7.247  38.937  1.00  0.00     0.108 A 
HETATM   11  C15 UNK     1      24.842  -8.133  39.069  1.00  0.00     0.037 A 
HETATM   12  C14 UNK     1      23.456  -7.692  39.026  1.00  0.00     0.001 A 
HETATM   13  C16 UNK     1      23.187  -6.339  38.847  1.00  0.00     0.089 A 
HETATM   14  C20 UNK     1      22.387  -8.581  39.157  1.00  0.00     0.038 A 
HETATM   15  O2  UNK     1      24.237  -5.411  38.710  1.00  0.00    -0.274 OA
HETATM   16  C21 UNK     1      21.882  -5.851  38.797  1.00  0.00     0.040 A 
HETATM   17  C19 UNK     1      25.573  -5.804  38.746  1.00  0.00     0.304 A 
HETATM   18  O7  UNK     1      26.481  -4.989  38.627  1.00  0.00    -0.259 OA
HETATM   19  C23 UNK     1      20.821  -6.745  38.929  1.00  0.00     0.026 A 
HETATM   20  C22 UNK     1      21.073  -8.107  39.110  1.00  0.00     0.035 A 
HETATM   21 Cl1  UNK     1      19.758  -9.206  39.273  1.00  0.00    -0.084 Cl
ENDBRANCH   7  10
ENDBRANCH   4   6
BRANCH   3  22
HETATM   22  C8  UNK     1      29.852  -6.620  35.789  1.00  0.00     0.297 C 
HETATM   23  O5  UNK     1      29.785  -6.638  34.551  1.00  0.00    -0.259 OA
BRANCH  22  24
HETATM   24  O1  UNK     1      29.741  -5.454  36.514  1.00  0.00    -0.317 OA
BRANCH  24  25
HETATM   25  C17 UNK     1      30.963  -4.799  36.876  1.00  0.00     0.178 C 
BRANCH  25  26
HETATM   26  C18 UNK     1      31.107  -4.830  38.389  1.00  0.00     0.022 C 
HETATM   27  C24 UNK     1      29.776  -4.622  39.089  1.00  0.00     0.007 C 
ENDBRANCH  25  26
ENDBRANCH  24  25
ENDBRANCH  22  24
ENDBRANCH   3  22
BRANCH   2  28
HETATM   28  C3  UNK     1      32.446  -8.396  35.873  1.00  0.00    -0.021 A 
HETATM   29  C6  UNK     1      33.334  -7.381  36.230  1.00  0.00     0.052 A 
HETATM   30  C9  UNK     1      34.506  -7.191  35.499  1.00  0.00     0.102 A 
HETATM   31  C11 UNK     1      34.791  -8.015  34.410  1.00  0.00     0.101 A 
HETATM   32  C13 UNK     1      33.903  -9.031  34.053  1.00  0.00     0.040 A 
HETATM   33  C7  UNK     1      32.731  -9.221  34.785  1.00  0.00     0.015 A 
BRANCH  30  34
HETATM   34  O3  UNK     1      35.366  -6.196  35.856  1.00  0.00    -0.353 OA
HETATM   35  C25 UNK     1      34.916  -4.855  35.673  1.00  0.00     0.210 C 
ENDBRANCH  30  34
BRANCH  31  36
HETATM   36  O4  UNK     1      35.933  -7.839  33.688  1.00  0.00    -0.353 OA
HETATM   37  C26 UNK     1      35.812  -7.874  32.268  1.00  0.00     0.210 C 
ENDBRANCH  31  36
ENDBRANCH   2  28
TORSDOF 9
ENDMDL
MODEL 9
REMARK VINA RESULT:      -8.1      9.448     12.819
REMARK  9 active torsions:
REMARK  status: ('A' for Active; 'I' for Inactive)
REMARK    1  A    between atoms: C17_27  and  O1_3 
REMARK    2  A    between atoms: C8_18  and  O1_3 
REMARK    3  A    between atoms: C9_19  and  O3_5 
REMARK    4  A    between atoms: C11_21  and  O4_6 
REMARK       I    between atoms: C12_22  and  N1_10 
REMARK    5  A    between atoms: C4_14  and  N1_10 
REMARK    6  A    between atoms: C1_11  and  C3_13 
REMARK    7  A    between atoms: C2_12  and  C8_18 
REMARK    8  A    between atoms: C10_20  and  C12_22 
REMARK    9  A    between atoms: C17_27  and  C18_28 
ROOT
HETATM    1  S1  UNK     1      27.229 -10.211  39.583  1.00  0.00    -0.082 SA
HETATM    2  C1  UNK     1      29.044  -8.957  38.268  1.00  0.00    -0.000 A 
HETATM    3  C2  UNK     1      27.811  -8.322  37.943  1.00  0.00     0.085 A 
HETATM    4  C4  UNK     1      26.743  -8.905  38.588  1.00  0.00     0.094 A 
HETATM    5  C5  UNK     1      28.872 -10.000  39.151  1.00  0.00     0.065 A 
ENDROOT
BRANCH   4   6
HETATM    6  N1  UNK     1      25.376  -8.611  38.564  1.00  0.00    -0.316 N 
HETATM    7  C12 UNK     1      24.473  -8.998  37.585  1.00  0.00     0.262 C 
HETATM    8  O6  UNK     1      24.681  -9.659  36.568  1.00  0.00    -0.267 OA
HETATM    9  H4  UNK     1      25.040  -8.055  39.345  1.00  0.00     0.169 HD
BRANCH   7  10
HETATM   10  C10 UNK     1      23.116  -8.518  37.871  1.00  0.00     0.108 A 
HETATM   11  C15 UNK     1      22.271  -8.479  36.834  1.00  0.00     0.037 A 
HETATM   12  C14 UNK     1      20.904  -8.017  37.019  1.00  0.00     0.001 A 
HETATM   13  C16 UNK     1      20.494  -7.621  38.288  1.00  0.00     0.089 A 
HETATM   14  C20 UNK     1      19.989  -7.959  35.965  1.00  0.00     0.038 A 
HETATM   15  O2  UNK     1      21.387  -7.665  39.375  1.00  0.00    -0.274 OA
HETATM   16  C21 UNK     1      19.198  -7.169  38.532  1.00  0.00     0.040 A 
HETATM   17  C19 UNK     1      22.701  -8.101  39.229  1.00  0.00     0.304 A 
HETATM   18  O7  UNK     1      23.472  -8.137  40.182  1.00  0.00    -0.259 OA
HETATM   19  C23 UNK     1      18.292  -7.113  37.476  1.00  0.00     0.026 A 
HETATM   20  C22 UNK     1      18.686  -7.508  36.195  1.00  0.00     0.035 A 
HETATM   21 Cl1  UNK     1      17.561  -7.438  34.894  1.00  0.00    -0.084 Cl
ENDBRANCH   7  10
ENDBRANCH   4   6
BRANCH   3  22
HETATM   22  C8  UNK     1      27.655  -7.202  37.047  1.00  0.00     0.297 C 
HETATM   23  O5  UNK     1      27.817  -7.270  35.821  1.00  0.00    -0.259 OA
BRANCH  22  24
HETATM   24  O1  UNK     1      27.306  -6.028  37.678  1.00  0.00    -0.317 OA
BRANCH  24  25
HETATM   25  C17 UNK     1      28.023  -5.699  38.874  1.00  0.00     0.178 C 
BRANCH  25  26
HETATM   26  C18 UNK     1      28.691  -4.346  38.690  1.00  0.00     0.022 C 
HETATM   27  C24 UNK     1      30.200  -4.469  38.588  1.00  0.00     0.007 C 
ENDBRANCH  25  26
ENDBRANCH  24  25
ENDBRANCH  22  24
ENDBRANCH   3  22
BRANCH   2  28
HETATM   28  C3  UNK     1      30.360  -8.624  37.787  1.00  0.00    -0.021 A 
HETATM   29  C6  UNK     1      30.779  -9.072  36.535  1.00  0.00     0.052 A 
HETATM   30  C9  UNK     1      32.054  -8.752  36.069  1.00  0.00     0.102 A 
HETATM   31  C11 UNK     1      32.910  -7.981  36.856  1.00  0.00     0.101 A 
HETATM   32  C13 UNK     1      32.491  -7.531  38.108  1.00  0.00     0.040 A 
HETATM   33  C7  UNK     1      31.216  -7.852  38.574  1.00  0.00     0.015 A 
BRANCH  30  34
HETATM   34  O3  UNK     1      32.452  -9.196  34.845  1.00  0.00    -0.353 OA
HETATM   35  C25 UNK     1      32.209 -10.569  34.544  1.00  0.00     0.210 C 
ENDBRANCH  30  34
BRANCH  31  36
HETATM   36  O4  UNK     1      34.158  -7.661  36.412  1.00  0.00    -0.353 OA
HETATM   37  C26 UNK     1      34.626  -6.343  36.690  1.00  0.00     0.210 C 
ENDBRANCH  31  36
ENDBRANCH   2  28
TORSDOF 9
ENDMDL
MODEL 10
REMARK VINA RESULT:      -8.1      5.678     12.462
REMARK  9 active torsions:
REMARK  status: ('A' for Active; 'I' for Inactive)
REMARK    1  A    between atoms: C17_27  and  O1_3 
REMARK    2  A    between atoms: C8_18  and  O1_3 
REMARK    3  A    between atoms: C9_19  and  O3_5 
REMARK    4  A    between atoms: C11_21  and  O4_6 
REMARK       I    between atoms: C12_22  and  N1_10 
REMARK    5  A    between atoms: C4_14  and  N1_10 
REMARK    6  A    between atoms: C1_11  and  C3_13 
REMARK    7  A    between atoms: C2_12  and  C8_18 
REMARK    8  A    between atoms: C10_20  and  C12_22 
REMARK    9  A    between atoms: C17_27  and  C18_28 
ROOT
HETATM    1  S1  UNK     1      15.133   7.380  31.598  1.00  0.00    -0.082 SA
HETATM    2  C1  UNK     1      15.598   9.001  33.536  1.00  0.00    -0.000 A 
HETATM    3  C2  UNK     1      16.402   7.852  33.781  1.00  0.00     0.085 A 
HETATM    4  C4  UNK     1      16.246   6.893  32.805  1.00  0.00     0.094 A 
HETATM    5  C5  UNK     1      14.857   8.878  32.381  1.00  0.00     0.065 A 
ENDROOT
BRANCH   4   6
HETATM    6  N1  UNK     1      16.829   5.632  32.645  1.00  0.00    -0.316 N 
HETATM    7  C12 UNK     1      17.883   5.319  31.799  1.00  0.00     0.262 C 
HETATM    8  O6  UNK     1      18.503   6.061  31.039  1.00  0.00    -0.267 OA
HETATM    9  H4  UNK     1      16.419   4.892  33.208  1.00  0.00     0.169 HD
BRANCH   7  10
HETATM   10  C10 UNK     1      18.245   3.899  31.879  1.00  0.00     0.108 A 
HETATM   11  C15 UNK     1      18.507   3.289  30.716  1.00  0.00     0.037 A 
HETATM   12  C14 UNK     1      18.876   1.881  30.694  1.00  0.00     0.001 A 
HETATM   13  C16 UNK     1      18.950   1.186  31.896  1.00  0.00     0.089 A 
HETATM   14  C20 UNK     1      19.157   1.204  29.504  1.00  0.00     0.038 A 
HETATM   15  O2  UNK     1      18.673   1.833  33.116  1.00  0.00    -0.274 OA
HETATM   16  C21 UNK     1      19.297  -0.163  31.943  1.00  0.00     0.040 A 
HETATM   17  C19 UNK     1      18.317   3.178  33.169  1.00  0.00     0.304 A 
HETATM   18  O7  UNK     1      18.078   3.734  34.236  1.00  0.00    -0.259 OA
HETATM   19  C23 UNK     1      19.575  -0.831  30.753  1.00  0.00     0.026 A 
HETATM   20  C22 UNK     1      19.507  -0.149  29.536  1.00  0.00     0.035 A 
HETATM   21 Cl1  UNK     1      19.853  -0.979  28.068  1.00  0.00    -0.084 Cl
ENDBRANCH   7  10
ENDBRANCH   4   6
BRANCH   3  22
HETATM   22  C8  UNK     1      17.288   7.671  34.906  1.00  0.00     0.297 C 
HETATM   23  O5  UNK     1      16.982   7.943  36.076  1.00  0.00    -0.259 OA
BRANCH  22  24
HETATM   24  O1  UNK     1      18.523   7.165  34.567  1.00  0.00    -0.317 OA
BRANCH  24  25
HETATM   25  C17 UNK     1      19.383   8.018  33.801  1.00  0.00     0.178 C 
BRANCH  25  26
HETATM   26  C18 UNK     1      19.542   9.341  34.532  1.00  0.00     0.022 C 
HETATM   27  C24 UNK     1      20.990   9.796  34.569  1.00  0.00     0.007 C 
ENDBRANCH  25  26
ENDBRANCH  24  25
ENDBRANCH  22  24
ENDBRANCH   3  22
BRANCH   2  28
HETATM   28  C3  UNK     1      15.500  10.195  34.335  1.00  0.00    -0.021 A 
HETATM   29  C6  UNK     1      16.447  11.209  34.193  1.00  0.00     0.052 A 
HETATM   30  C9  UNK     1      16.354  12.365  34.968  1.00  0.00     0.102 A 
HETATM   31  C11 UNK     1      15.314  12.507  35.886  1.00  0.00     0.101 A 
HETATM   32  C13 UNK     1      14.366  11.493  36.029  1.00  0.00     0.040 A 
HETATM   33  C7  UNK     1      14.459  10.337  35.253  1.00  0.00     0.015 A 
BRANCH  30  34
HETATM   34  O3  UNK     1      17.285  13.348  34.820  1.00  0.00    -0.353 OA
HETATM   35  C25 UNK     1      18.243  13.182  33.776  1.00  0.00     0.210 C 
ENDBRANCH  30  34
BRANCH  31  36
HETATM   36  O4  UNK     1      15.212  13.631  36.650  1.00  0.00    -0.353 OA
HETATM   37  C26 UNK     1      14.001  14.376  36.547  1.00  0.00     0.210 C 
ENDBRANCH  31  36
ENDBRANCH   2  28
TORSDOF 9
ENDMDL
