MODEL 1
REMARK VINA RESULT:      -9.8      0.000      0.000
REMARK  4 active torsions:
REMARK  status: ('A' for Active; 'I' for Inactive)
REMARK    1  A    between atoms: C7_15  and  S1_1 
REMARK    2  A    between atoms: N1_7  and  S1_1 
REMARK    3  A    between atoms: C12_20  and  N2_8 
REMARK       I    between atoms: C13_21  and  N2_8 
REMARK    4  A    between atoms: C13_21  and  C14_22 
ROOT
HETATM    1  C7  UNK     1      20.604  -5.659  37.652  1.00  0.00     0.074 A 
HETATM    2  C8  UNK     1      20.075  -6.021  36.424  1.00  0.00     0.027 A 
HETATM    3  C9  UNK     1      20.873  -4.336  37.959  1.00  0.00     0.027 A 
HETATM    4  C10 UNK     1      19.807  -5.032  35.478  1.00  0.00     0.031 A 
HETATM    5  C11 UNK     1      20.607  -3.347  37.014  1.00  0.00     0.031 A 
HETATM    6  C12 UNK     1      20.073  -3.694  35.773  1.00  0.00     0.035 A 
ENDROOT
BRANCH   6   7
HETATM    7  N2  UNK     1      19.805  -2.704  34.827  1.00  0.00    -0.323 N 
HETATM    8  C13 UNK     1      18.899  -1.644  34.928  1.00  0.00     0.262 C 
HETATM    9  O4  UNK     1      18.157  -1.368  35.863  1.00  0.00    -0.267 OA
HETATM   10  H17 UNK     1      20.360  -2.774  33.979  1.00  0.00     0.169 HD
BRANCH   8  11
HETATM   11  C14 UNK     1      18.889  -0.793  33.720  1.00  0.00     0.108 A 
HETATM   12  C16 UNK     1      19.443  -1.319  32.622  1.00  0.00     0.037 A 
HETATM   13  C15 UNK     1      19.482  -0.558  31.383  1.00  0.00    -0.001 A 
HETATM   14  C17 UNK     1      18.932   0.720  31.361  1.00  0.00     0.089 A 
HETATM   15  C19 UNK     1      20.051  -1.068  30.214  1.00  0.00     0.014 A 
HETATM   16  O3  UNK     1      18.349   1.268  32.520  1.00  0.00    -0.274 OA
HETATM   17  C20 UNK     1      18.937   1.500  30.207  1.00  0.00     0.038 A 
HETATM   18  C18 UNK     1      18.297   0.564  33.720  1.00  0.00     0.304 A 
HETATM   19  O5  UNK     1      17.788   1.049  34.724  1.00  0.00    -0.259 OA
HETATM   20  C22 UNK     1      19.507   0.985  29.045  1.00  0.00     0.003 A 
HETATM   21  C21 UNK     1      20.063  -0.296  29.047  1.00  0.00     0.001 A 
ENDBRANCH   8  11
ENDBRANCH   6   7
BRANCH   1  22
HETATM   22  S1  UNK     1      20.942  -6.911  38.850  1.00  0.00     0.243 S 
HETATM   23  O1  UNK     1      22.129  -6.519  39.577  1.00  0.00    -0.206 OA
HETATM   24  O2  UNK     1      19.708  -7.213  39.540  1.00  0.00    -0.206 OA
BRANCH  22  25
HETATM   25  N1  UNK     1      21.330  -8.219  37.811  1.00  0.00    -0.206 NA
HETATM   26  C4  UNK     1      22.788  -8.465  37.615  1.00  0.00     0.108 C 
HETATM   27  C2  UNK     1      22.994  -9.400  36.426  1.00  0.00     0.020 C 
HETATM   28  C1  UNK     1      22.232 -10.718  36.614  1.00  0.00    -0.016 C 
HETATM   29  C3  UNK     1      20.750 -10.432  36.890  1.00  0.00     0.020 C 
HETATM   30  C6  UNK     1      22.395 -11.618  35.393  1.00  0.00     0.010 C 
HETATM   31  C5  UNK     1      20.578  -9.481  38.070  1.00  0.00     0.108 C 
ENDBRANCH  22  25
ENDBRANCH   1  22
TORSDOF 4
ENDMDL
MODEL 2
REMARK VINA RESULT:      -9.8      1.315      2.269
REMARK  4 active torsions:
REMARK  status: ('A' for Active; 'I' for Inactive)
REMARK    1  A    between atoms: C7_15  and  S1_1 
REMARK    2  A    between atoms: N1_7  and  S1_1 
REMARK    3  A    between atoms: C12_20  and  N2_8 
REMARK       I    between atoms: C13_21  and  N2_8 
REMARK    4  A    between atoms: C13_21  and  C14_22 
ROOT
HETATM    1  C7  UNK     1      20.578  -5.222  37.576  1.00  0.00     0.074 A 
HETATM    2  C8  UNK     1      20.761  -3.904  37.960  1.00  0.00     0.027 A 
HETATM    3  C9  UNK     1      20.107  -5.546  36.314  1.00  0.00     0.027 A 
HETATM    4  C10 UNK     1      20.464  -2.883  37.059  1.00  0.00     0.031 A 
HETATM    5  C11 UNK     1      19.809  -4.525  35.413  1.00  0.00     0.031 A 
HETATM    6  C12 UNK     1      19.988  -3.193  35.785  1.00  0.00     0.035 A 
ENDROOT
BRANCH   6   7
HETATM    7  N2  UNK     1      19.692  -2.171  34.882  1.00  0.00    -0.323 N 
HETATM    8  C13 UNK     1      18.614  -1.281  34.917  1.00  0.00     0.262 C 
HETATM    9  O4  UNK     1      17.712  -1.216  35.743  1.00  0.00    -0.267 OA
HETATM   10  H17 UNK     1      20.365  -2.072  34.127  1.00  0.00     0.169 HD
BRANCH   8  11
HETATM   11  C14 UNK     1      18.631  -0.330  33.786  1.00  0.00     0.108 A 
HETATM   12  C16 UNK     1      18.386   0.951  34.086  1.00  0.00     0.037 A 
HETATM   13  C15 UNK     1      18.379   1.961  33.040  1.00  0.00    -0.001 A 
HETATM   14  C17 UNK     1      18.634   1.573  31.728  1.00  0.00     0.089 A 
HETATM   15  C19 UNK     1      18.129   3.308  33.308  1.00  0.00     0.014 A 
HETATM   16  O3  UNK     1      18.892   0.223  31.418  1.00  0.00    -0.274 OA
HETATM   17  C20 UNK     1      18.642   2.491  30.680  1.00  0.00     0.038 A 
HETATM   18  C18 UNK     1      18.904  -0.766  32.398  1.00  0.00     0.304 A 
HETATM   19  O5  UNK     1      19.128  -1.938  32.118  1.00  0.00    -0.259 OA
HETATM   20  C22 UNK     1      18.390   3.834  30.956  1.00  0.00     0.003 A 
HETATM   21  C21 UNK     1      18.134   4.242  32.267  1.00  0.00     0.001 A 
ENDBRANCH   8  11
ENDBRANCH   6   7
BRANCH   1  22
HETATM   22  S1  UNK     1      20.955  -6.515  38.716  1.00  0.00     0.243 S 
HETATM   23  O1  UNK     1      22.241  -6.224  39.309  1.00  0.00    -0.206 OA
HETATM   24  O2  UNK     1      19.786  -6.739  39.539  1.00  0.00    -0.206 OA
BRANCH  22  25
HETATM   25  N1  UNK     1      21.127  -7.830  37.629  1.00  0.00    -0.206 NA
HETATM   26  C4  UNK     1      22.525  -8.306  37.422  1.00  0.00     0.108 C 
HETATM   27  C2  UNK     1      22.580  -9.217  36.199  1.00  0.00     0.020 C 
HETATM   28  C1  UNK     1      21.609 -10.397  36.337  1.00  0.00    -0.016 C 
HETATM   29  C3  UNK     1      20.193  -9.880  36.625  1.00  0.00     0.020 C 
HETATM   30  C6  UNK     1      21.627 -11.266  35.083  1.00  0.00     0.010 C 
HETATM   31  C5  UNK     1      20.175  -8.959  37.841  1.00  0.00     0.108 C 
ENDBRANCH  22  25
ENDBRANCH   1  22
TORSDOF 4
ENDMDL
MODEL 3
REMARK VINA RESULT:      -9.4     18.271     21.799
REMARK  4 active torsions:
REMARK  status: ('A' for Active; 'I' for Inactive)
REMARK    1  A    between atoms: C7_15  and  S1_1 
REMARK    2  A    between atoms: N1_7  and  S1_1 
REMARK    3  A    between atoms: C12_20  and  N2_8 
REMARK       I    between atoms: C13_21  and  N2_8 
REMARK    4  A    between atoms: C13_21  and  C14_22 
ROOT
HETATM    1  C7  UNK     1      20.918  -6.813  13.383  1.00  0.00     0.074 A 
HETATM    2  C8  UNK     1      21.170  -6.578  14.724  1.00  0.00     0.027 A 
HETATM    3  C9  UNK     1      20.396  -5.825  12.564  1.00  0.00     0.027 A 
HETATM    4  C10 UNK     1      20.894  -5.322  15.261  1.00  0.00     0.031 A 
HETATM    5  C11 UNK     1      20.119  -4.569  13.101  1.00  0.00     0.031 A 
HETATM    6  C12 UNK     1      20.368  -4.316  14.450  1.00  0.00     0.035 A 
ENDROOT
BRANCH   6   7
HETATM    7  N2  UNK     1      20.093  -3.059  14.987  1.00  0.00    -0.323 N 
HETATM    8  C13 UNK     1      18.905  -2.620  15.580  1.00  0.00     0.262 C 
HETATM    9  O4  UNK     1      17.866  -3.247  15.748  1.00  0.00    -0.267 OA
HETATM   10  H17 UNK     1      20.871  -2.407  14.946  1.00  0.00     0.169 HD
BRANCH   8  11
HETATM   11  C14 UNK     1      18.986  -1.217  16.035  1.00  0.00     0.108 A 
HETATM   12  C16 UNK     1      18.804  -1.009  17.345  1.00  0.00     0.037 A 
HETATM   13  C15 UNK     1      18.864   0.338  17.889  1.00  0.00    -0.001 A 
HETATM   14  C17 UNK     1      19.116   1.402  17.027  1.00  0.00     0.089 A 
HETATM   15  C19 UNK     1      18.681   0.602  19.248  1.00  0.00     0.014 A 
HETATM   16  O3  UNK     1      19.307   1.176  15.650  1.00  0.00    -0.274 OA
HETATM   17  C20 UNK     1      19.186   2.716  17.484  1.00  0.00     0.038 A 
HETATM   18  C18 UNK     1      19.255  -0.101  15.100  1.00  0.00     0.304 A 
HETATM   19  O5  UNK     1      19.422  -0.288  13.900  1.00  0.00    -0.259 OA
HETATM   20  C22 UNK     1      19.001   2.970  18.842  1.00  0.00     0.003 A 
HETATM   21  C21 UNK     1      18.749   1.916  19.722  1.00  0.00     0.001 A 
ENDBRANCH   8  11
ENDBRANCH   6   7
BRANCH   1  22
HETATM   22  S1  UNK     1      21.268  -8.403  12.702  1.00  0.00     0.243 S 
HETATM   23  O1  UNK     1      22.295  -9.018  13.514  1.00  0.00    -0.206 OA
HETATM   24  O2  UNK     1      20.008  -9.071  12.458  1.00  0.00    -0.206 OA
BRANCH  22  25
HETATM   25  N1  UNK     1      21.949  -7.940  11.198  1.00  0.00    -0.206 NA
HETATM   26  C4  UNK     1      23.393  -8.272  11.024  1.00  0.00     0.108 C 
HETATM   27  C2  UNK     1      23.953  -7.512   9.825  1.00  0.00     0.020 C 
HETATM   28  C1  UNK     1      23.158  -7.818   8.549  1.00  0.00    -0.016 C 
HETATM   29  C3  UNK     1      21.666  -7.540   8.781  1.00  0.00     0.020 C 
HETATM   30  C6  UNK     1      23.687  -7.006   7.371  1.00  0.00     0.010 C 
HETATM   31  C5  UNK     1      21.142  -8.298   9.996  1.00  0.00     0.108 C 
ENDBRANCH  22  25
ENDBRANCH   1  22
TORSDOF 4
ENDMDL
MODEL 4
REMARK VINA RESULT:      -9.4      3.034      4.687
REMARK  4 active torsions:
REMARK  status: ('A' for Active; 'I' for Inactive)
REMARK    1  A    between atoms: C7_15  and  S1_1 
REMARK    2  A    between atoms: N1_7  and  S1_1 
REMARK    3  A    between atoms: C12_20  and  N2_8 
REMARK       I    between atoms: C13_21  and  N2_8 
REMARK    4  A    between atoms: C13_21  and  C14_22 
ROOT
HETATM    1  C7  UNK     1      20.804  -8.983  36.074  1.00  0.00     0.074 A 
HETATM    2  C8  UNK     1      20.412  -8.310  37.219  1.00  0.00     0.027 A 
HETATM    3  C9  UNK     1      20.864  -8.344  34.846  1.00  0.00     0.027 A 
HETATM    4  C10 UNK     1      20.070  -6.961  37.134  1.00  0.00     0.031 A 
HETATM    5  C11 UNK     1      20.521  -6.996  34.761  1.00  0.00     0.031 A 
HETATM    6  C12 UNK     1      20.125  -6.304  35.905  1.00  0.00     0.035 A 
ENDROOT
BRANCH   6   7
HETATM    7  N2  UNK     1      19.784  -4.953  35.820  1.00  0.00    -0.323 N 
HETATM    8  C13 UNK     1      20.159  -3.918  36.682  1.00  0.00     0.262 C 
HETATM    9  O4  UNK     1      20.860  -3.983  37.684  1.00  0.00    -0.267 OA
HETATM   10  H17 UNK     1      19.207  -4.717  35.017  1.00  0.00     0.169 HD
BRANCH   8  11
HETATM   11  C14 UNK     1      19.603  -2.612  36.270  1.00  0.00     0.108 A 
HETATM   12  C16 UNK     1      18.895  -1.952  37.194  1.00  0.00     0.037 A 
HETATM   13  C15 UNK     1      18.307  -0.659  36.883  1.00  0.00    -0.001 A 
HETATM   14  C17 UNK     1      18.496  -0.122  35.613  1.00  0.00     0.089 A 
HETATM   15  C19 UNK     1      17.561   0.064  37.817  1.00  0.00     0.014 A 
HETATM   16  O3  UNK     1      19.242  -0.821  34.645  1.00  0.00    -0.274 OA
HETATM   17  C20 UNK     1      17.959   1.112  35.252  1.00  0.00     0.038 A 
HETATM   18  C18 UNK     1      19.816  -2.060  34.913  1.00  0.00     0.304 A 
HETATM   19  O5  UNK     1      20.464  -2.661  34.063  1.00  0.00    -0.259 OA
HETATM   20  C22 UNK     1      17.216   1.826  36.188  1.00  0.00     0.003 A 
HETATM   21  C21 UNK     1      17.016   1.304  37.469  1.00  0.00     0.001 A 
ENDBRANCH   8  11
ENDBRANCH   6   7
BRANCH   1  22
HETATM   22  S1  UNK     1      21.238 -10.691  36.181  1.00  0.00     0.243 S 
HETATM   23  O1  UNK     1      20.538 -11.257  37.313  1.00  0.00    -0.206 OA
HETATM   24  O2  UNK     1      21.111 -11.267  34.860  1.00  0.00    -0.206 OA
BRANCH  22  25
HETATM   25  N1  UNK     1      22.902 -10.552  36.567  1.00  0.00    -0.206 NA
HETATM   26  C4  UNK     1      23.818 -11.401  35.751  1.00  0.00     0.108 C 
HETATM   27  C2  UNK     1      25.193 -11.451  36.411  1.00  0.00     0.020 C 
HETATM   28  C1  UNK     1      25.772 -10.044  36.605  1.00  0.00    -0.016 C 
HETATM   29  C3  UNK     1      24.776  -9.170  37.381  1.00  0.00     0.020 C 
HETATM   30  C6  UNK     1      27.118 -10.103  37.322  1.00  0.00     0.010 C 
HETATM   31  C5  UNK     1      23.408  -9.155  36.707  1.00  0.00     0.108 C 
ENDBRANCH  22  25
ENDBRANCH   1  22
TORSDOF 4
ENDMDL
MODEL 5
REMARK VINA RESULT:      -9.3      3.017     10.054
REMARK  4 active torsions:
REMARK  status: ('A' for Active; 'I' for Inactive)
REMARK    1  A    between atoms: C7_15  and  S1_1 
REMARK    2  A    between atoms: N1_7  and  S1_1 
REMARK    3  A    between atoms: C12_20  and  N2_8 
REMARK       I    between atoms: C13_21  and  N2_8 
REMARK    4  A    between atoms: C13_21  and  C14_22 
ROOT
HETATM    1  C7  UNK     1      18.648   0.027  36.275  1.00  0.00     0.074 A 
HETATM    2  C8  UNK     1      19.798  -0.503  35.713  1.00  0.00     0.027 A 
HETATM    3  C9  UNK     1      17.706  -0.784  36.886  1.00  0.00     0.027 A 
HETATM    4  C10 UNK     1      20.012  -1.879  35.765  1.00  0.00     0.031 A 
HETATM    5  C11 UNK     1      17.920  -2.160  36.938  1.00  0.00     0.031 A 
HETATM    6  C12 UNK     1      19.073  -2.709  36.378  1.00  0.00     0.035 A 
ENDROOT
BRANCH   6   7
HETATM    7  N2  UNK     1      19.287  -4.086  36.431  1.00  0.00    -0.323 N 
HETATM    8  C13 UNK     1      20.411  -4.762  36.917  1.00  0.00     0.262 C 
HETATM    9  O4  UNK     1      21.434  -4.285  37.392  1.00  0.00    -0.267 OA
HETATM   10  H17 UNK     1      18.512  -4.644  36.086  1.00  0.00     0.169 HD
BRANCH   8  11
HETATM   11  C14 UNK     1      20.277  -6.230  36.811  1.00  0.00     0.108 A 
HETATM   12  C16 UNK     1      20.058  -6.888  37.955  1.00  0.00     0.037 A 
HETATM   13  C15 UNK     1      19.914  -8.335  37.953  1.00  0.00    -0.001 A 
HETATM   14  C17 UNK     1      20.004  -9.018  36.744  1.00  0.00     0.089 A 
HETATM   15  C19 UNK     1      19.684  -9.062  39.123  1.00  0.00     0.014 A 
HETATM   16  O3  UNK     1      20.234  -8.320  35.543  1.00  0.00    -0.274 OA
HETATM   17  C20 UNK     1      19.874 -10.404  36.674  1.00  0.00     0.038 A 
HETATM   18  C18 UNK     1      20.377  -6.936  35.514  1.00  0.00     0.304 A 
HETATM   19  O5  UNK     1      20.578  -6.337  34.463  1.00  0.00    -0.259 OA
HETATM   20  C22 UNK     1      19.646 -11.122  37.846  1.00  0.00     0.003 A 
HETATM   21  C21 UNK     1      19.551 -10.453  39.068  1.00  0.00     0.001 A 
ENDBRANCH   8  11
ENDBRANCH   6   7
BRANCH   1  22
HETATM   22  S1  UNK     1      18.377   1.769  36.209  1.00  0.00     0.243 S 
HETATM   23  O1  UNK     1      17.005   2.019  36.591  1.00  0.00    -0.206 OA
HETATM   24  O2  UNK     1      19.473   2.417  36.895  1.00  0.00    -0.206 OA
BRANCH  22  25
HETATM   25  N1  UNK     1      18.544   2.033  34.524  1.00  0.00    -0.206 NA
HETATM   26  C4  UNK     1      18.100   0.905  33.656  1.00  0.00     0.108 C 
HETATM   27  C2  UNK     1      18.616   1.117  32.235  1.00  0.00     0.020 C 
HETATM   28  C1  UNK     1      18.153   2.465  31.668  1.00  0.00    -0.016 C 
HETATM   29  C3  UNK     1      18.556   3.600  32.619  1.00  0.00     0.020 C 
HETATM   30  C6  UNK     1      18.726   2.694  30.273  1.00  0.00     0.010 C 
HETATM   31  C5  UNK     1      18.042   3.350  34.033  1.00  0.00     0.108 C 
ENDBRANCH  22  25
ENDBRANCH   1  22
TORSDOF 4
ENDMDL
MODEL 6
REMARK VINA RESULT:      -9.2     18.340     21.472
REMARK  4 active torsions:
REMARK  status: ('A' for Active; 'I' for Inactive)
REMARK    1  A    between atoms: C7_15  and  S1_1 
REMARK    2  A    between atoms: N1_7  and  S1_1 
REMARK    3  A    between atoms: C12_20  and  N2_8 
REMARK       I    between atoms: C13_21  and  N2_8 
REMARK    4  A    between atoms: C13_21  and  C14_22 
ROOT
HETATM    1  C7  UNK     1      19.756  -6.724  12.698  1.00  0.00     0.074 A 
HETATM    2  C8  UNK     1      20.460  -6.521  13.872  1.00  0.00     0.027 A 
HETATM    3  C9  UNK     1      18.972  -5.724  12.145  1.00  0.00     0.027 A 
HETATM    4  C10 UNK     1      20.380  -5.284  14.511  1.00  0.00     0.031 A 
HETATM    5  C11 UNK     1      18.892  -4.488  12.784  1.00  0.00     0.031 A 
HETATM    6  C12 UNK     1      19.596  -4.267  13.967  1.00  0.00     0.035 A 
ENDROOT
BRANCH   6   7
HETATM    7  N2  UNK     1      19.516  -3.029  14.606  1.00  0.00    -0.323 N 
HETATM    8  C13 UNK     1      18.552  -2.596  15.521  1.00  0.00     0.262 C 
HETATM    9  O4  UNK     1      17.583  -3.211  15.948  1.00  0.00    -0.267 OA
HETATM   10  H17 UNK     1      20.272  -2.390  14.375  1.00  0.00     0.169 HD
BRANCH   8  11
HETATM   11  C14 UNK     1      18.797  -1.216  15.988  1.00  0.00     0.108 A 
HETATM   12  C16 UNK     1      18.626  -0.995  17.297  1.00  0.00     0.037 A 
HETATM   13  C15 UNK     1      18.843   0.332  17.851  1.00  0.00    -0.001 A 
HETATM   14  C17 UNK     1      19.231   1.362  17.000  1.00  0.00     0.089 A 
HETATM   15  C19 UNK     1      18.677   0.607  19.211  1.00  0.00     0.014 A 
HETATM   16  O3  UNK     1      19.409   1.123  15.624  1.00  0.00    -0.274 OA
HETATM   17  C20 UNK     1      19.454   2.655  17.468  1.00  0.00     0.038 A 
HETATM   18  C18 UNK     1      19.209  -0.135  15.064  1.00  0.00     0.304 A 
HETATM   19  O5  UNK     1      19.366  -0.333  13.864  1.00  0.00    -0.259 OA
HETATM   20  C22 UNK     1      19.286   2.922  18.825  1.00  0.00     0.003 A 
HETATM   21  C21 UNK     1      18.898   1.900  19.695  1.00  0.00     0.001 A 
ENDBRANCH   8  11
ENDBRANCH   6   7
BRANCH   1  22
HETATM   22  S1  UNK     1      19.857  -8.289  11.888  1.00  0.00     0.243 S 
HETATM   23  O1  UNK     1      19.227  -9.272  12.742  1.00  0.00    -0.206 OA
HETATM   24  O2  UNK     1      19.435  -8.110  10.517  1.00  0.00    -0.206 OA
BRANCH  22  25
HETATM   25  N1  UNK     1      21.554  -8.530  11.918  1.00  0.00    -0.206 NA
HETATM   26  C4  UNK     1      22.005  -9.807  12.542  1.00  0.00     0.108 C 
HETATM   27  C2  UNK     1      23.504  -9.740  12.820  1.00  0.00     0.020 C 
HETATM   28  C1  UNK     1      24.296  -9.441  11.541  1.00  0.00    -0.016 C 
HETATM   29  C3  UNK     1      23.761  -8.164  10.879  1.00  0.00     0.020 C 
HETATM   30  C6  UNK     1      25.787  -9.315  11.841  1.00  0.00     0.010 C 
HETATM   31  C5  UNK     1      22.259  -8.254  10.632  1.00  0.00     0.108 C 
ENDBRANCH  22  25
ENDBRANCH   1  22
TORSDOF 4
ENDMDL
MODEL 7
REMARK VINA RESULT:      -9.2      3.904     10.844
REMARK  4 active torsions:
REMARK  status: ('A' for Active; 'I' for Inactive)
REMARK    1  A    between atoms: C7_15  and  S1_1 
REMARK    2  A    between atoms: N1_7  and  S1_1 
REMARK    3  A    between atoms: C12_20  and  N2_8 
REMARK       I    between atoms: C13_21  and  N2_8 
REMARK    4  A    between atoms: C13_21  and  C14_22 
ROOT
HETATM    1  C7  UNK     1      18.570   1.360  31.775  1.00  0.00     0.074 A 
HETATM    2  C8  UNK     1      18.220   1.500  33.107  1.00  0.00     0.027 A 
HETATM    3  C9  UNK     1      19.111   0.179  31.292  1.00  0.00     0.027 A 
HETATM    4  C10 UNK     1      18.414   0.431  33.981  1.00  0.00     0.031 A 
HETATM    5  C11 UNK     1      19.306  -0.890  32.165  1.00  0.00     0.031 A 
HETATM    6  C12 UNK     1      18.958  -0.765  33.510  1.00  0.00     0.035 A 
ENDROOT
BRANCH   6   7
HETATM    7  N2  UNK     1      19.152  -1.835  34.383  1.00  0.00    -0.323 N 
HETATM    8  C13 UNK     1      20.334  -2.540  34.627  1.00  0.00     0.262 C 
HETATM    9  O4  UNK     1      21.438  -2.364  34.126  1.00  0.00    -0.267 OA
HETATM   10  H17 UNK     1      18.323  -2.105  34.906  1.00  0.00     0.169 HD
BRANCH   8  11
HETATM   11  C14 UNK     1      20.154  -3.617  35.624  1.00  0.00     0.108 A 
HETATM   12  C16 UNK     1      20.183  -4.869  35.153  1.00  0.00     0.037 A 
HETATM   13  C15 UNK     1      20.015  -5.996  36.057  1.00  0.00    -0.001 A 
HETATM   14  C17 UNK     1      19.826  -5.749  37.413  1.00  0.00     0.089 A 
HETATM   15  C19 UNK     1      20.038  -7.319  35.609  1.00  0.00     0.014 A 
HETATM   16  O3  UNK     1      19.797  -4.428  37.902  1.00  0.00    -0.274 OA
HETATM   17  C20 UNK     1      19.658  -6.783  38.331  1.00  0.00     0.038 A 
HETATM   18  C18 UNK     1      19.955  -3.330  37.062  1.00  0.00     0.304 A 
HETATM   19  O5  UNK     1      19.927  -2.184  37.497  1.00  0.00    -0.259 OA
HETATM   20  C22 UNK     1      19.682  -8.100  37.876  1.00  0.00     0.003 A 
HETATM   21  C21 UNK     1      19.871  -8.368  36.519  1.00  0.00     0.001 A 
ENDBRANCH   8  11
ENDBRANCH   6   7
BRANCH   1  22
HETATM   22  S1  UNK     1      18.323   2.713  30.669  1.00  0.00     0.243 S 
HETATM   23  O1  UNK     1      19.254   2.565  29.572  1.00  0.00    -0.206 OA
HETATM   24  O2  UNK     1      16.902   2.841  30.431  1.00  0.00    -0.206 OA
BRANCH  22  25
HETATM   25  N1  UNK     1      18.837   4.009  31.666  1.00  0.00    -0.206 NA
HETATM   26  C4  UNK     1      19.625   5.070  30.975  1.00  0.00     0.108 C 
HETATM   27  C2  UNK     1      20.306   5.960  32.012  1.00  0.00     0.020 C 
HETATM   28  C1  UNK     1      19.285   6.572  32.979  1.00  0.00    -0.016 C 
HETATM   29  C3  UNK     1      18.438   5.464  33.618  1.00  0.00     0.020 C 
HETATM   30  C6  UNK     1      19.983   7.409  34.048  1.00  0.00     0.010 C 
HETATM   31  C5  UNK     1      17.787   4.582  32.557  1.00  0.00     0.108 C 
ENDBRANCH  22  25
ENDBRANCH   1  22
TORSDOF 4
ENDMDL
MODEL 8
REMARK VINA RESULT:      -9.1     17.240     21.495
REMARK  4 active torsions:
REMARK  status: ('A' for Active; 'I' for Inactive)
REMARK    1  A    between atoms: C7_15  and  S1_1 
REMARK    2  A    between atoms: N1_7  and  S1_1 
REMARK    3  A    between atoms: C12_20  and  N2_8 
REMARK       I    between atoms: C13_21  and  N2_8 
REMARK    4  A    between atoms: C13_21  and  C14_22 
ROOT
HETATM    1  C7  UNK     1      20.545  -5.838  13.010  1.00  0.00     0.074 A 
HETATM    2  C8  UNK     1      20.253  -4.625  12.410  1.00  0.00     0.027 A 
HETATM    3  C9  UNK     1      20.652  -5.954  14.387  1.00  0.00     0.027 A 
HETATM    4  C10 UNK     1      20.063  -3.497  13.206  1.00  0.00     0.031 A 
HETATM    5  C11 UNK     1      20.462  -4.825  15.183  1.00  0.00     0.031 A 
HETATM    6  C12 UNK     1      20.167  -3.597  14.594  1.00  0.00     0.035 A 
ENDROOT
BRANCH   6   7
HETATM    7  N2  UNK     1      19.976  -2.468  15.391  1.00  0.00    -0.323 N 
HETATM    8  C13 UNK     1      18.784  -2.013  15.962  1.00  0.00     0.262 C 
HETATM    9  O4  UNK     1      17.666  -2.508  15.878  1.00  0.00    -0.267 OA
HETATM   10  H17 UNK     1      20.824  -1.941  15.580  1.00  0.00     0.169 HD
BRANCH   8  11
HETATM   11  C14 UNK     1      18.970  -0.776  16.748  1.00  0.00     0.108 A 
HETATM   12  C16 UNK     1      18.945  -0.912  18.079  1.00  0.00     0.037 A 
HETATM   13  C15 UNK     1      19.119   0.248  18.939  1.00  0.00    -0.001 A 
HETATM   14  C17 UNK     1      19.314   1.496  18.354  1.00  0.00     0.089 A 
HETATM   15  C19 UNK     1      19.101   0.153  20.332  1.00  0.00     0.014 A 
HETATM   16  O3  UNK     1      19.340   1.633  16.952  1.00  0.00    -0.274 OA
HETATM   17  C20 UNK     1      19.487   2.646  19.120  1.00  0.00     0.038 A 
HETATM   18  C18 UNK     1      19.176   0.541  16.104  1.00  0.00     0.304 A 
HETATM   19  O5  UNK     1      19.199   0.670  14.885  1.00  0.00    -0.259 OA
HETATM   20  C22 UNK     1      19.466   2.543  20.510  1.00  0.00     0.003 A 
HETATM   21  C21 UNK     1      19.273   1.299  21.115  1.00  0.00     0.001 A 
ENDBRANCH   8  11
ENDBRANCH   6   7
BRANCH   1  22
HETATM   22  S1  UNK     1      20.785  -7.267  12.002  1.00  0.00     0.243 S 
HETATM   23  O1  UNK     1      21.826  -6.964  11.045  1.00  0.00    -0.206 OA
HETATM   24  O2  UNK     1      20.883  -8.417  12.874  1.00  0.00    -0.206 OA
BRANCH  22  25
HETATM   25  N1  UNK     1      19.276  -7.315  11.190  1.00  0.00    -0.206 NA
HETATM   26  C4  UNK     1      19.343  -7.674   9.744  1.00  0.00     0.108 C 
HETATM   27  C2  UNK     1      18.013  -7.343   9.073  1.00  0.00     0.020 C 
HETATM   28  C1  UNK     1      16.845  -8.057   9.765  1.00  0.00    -0.016 C 
HETATM   29  C3  UNK     1      16.846  -7.731  11.265  1.00  0.00     0.020 C 
HETATM   30  C6  UNK     1      15.515  -7.671   9.125  1.00  0.00     0.010 C 
HETATM   31  C5  UNK     1      18.194  -8.054  11.902  1.00  0.00     0.108 C 
ENDBRANCH  22  25
ENDBRANCH   1  22
TORSDOF 4
ENDMDL
MODEL 9
REMARK VINA RESULT:      -9.1     27.722     30.593
REMARK  4 active torsions:
REMARK  status: ('A' for Active; 'I' for Inactive)
REMARK    1  A    between atoms: C7_15  and  S1_1 
REMARK    2  A    between atoms: N1_7  and  S1_1 
REMARK    3  A    between atoms: C12_20  and  N2_8 
REMARK       I    between atoms: C13_21  and  N2_8 
REMARK    4  A    between atoms: C13_21  and  C14_22 
ROOT
HETATM    1  C7  UNK     1      18.136  11.586   8.821  1.00  0.00     0.074 A 
HETATM    2  C8  UNK     1      17.236  11.924   7.824  1.00  0.00     0.027 A 
HETATM    3  C9  UNK     1      17.829  10.631   9.776  1.00  0.00     0.027 A 
HETATM    4  C10 UNK     1      15.995  11.290   7.781  1.00  0.00     0.031 A 
HETATM    5  C11 UNK     1      16.588   9.998   9.734  1.00  0.00     0.031 A 
HETATM    6  C12 UNK     1      15.671  10.326   8.736  1.00  0.00     0.035 A 
ENDROOT
BRANCH   6   7
HETATM    7  N2  UNK     1      14.429   9.691   8.693  1.00  0.00    -0.323 N 
HETATM    8  C13 UNK     1      14.150   8.338   8.909  1.00  0.00     0.262 C 
HETATM    9  O4  UNK     1      14.934   7.437   9.178  1.00  0.00    -0.267 OA
HETATM   10  H17 UNK     1      13.648  10.311   8.496  1.00  0.00     0.169 HD
BRANCH   8  11
HETATM   11  C14 UNK     1      12.710   8.032   8.779  1.00  0.00     0.108 A 
HETATM   12  C16 UNK     1      12.340   7.386   7.666  1.00  0.00     0.037 A 
HETATM   13  C15 UNK     1      10.945   7.042   7.448  1.00  0.00    -0.001 A 
HETATM   14  C17 UNK     1      10.006   7.391   8.413  1.00  0.00     0.089 A 
HETATM   15  C19 UNK     1      10.515   6.368   6.302  1.00  0.00     0.014 A 
HETATM   16  O3  UNK     1      10.401   8.070   9.582  1.00  0.00    -0.274 OA
HETATM   17  C20 UNK     1       8.654   7.090   8.264  1.00  0.00     0.038 A 
HETATM   18  C18 UNK     1      11.728   8.414   9.819  1.00  0.00     0.304 A 
HETATM   19  O5  UNK     1      12.063   9.006  10.840  1.00  0.00    -0.259 OA
HETATM   20  C22 UNK     1       8.233   6.419   7.118  1.00  0.00     0.003 A 
HETATM   21  C21 UNK     1       9.161   6.059   6.138  1.00  0.00     0.001 A 
ENDBRANCH   8  11
ENDBRANCH   6   7
BRANCH   1  22
HETATM   22  S1  UNK     1      19.708  12.388   8.875  1.00  0.00     0.243 S 
HETATM   23  O1  UNK     1      20.687  11.482   8.317  1.00  0.00    -0.206 OA
HETATM   24  O2  UNK     1      19.544  13.726   8.352  1.00  0.00    -0.206 OA
BRANCH  22  25
HETATM   25  N1  UNK     1      19.936  12.480  10.572  1.00  0.00    -0.206 NA
HETATM   26  C4  UNK     1      21.354  12.416  11.028  1.00  0.00     0.108 C 
HETATM   27  C2  UNK     1      21.398  12.156  12.531  1.00  0.00     0.020 C 
HETATM   28  C1  UNK     1      20.617  13.226  13.305  1.00  0.00    -0.016 C 
HETATM   29  C3  UNK     1      19.184  13.324  12.764  1.00  0.00     0.020 C 
HETATM   30  C6  UNK     1      20.615  12.922  14.801  1.00  0.00     0.010 C 
HETATM   31  C5  UNK     1      19.174  13.564  11.258  1.00  0.00     0.108 C 
ENDBRANCH  22  25
ENDBRANCH   1  22
TORSDOF 4
ENDMDL
MODEL 10
REMARK VINA RESULT:      -9.1     28.671     31.606
REMARK  4 active torsions:
REMARK  status: ('A' for Active; 'I' for Inactive)
REMARK    1  A    between atoms: C7_15  and  S1_1 
REMARK    2  A    between atoms: N1_7  and  S1_1 
REMARK    3  A    between atoms: C12_20  and  N2_8 
REMARK       I    between atoms: C13_21  and  N2_8 
REMARK    4  A    between atoms: C13_21  and  C14_22 
ROOT
HETATM    1  C7  UNK     1      14.934   8.910   9.690  1.00  0.00     0.074 A 
HETATM    2  C8  UNK     1      14.553   9.597   8.549  1.00  0.00     0.027 A 
HETATM    3  C9  UNK     1      16.138   9.174  10.322  1.00  0.00     0.027 A 
HETATM    4  C10 UNK     1      15.399  10.574   8.026  1.00  0.00     0.031 A 
HETATM    5  C11 UNK     1      16.984  10.150   9.799  1.00  0.00     0.031 A 
HETATM    6  C12 UNK     1      16.615  10.851   8.651  1.00  0.00     0.035 A 
ENDROOT
BRANCH   6   7
HETATM    7  N2  UNK     1      17.462  11.830   8.129  1.00  0.00    -0.323 N 
HETATM    8  C13 UNK     1      18.758  11.666   7.630  1.00  0.00     0.262 C 
HETATM    9  O4  UNK     1      19.414  10.635   7.551  1.00  0.00    -0.267 OA
HETATM   10  H17 UNK     1      17.057  12.761   8.102  1.00  0.00     0.169 HD
BRANCH   8  11
HETATM   11  C14 UNK     1      19.346  12.937   7.159  1.00  0.00     0.108 A 
HETATM   12  C16 UNK     1      20.625  13.154   7.487  1.00  0.00     0.037 A 
HETATM   13  C15 UNK     1      21.291  14.377   7.070  1.00  0.00    -0.001 A 
HETATM   14  C17 UNK     1      20.579  15.312   6.325  1.00  0.00     0.089 A 
HETATM   15  C19 UNK     1      22.625  14.645   7.389  1.00  0.00     0.014 A 
HETATM   16  O3  UNK     1      19.233  15.078   5.983  1.00  0.00    -0.274 OA
HETATM   17  C20 UNK     1      21.159  16.503   5.895  1.00  0.00     0.038 A 
HETATM   18  C18 UNK     1      18.568  13.917   6.368  1.00  0.00     0.304 A 
HETATM   19  O5  UNK     1      17.396  13.722   6.066  1.00  0.00    -0.259 OA
HETATM   20  C22 UNK     1      22.489  16.763   6.218  1.00  0.00     0.003 A 
HETATM   21  C21 UNK     1      23.221  15.837   6.964  1.00  0.00     0.001 A 
ENDBRANCH   8  11
ENDBRANCH   6   7
BRANCH   1  22
HETATM   22  S1  UNK     1      13.863   7.673  10.352  1.00  0.00     0.243 S 
HETATM   23  O1  UNK     1      14.660   6.499  10.630  1.00  0.00    -0.206 OA
HETATM   24  O2  UNK     1      13.054   8.289  11.381  1.00  0.00    -0.206 OA
BRANCH  22  25
HETATM   25  N1  UNK     1      12.878   7.368   8.982  1.00  0.00    -0.206 NA
HETATM   26  C4  UNK     1      13.185   6.107   8.246  1.00  0.00     0.108 C 
HETATM   27  C2  UNK     1      12.497   6.129   6.884  1.00  0.00     0.020 C 
HETATM   28  C1  UNK     1      10.983   6.331   7.027  1.00  0.00    -0.016 C 
HETATM   29  C3  UNK     1      10.698   7.593   7.852  1.00  0.00     0.020 C 
HETATM   30  C6  UNK     1      10.314   6.413   5.657  1.00  0.00     0.010 C 
HETATM   31  C5  UNK     1      11.413   7.549   9.199  1.00  0.00     0.108 C 
ENDBRANCH  22  25
ENDBRANCH   1  22
TORSDOF 4
ENDMDL
