MODEL 1
REMARK VINA RESULT:      -8.2      0.000      0.000
REMARK  5 active torsions:
REMARK  status: ('A' for Active; 'I' for Inactive)
REMARK    1  A    between atoms: C12_19  and  O3_3 
REMARK    2  A    between atoms: C18_25  and  O3_3 
REMARK    3  A    between atoms: C17_24  and  O5_5 
REMARK    4  A    between atoms: C8_15  and  N1_6 
REMARK    5  A    between atoms: C1_8  and  C3_10 
ROOT
HETATM    1  O1  UNK     1      17.853   2.371  31.085  1.00  0.00    -0.269 OA
HETATM    2  O2  UNK     1      17.627   1.226  33.117  1.00  0.00    -0.286 OA
HETATM    3  O4  UNK     1      19.294   4.312  35.179  1.00  0.00    -0.287 OA
HETATM    4  N2  UNK     1      19.969   6.320  29.315  1.00  0.00    -0.191 NA
HETATM    5  C1  UNK     1      18.958   4.702  32.335  1.00  0.00     0.109 C 
HETATM    6  C2  UNK     1      18.552   3.454  33.088  1.00  0.00     0.065 A 
HETATM    7  C4  UNK     1      18.924   4.494  30.827  1.00  0.00     0.086 C 
HETATM    8  C5  UNK     1      18.029   2.381  32.463  1.00  0.00     0.204 A 
HETATM    9  C6  UNK     1      18.768   3.398  34.559  1.00  0.00     0.197 A 
HETATM   10  C7  UNK     1      18.315   2.177  35.239  1.00  0.00     0.049 A 
HETATM   11  C8  UNK     1      18.385   3.380  30.284  1.00  0.00     0.162 C 
HETATM   12  C10 UNK     1      17.764   1.151  34.477  1.00  0.00     0.095 A 
HETATM   13  C13 UNK     1      18.434   2.042  36.625  1.00  0.00     0.021 A 
HETATM   14  C15 UNK     1      17.327  -0.021  35.097  1.00  0.00     0.075 A 
HETATM   15  C17 UNK     1      17.444  -0.160  36.481  1.00  0.00     0.070 A 
HETATM   16  C19 UNK     1      19.501   5.504  29.991  1.00  0.00     0.100 C 
HETATM   17  C20 UNK     1      17.997   0.870  37.243  1.00  0.00     0.038 A 
ENDROOT
BRANCH   5  18
HETATM   18  C3  UNK     1      18.079   5.856  32.720  1.00  0.00    -0.041 A 
HETATM   19  C11 UNK     1      16.749   5.874  32.313  1.00  0.00     0.008 A 
HETATM   20  C14 UNK     1      15.933   6.946  32.672  1.00  0.00     0.003 A 
HETATM   21  C16 UNK     1      16.450   7.994  33.433  1.00  0.00     0.037 A 
HETATM   22  C12 UNK     1      17.785   7.970  33.837  1.00  0.00     0.069 A 
HETATM   23  C9  UNK     1      18.603   6.897  33.479  1.00  0.00     0.044 A 
BRANCH  22  24
HETATM   24  O3  UNK     1      18.291   8.992  34.580  1.00  0.00    -0.347 OA
BRANCH  24  25
HETATM   25  C18 UNK     1      19.210   9.871  33.934  1.00  0.00     0.120 C 
HETATM   26  C21 UNK     1      18.698  11.300  34.045  1.00  0.00     0.040 C 
HETATM   27  C22 UNK     1      20.583   9.711  34.566  1.00  0.00     0.040 C 
ENDBRANCH  24  25
ENDBRANCH  22  24
ENDBRANCH   5  18
BRANCH  11  28
HETATM   28  N1  UNK     1      18.302   3.118  28.943  1.00  0.00    -0.379 N 
HETATM   29  H10 UNK     1      17.972   2.223  28.607  1.00  0.00     0.158 HD
HETATM   30  H11 UNK     1      18.582   3.836  28.288  1.00  0.00     0.158 HD
ENDBRANCH  11  28
BRANCH  15  31
HETATM   31  O5  UNK     1      17.019  -1.302  37.087  1.00  0.00    -0.356 OA
HETATM   32  C23 UNK     1      17.875  -2.440  37.003  1.00  0.00     0.210 C 
ENDBRANCH  15  31
TORSDOF 5
ENDMDL
MODEL 2
REMARK VINA RESULT:      -8.1     16.123     18.156
REMARK  5 active torsions:
REMARK  status: ('A' for Active; 'I' for Inactive)
REMARK    1  A    between atoms: C12_19  and  O3_3 
REMARK    2  A    between atoms: C18_25  and  O3_3 
REMARK    3  A    between atoms: C17_24  and  O5_5 
REMARK    4  A    between atoms: C8_15  and  N1_6 
REMARK    5  A    between atoms: C1_8  and  C3_10 
ROOT
HETATM    1  O1  UNK     1      29.278  -8.103  35.920  1.00  0.00    -0.269 OA
HETATM    2  O2  UNK     1      28.922  -8.456  33.631  1.00  0.00    -0.286 OA
HETATM    3  O4  UNK     1      30.410  -4.782  32.710  1.00  0.00    -0.287 OA
HETATM    4  N2  UNK     1      30.473  -4.545  38.940  1.00  0.00    -0.191 NA
HETATM    5  C1  UNK     1      30.453  -5.521  35.504  1.00  0.00     0.109 C 
HETATM    6  C2  UNK     1      29.933  -6.400  34.388  1.00  0.00     0.065 A 
HETATM    7  C4  UNK     1      30.077  -6.062  36.878  1.00  0.00     0.086 C 
HETATM    8  C5  UNK     1      29.393  -7.611  34.625  1.00  0.00     0.204 A 
HETATM    9  C6  UNK     1      29.989  -5.897  32.989  1.00  0.00     0.197 A 
HETATM   10  C7  UNK     1      29.508  -6.814  31.946  1.00  0.00     0.049 A 
HETATM   11  C8  UNK     1      29.532  -7.290  37.024  1.00  0.00     0.162 C 
HETATM   12  C10 UNK     1      28.998  -8.052  32.325  1.00  0.00     0.095 A 
HETATM   13  C13 UNK     1      29.556  -6.453  30.597  1.00  0.00     0.021 A 
HETATM   14  C15 UNK     1      28.533  -8.941  31.355  1.00  0.00     0.075 A 
HETATM   15  C17 UNK     1      28.580  -8.585  30.007  1.00  0.00     0.070 A 
HETATM   16  C19 UNK     1      30.296  -5.223  38.018  1.00  0.00     0.100 C 
HETATM   17  C20 UNK     1      29.090  -7.343  29.629  1.00  0.00     0.038 A 
ENDROOT
BRANCH   5  18
HETATM   18  C3  UNK     1      31.942  -5.364  35.398  1.00  0.00    -0.041 A 
HETATM   19  C11 UNK     1      32.496  -4.091  35.333  1.00  0.00     0.008 A 
HETATM   20  C14 UNK     1      33.879  -3.945  35.235  1.00  0.00     0.003 A 
HETATM   21  C16 UNK     1      34.700  -5.072  35.201  1.00  0.00     0.037 A 
HETATM   22  C12 UNK     1      34.137  -6.346  35.267  1.00  0.00     0.069 A 
HETATM   23  C9  UNK     1      32.753  -6.493  35.366  1.00  0.00     0.044 A 
BRANCH  22  24
HETATM   24  O3  UNK     1      34.937  -7.447  35.235  1.00  0.00    -0.347 OA
BRANCH  24  25
HETATM   25  C18 UNK     1      35.640  -7.703  34.020  1.00  0.00     0.120 C 
HETATM   26  C21 UNK     1      37.137  -7.679  34.294  1.00  0.00     0.040 C 
HETATM   27  C22 UNK     1      35.190  -9.040  33.453  1.00  0.00     0.040 C 
ENDBRANCH  24  25
ENDBRANCH  22  24
ENDBRANCH   5  18
BRANCH  11  28
HETATM   28  N1  UNK     1      29.177  -7.857  38.217  1.00  0.00    -0.379 N 
HETATM   29  H10 UNK     1      29.812  -7.853  39.004  1.00  0.00     0.158 HD
HETATM   30  H11 UNK     1      28.266  -8.288  38.301  1.00  0.00     0.158 HD
ENDBRANCH  11  28
BRANCH  15  31
HETATM   31  O5  UNK     1      28.127  -9.451  29.059  1.00  0.00    -0.356 OA
HETATM   32  C23 UNK     1      29.097 -10.019  28.181  1.00  0.00     0.210 C 
ENDBRANCH  15  31
TORSDOF 5
ENDMDL
MODEL 3
REMARK VINA RESULT:      -8.1     16.004     19.053
REMARK  5 active torsions:
REMARK  status: ('A' for Active; 'I' for Inactive)
REMARK    1  A    between atoms: C12_19  and  O3_3 
REMARK    2  A    between atoms: C18_25  and  O3_3 
REMARK    3  A    between atoms: C17_24  and  O5_5 
REMARK    4  A    between atoms: C8_15  and  N1_6 
REMARK    5  A    between atoms: C1_8  and  C3_10 
ROOT
HETATM    1  O1  UNK     1      32.629  -4.422  35.111  1.00  0.00    -0.269 OA
HETATM    2  O2  UNK     1      33.846  -5.929  33.793  1.00  0.00    -0.286 OA
HETATM    3  O4  UNK     1      32.582  -9.089  36.025  1.00  0.00    -0.287 OA
HETATM    4  N2  UNK     1      30.149  -4.333  39.240  1.00  0.00    -0.191 NA
HETATM    5  C1  UNK     1      31.532  -6.497  36.757  1.00  0.00     0.109 C 
HETATM    6  C2  UNK     1      32.493  -6.746  35.615  1.00  0.00     0.065 A 
HETATM    7  C4  UNK     1      31.395  -5.013  37.073  1.00  0.00     0.086 C 
HETATM    8  C5  UNK     1      32.980  -5.743  34.860  1.00  0.00     0.204 A 
HETATM    9  C6  UNK     1      32.937  -8.139  35.339  1.00  0.00     0.197 A 
HETATM   10  C7  UNK     1      33.836  -8.321  34.191  1.00  0.00     0.049 A 
HETATM   11  C8  UNK     1      31.923  -4.071  36.261  1.00  0.00     0.162 C 
HETATM   12  C10 UNK     1      34.244  -7.200  33.475  1.00  0.00     0.095 A 
HETATM   13  C13 UNK     1      34.279  -9.595  33.823  1.00  0.00     0.021 A 
HETATM   14  C15 UNK     1      35.099  -7.345  32.381  1.00  0.00     0.075 A 
HETATM   15  C17 UNK     1      35.543  -8.614  32.009  1.00  0.00     0.070 A 
HETATM   16  C19 UNK     1      30.706  -4.637  38.271  1.00  0.00     0.100 C 
HETATM   17  C20 UNK     1      35.134  -9.737  32.729  1.00  0.00     0.038 A 
ENDROOT
BRANCH   5  18
HETATM   18  C3  UNK     1      30.188  -7.089  36.452  1.00  0.00    -0.041 A 
HETATM   19  C11 UNK     1      29.511  -6.702  35.301  1.00  0.00     0.008 A 
HETATM   20  C14 UNK     1      28.262  -7.254  35.016  1.00  0.00     0.003 A 
HETATM   21  C16 UNK     1      27.697  -8.188  35.885  1.00  0.00     0.037 A 
HETATM   22  C12 UNK     1      28.382  -8.571  37.038  1.00  0.00     0.069 A 
HETATM   23  C9  UNK     1      29.632  -8.020  37.322  1.00  0.00     0.044 A 
BRANCH  22  24
HETATM   24  O3  UNK     1      27.831  -9.483  37.885  1.00  0.00    -0.347 OA
BRANCH  24  25
HETATM   25  C18 UNK     1      27.437  -9.015  39.174  1.00  0.00     0.120 C 
HETATM   26  C21 UNK     1      25.968  -8.619  39.136  1.00  0.00     0.040 C 
HETATM   27  C22 UNK     1      27.703 -10.102  40.204  1.00  0.00     0.040 C 
ENDBRANCH  24  25
ENDBRANCH  22  24
ENDBRANCH   5  18
BRANCH  11  28
HETATM   28  N1  UNK     1      31.836  -2.720  36.461  1.00  0.00    -0.379 N 
HETATM   29  H10 UNK     1      31.951  -2.323  37.384  1.00  0.00     0.158 HD
HETATM   30  H11 UNK     1      31.649  -2.121  35.668  1.00  0.00     0.158 HD
ENDBRANCH  11  28
BRANCH  15  31
HETATM   31  O5  UNK     1      36.377  -8.757  30.943  1.00  0.00    -0.356 OA
HETATM   32  C23 UNK     1      37.014 -10.024  30.782  1.00  0.00     0.210 C 
ENDBRANCH  15  31
TORSDOF 5
ENDMDL
MODEL 4
REMARK VINA RESULT:      -8.0     15.362     17.665
REMARK  5 active torsions:
REMARK  status: ('A' for Active; 'I' for Inactive)
REMARK    1  A    between atoms: C12_19  and  O3_3 
REMARK    2  A    between atoms: C18_25  and  O3_3 
REMARK    3  A    between atoms: C17_24  and  O5_5 
REMARK    4  A    between atoms: C8_15  and  N1_6 
REMARK    5  A    between atoms: C1_8  and  C3_10 
ROOT
HETATM    1  O1  UNK     1      27.600  -6.943  36.472  1.00  0.00    -0.269 OA
HETATM    2  O2  UNK     1      27.868  -7.531  34.220  1.00  0.00    -0.286 OA
HETATM    3  O4  UNK     1      31.373  -5.479  33.975  1.00  0.00    -0.287 OA
HETATM    4  N2  UNK     1      29.549  -4.000  39.751  1.00  0.00    -0.191 NA
HETATM    5  C1  UNK     1      30.088  -5.521  36.564  1.00  0.00     0.109 C 
HETATM    6  C2  UNK     1      29.554  -6.208  35.325  1.00  0.00     0.065 A 
HETATM    7  C4  UNK     1      29.054  -5.478  37.682  1.00  0.00     0.086 C 
HETATM    8  C5  UNK     1      28.383  -6.873  35.326  1.00  0.00     0.204 A 
HETATM    9  C6  UNK     1      30.332  -6.118  34.061  1.00  0.00     0.197 A 
HETATM   10  C7  UNK     1      29.784  -6.841  32.905  1.00  0.00     0.049 A 
HETATM   11  C8  UNK     1      27.898  -6.173  37.596  1.00  0.00     0.162 C 
HETATM   12  C10 UNK     1      28.574  -7.514  33.047  1.00  0.00     0.095 A 
HETATM   13  C13 UNK     1      30.459  -6.854  31.681  1.00  0.00     0.021 A 
HETATM   14  C15 UNK     1      28.030  -8.207  31.965  1.00  0.00     0.075 A 
HETATM   15  C17 UNK     1      28.701  -8.223  30.742  1.00  0.00     0.070 A 
HETATM   16  C19 UNK     1      29.328  -4.662  38.825  1.00  0.00     0.100 C 
HETATM   17  C20 UNK     1      29.913  -7.548  30.601  1.00  0.00     0.038 A 
ENDROOT
BRANCH   5  18
HETATM   18  C3  UNK     1      31.341  -6.196  37.040  1.00  0.00    -0.041 A 
HETATM   19  C11 UNK     1      31.259  -7.432  37.672  1.00  0.00     0.008 A 
HETATM   20  C14 UNK     1      32.423  -8.059  38.113  1.00  0.00     0.003 A 
HETATM   21  C16 UNK     1      33.662  -7.447  37.922  1.00  0.00     0.037 A 
HETATM   22  C12 UNK     1      33.736  -6.207  37.288  1.00  0.00     0.069 A 
HETATM   23  C9  UNK     1      32.571  -5.579  36.845  1.00  0.00     0.044 A 
BRANCH  22  24
HETATM   24  O3  UNK     1      34.944  -5.608  37.100  1.00  0.00    -0.347 OA
BRANCH  24  25
HETATM   25  C18 UNK     1      35.489  -5.643  35.782  1.00  0.00     0.120 C 
HETATM   26  C21 UNK     1      35.386  -7.060  35.235  1.00  0.00     0.040 C 
HETATM   27  C22 UNK     1      34.747  -4.645  34.908  1.00  0.00     0.040 C 
ENDBRANCH  24  25
ENDBRANCH  22  24
ENDBRANCH   5  18
BRANCH  11  28
HETATM   28  N1  UNK     1      26.924  -6.202  38.556  1.00  0.00    -0.379 N 
HETATM   29  H10 UNK     1      26.103  -5.614  38.482  1.00  0.00     0.158 HD
HETATM   30  H11 UNK     1      27.038  -6.820  39.349  1.00  0.00     0.158 HD
ENDBRANCH  11  28
BRANCH  15  31
HETATM   31  O5  UNK     1      28.172  -8.899  29.686  1.00  0.00    -0.356 OA
HETATM   32  C23 UNK     1      29.088  -9.421  28.725  1.00  0.00     0.210 C 
ENDBRANCH  15  31
TORSDOF 5
ENDMDL
MODEL 5
REMARK VINA RESULT:      -7.8     23.541     25.297
REMARK  5 active torsions:
REMARK  status: ('A' for Active; 'I' for Inactive)
REMARK    1  A    between atoms: C12_19  and  O3_3 
REMARK    2  A    between atoms: C18_25  and  O3_3 
REMARK    3  A    between atoms: C17_24  and  O5_5 
REMARK    4  A    between atoms: C8_15  and  N1_6 
REMARK    5  A    between atoms: C1_8  and  C3_10 
ROOT
HETATM    1  O1  UNK     1      16.309  12.451   7.329  1.00  0.00    -0.269 OA
HETATM    2  O2  UNK     1      14.925  10.759   8.171  1.00  0.00    -0.286 OA
HETATM    3  O4  UNK     1      18.061   8.953  10.032  1.00  0.00    -0.287 OA
HETATM    4  N2  UNK     1      20.994  13.503   6.939  1.00  0.00    -0.191 NA
HETATM    5  C1  UNK     1      18.643  11.414   8.632  1.00  0.00     0.109 C 
HETATM    6  C2  UNK     1      17.273  10.776   8.722  1.00  0.00     0.065 A 
HETATM    7  C4  UNK     1      18.685  12.530   7.596  1.00  0.00     0.086 C 
HETATM    8  C5  UNK     1      16.200  11.300   8.100  1.00  0.00     0.204 A 
HETATM    9  C6  UNK     1      17.116   9.515   9.494  1.00  0.00     0.197 A 
HETATM   10  C7  UNK     1      15.755   8.968   9.579  1.00  0.00     0.049 A 
HETATM   11  C8  UNK     1      17.556  12.991   7.014  1.00  0.00     0.162 C 
HETATM   12  C10 UNK     1      14.726   9.623   8.910  1.00  0.00     0.095 A 
HETATM   13  C13 UNK     1      15.493   7.809  10.315  1.00  0.00     0.021 A 
HETATM   14  C15 UNK     1      13.424   9.125   8.973  1.00  0.00     0.075 A 
HETATM   15  C17 UNK     1      13.158   7.968   9.707  1.00  0.00     0.070 A 
HETATM   16  C19 UNK     1      19.961  13.068   7.233  1.00  0.00     0.100 C 
HETATM   17  C20 UNK     1      14.191   7.312  10.377  1.00  0.00     0.038 A 
ENDROOT
BRANCH   5  18
HETATM   18  C3  UNK     1      19.068  11.935   9.974  1.00  0.00    -0.041 A 
HETATM   19  C11 UNK     1      18.166  12.652  10.751  1.00  0.00     0.008 A 
HETATM   20  C14 UNK     1      18.561  13.135  11.998  1.00  0.00     0.003 A 
HETATM   21  C16 UNK     1      19.856  12.900  12.459  1.00  0.00     0.037 A 
HETATM   22  C12 UNK     1      20.756  12.179  11.674  1.00  0.00     0.069 A 
HETATM   23  C9  UNK     1      20.361  11.695  10.427  1.00  0.00     0.044 A 
BRANCH  22  24
HETATM   24  O3  UNK     1      22.020  11.948  12.124  1.00  0.00    -0.347 OA
BRANCH  24  25
HETATM   25  C18 UNK     1      23.071  12.700  11.522  1.00  0.00     0.120 C 
HETATM   26  C21 UNK     1      23.439  13.864  12.431  1.00  0.00     0.040 C 
HETATM   27  C22 UNK     1      24.258  11.785  11.265  1.00  0.00     0.040 C 
ENDBRANCH  24  25
ENDBRANCH  22  24
ENDBRANCH   5  18
BRANCH  11  28
HETATM   28  N1  UNK     1      17.501  13.995   6.087  1.00  0.00    -0.379 N 
HETATM   29  H10 UNK     1      17.827  14.927   6.309  1.00  0.00     0.158 HD
HETATM   30  H11 UNK     1      17.122  13.794   5.171  1.00  0.00     0.158 HD
ENDBRANCH  11  28
BRANCH  15  31
HETATM   31  O5  UNK     1      11.889   7.480   9.770  1.00  0.00    -0.356 OA
HETATM   32  C23 UNK     1      11.064   7.667   8.621  1.00  0.00     0.210 C 
ENDBRANCH  15  31
TORSDOF 5
ENDMDL
MODEL 6
REMARK VINA RESULT:      -7.7     18.166     21.839
REMARK  5 active torsions:
REMARK  status: ('A' for Active; 'I' for Inactive)
REMARK    1  A    between atoms: C12_19  and  O3_3 
REMARK    2  A    between atoms: C18_25  and  O3_3 
REMARK    3  A    between atoms: C17_24  and  O5_5 
REMARK    4  A    between atoms: C8_15  and  N1_6 
REMARK    5  A    between atoms: C1_8  and  C3_10 
ROOT
HETATM    1  O1  UNK     1      18.756  -6.698  13.948  1.00  0.00    -0.269 OA
HETATM    2  O2  UNK     1      19.893  -5.936  12.047  1.00  0.00    -0.286 OA
HETATM    3  O4  UNK     1      18.687  -2.107  12.711  1.00  0.00    -0.287 OA
HETATM    4  N2  UNK     1      15.575  -5.112  17.200  1.00  0.00    -0.191 NA
HETATM    5  C1  UNK     1      17.871  -4.069  14.671  1.00  0.00     0.109 C 
HETATM    6  C2  UNK     1      18.708  -4.369  13.447  1.00  0.00     0.065 A 
HETATM    7  C4  UNK     1      17.366  -5.339  15.343  1.00  0.00     0.086 C 
HETATM    8  C5  UNK     1      19.110  -5.619  13.147  1.00  0.00     0.204 A 
HETATM    9  C6  UNK     1      19.071  -3.255  12.531  1.00  0.00     0.197 A 
HETATM   10  C7  UNK     1      19.920  -3.604  11.384  1.00  0.00     0.049 A 
HETATM   11  C8  UNK     1      17.820  -6.557  14.972  1.00  0.00     0.162 C 
HETATM   12  C10 UNK     1      20.289  -4.933  11.202  1.00  0.00     0.095 A 
HETATM   13  C13 UNK     1      20.351  -2.623  10.486  1.00  0.00     0.021 A 
HETATM   14  C15 UNK     1      21.094  -5.293  10.120  1.00  0.00     0.075 A 
HETATM   15  C17 UNK     1      21.527  -4.316   9.222  1.00  0.00     0.070 A 
HETATM   16  C19 UNK     1      16.376  -5.214  16.370  1.00  0.00     0.100 C 
HETATM   17  C20 UNK     1      21.155  -2.984   9.405  1.00  0.00     0.038 A 
ENDROOT
BRANCH   5  18
HETATM   18  C3  UNK     1      18.650  -3.238  15.649  1.00  0.00    -0.041 A 
HETATM   19  C11 UNK     1      19.967  -3.574  15.941  1.00  0.00     0.008 A 
HETATM   20  C14 UNK     1      20.691  -2.802  16.849  1.00  0.00     0.003 A 
HETATM   21  C16 UNK     1      20.094  -1.700  17.460  1.00  0.00     0.037 A 
HETATM   22  C12 UNK     1      18.772  -1.369  17.162  1.00  0.00     0.069 A 
HETATM   23  C9  UNK     1      18.047  -2.141  16.253  1.00  0.00     0.044 A 
BRANCH  22  24
HETATM   24  O3  UNK     1      18.188  -0.293  17.758  1.00  0.00    -0.347 OA
BRANCH  24  25
HETATM   25  C18 UNK     1      19.026   0.540  18.558  1.00  0.00     0.120 C 
HETATM   26  C21 UNK     1      19.053   1.941  17.964  1.00  0.00     0.040 C 
HETATM   27  C22 UNK     1      18.510   0.541  19.988  1.00  0.00     0.040 C 
ENDBRANCH  24  25
ENDBRANCH  22  24
ENDBRANCH   5  18
BRANCH  11  28
HETATM   28  N1  UNK     1      17.432  -7.745  15.529  1.00  0.00    -0.379 N 
HETATM   29  H10 UNK     1      16.845  -8.391  15.018  1.00  0.00     0.158 HD
HETATM   30  H11 UNK     1      17.737  -7.967  16.467  1.00  0.00     0.158 HD
ENDBRANCH  11  28
BRANCH  15  31
HETATM   31  O5  UNK     1      22.312  -4.665   8.166  1.00  0.00    -0.356 OA
HETATM   32  C23 UNK     1      21.694  -4.695   6.880  1.00  0.00     0.210 C 
ENDBRANCH  15  31
TORSDOF 5
ENDMDL
MODEL 7
REMARK VINA RESULT:      -7.7     16.664     19.238
REMARK  5 active torsions:
REMARK  status: ('A' for Active; 'I' for Inactive)
REMARK    1  A    between atoms: C12_19  and  O3_3 
REMARK    2  A    between atoms: C18_25  and  O3_3 
REMARK    3  A    between atoms: C17_24  and  O5_5 
REMARK    4  A    between atoms: C8_15  and  N1_6 
REMARK    5  A    between atoms: C1_8  and  C3_10 
ROOT
HETATM    1  O1  UNK     1      31.988  -9.566  34.743  1.00  0.00    -0.269 OA
HETATM    2  O2  UNK     1      31.448  -7.539  35.788  1.00  0.00    -0.286 OA
HETATM    3  O4  UNK     1      34.586  -5.650  34.014  1.00  0.00    -0.287 OA
HETATM    4  N2  UNK     1      35.543 -11.521  32.146  1.00  0.00    -0.191 NA
HETATM    5  C1  UNK     1      34.191  -8.425  33.307  1.00  0.00     0.109 C 
HETATM    6  C2  UNK     1      33.317  -7.647  34.266  1.00  0.00     0.065 A 
HETATM    7  C4  UNK     1      33.911  -9.921  33.365  1.00  0.00     0.086 C 
HETATM    8  C5  UNK     1      32.285  -8.219  34.916  1.00  0.00     0.204 A 
HETATM    9  C6  UNK     1      33.627  -6.215  34.523  1.00  0.00     0.197 A 
HETATM   10  C7  UNK     1      32.716  -5.504  35.431  1.00  0.00     0.049 A 
HETATM   11  C8  UNK     1      32.853 -10.411  34.050  1.00  0.00     0.162 C 
HETATM   12  C10 UNK     1      31.669  -6.207  36.017  1.00  0.00     0.095 A 
HETATM   13  C13 UNK     1      32.895  -4.145  35.706  1.00  0.00     0.021 A 
HETATM   14  C15 UNK     1      30.790  -5.556  36.884  1.00  0.00     0.075 A 
HETATM   15  C17 UNK     1      30.965  -4.200  37.161  1.00  0.00     0.070 A 
HETATM   16  C19 UNK     1      34.813 -10.805  32.691  1.00  0.00     0.100 C 
HETATM   17  C20 UNK     1      32.016  -3.496  36.573  1.00  0.00     0.038 A 
ENDROOT
BRANCH   5  18
HETATM   18  C3  UNK     1      34.015  -7.918  31.906  1.00  0.00    -0.041 A 
HETATM   19  C11 UNK     1      35.126  -7.510  31.177  1.00  0.00     0.008 A 
HETATM   20  C14 UNK     1      34.962  -7.039  29.875  1.00  0.00     0.003 A 
HETATM   21  C16 UNK     1      33.688  -6.978  29.310  1.00  0.00     0.037 A 
HETATM   22  C12 UNK     1      32.578  -7.389  30.047  1.00  0.00     0.069 A 
HETATM   23  C9  UNK     1      32.741  -7.861  31.350  1.00  0.00     0.044 A 
BRANCH  22  24
HETATM   24  O3  UNK     1      31.334  -7.330  29.496  1.00  0.00    -0.347 OA
BRANCH  24  25
HETATM   25  C18 UNK     1      30.252  -7.014  30.370  1.00  0.00     0.120 C 
HETATM   26  C21 UNK     1      30.112  -5.502  30.467  1.00  0.00     0.040 C 
HETATM   27  C22 UNK     1      28.982  -7.668  29.849  1.00  0.00     0.040 C 
ENDBRANCH  24  25
ENDBRANCH  22  24
ENDBRANCH   5  18
BRANCH  11  28
HETATM   28  N1  UNK     1      32.521 -11.734  34.144  1.00  0.00    -0.379 N 
HETATM   29  H10 UNK     1      31.573 -12.046  33.974  1.00  0.00     0.158 HD
HETATM   30  H11 UNK     1      33.239 -12.402  34.392  1.00  0.00     0.158 HD
ENDBRANCH  11  28
BRANCH  15  31
HETATM   31  O5  UNK     1      30.109  -3.563  38.007  1.00  0.00    -0.356 OA
HETATM   32  C23 UNK     1      29.554  -4.334  39.071  1.00  0.00     0.210 C 
ENDBRANCH  15  31
TORSDOF 5
ENDMDL
MODEL 8
REMARK VINA RESULT:      -7.7     15.876     18.752
REMARK  5 active torsions:
REMARK  status: ('A' for Active; 'I' for Inactive)
REMARK    1  A    between atoms: C12_19  and  O3_3 
REMARK    2  A    between atoms: C18_25  and  O3_3 
REMARK    3  A    between atoms: C17_24  and  O5_5 
REMARK    4  A    between atoms: C8_15  and  N1_6 
REMARK    5  A    between atoms: C1_8  and  C3_10 
ROOT
HETATM    1  O1  UNK     1      33.044  -4.454  35.089  1.00  0.00    -0.269 OA
HETATM    2  O2  UNK     1      34.201  -6.008  33.771  1.00  0.00    -0.286 OA
HETATM    3  O4  UNK     1      32.534  -9.132  35.777  1.00  0.00    -0.287 OA
HETATM    4  N2  UNK     1      30.341  -4.316  39.074  1.00  0.00    -0.191 NA
HETATM    5  C1  UNK     1      31.674  -6.489  36.572  1.00  0.00     0.109 C 
HETATM    6  C2  UNK     1      32.675  -6.776  35.474  1.00  0.00     0.065 A 
HETATM    7  C4  UNK     1      31.648  -5.014  36.949  1.00  0.00     0.086 C 
HETATM    8  C5  UNK     1      33.292  -5.790  34.795  1.00  0.00     0.204 A 
HETATM    9  C6  UNK     1      33.012  -8.190  35.158  1.00  0.00     0.197 A 
HETATM   10  C7  UNK     1      33.957  -8.404  34.054  1.00  0.00     0.049 A 
HETATM   11  C8  UNK     1      32.305  -4.090  36.213  1.00  0.00     0.162 C 
HETATM   12  C10 UNK     1      34.504  -7.295  33.415  1.00  0.00     0.095 A 
HETATM   13  C13 UNK     1      34.308  -9.695  33.650  1.00  0.00     0.021 A 
HETATM   14  C15 UNK     1      35.406  -7.470  32.364  1.00  0.00     0.075 A 
HETATM   15  C17 UNK     1      35.759  -8.757  31.958  1.00  0.00     0.070 A 
HETATM   16  C19 UNK     1      30.926  -4.628  38.124  1.00  0.00     0.100 C 
HETATM   17  C20 UNK     1      35.210  -9.867  32.600  1.00  0.00     0.038 A 
ENDROOT
BRANCH   5  18
HETATM   18  C3  UNK     1      30.303  -6.945  36.165  1.00  0.00    -0.041 A 
HETATM   19  C11 UNK     1      29.660  -7.934  36.900  1.00  0.00     0.008 A 
HETATM   20  C14 UNK     1      28.387  -8.356  36.522  1.00  0.00     0.003 A 
HETATM   21  C16 UNK     1      27.764  -7.789  35.411  1.00  0.00     0.037 A 
HETATM   22  C12 UNK     1      28.414  -6.797  34.678  1.00  0.00     0.069 A 
HETATM   23  C9  UNK     1      29.689  -6.373  35.056  1.00  0.00     0.044 A 
BRANCH  22  24
HETATM   24  O3  UNK     1      27.807  -6.242  33.593  1.00  0.00    -0.347 OA
BRANCH  24  25
HETATM   25  C18 UNK     1      28.388  -6.506  32.318  1.00  0.00     0.120 C 
HETATM   26  C21 UNK     1      27.304  -6.987  31.364  1.00  0.00     0.040 C 
HETATM   27  C22 UNK     1      29.071  -5.247  31.808  1.00  0.00     0.040 C 
ENDBRANCH  24  25
ENDBRANCH  22  24
ENDBRANCH   5  18
BRANCH  11  28
HETATM   28  N1  UNK     1      32.325  -2.746  36.472  1.00  0.00    -0.379 N 
HETATM   29  H10 UNK     1      31.519  -2.281  36.868  1.00  0.00     0.158 HD
HETATM   30  H11 UNK     1      33.161  -2.220  36.255  1.00  0.00     0.158 HD
ENDBRANCH  11  28
BRANCH  15  31
HETATM   31  O5  UNK     1      36.638  -8.930  30.934  1.00  0.00    -0.356 OA
HETATM   32  C23 UNK     1      37.250 -10.213  30.812  1.00  0.00     0.210 C 
ENDBRANCH  15  31
TORSDOF 5
ENDMDL
MODEL 9
REMARK VINA RESULT:      -7.7     15.229     17.847
REMARK  5 active torsions:
REMARK  status: ('A' for Active; 'I' for Inactive)
REMARK    1  A    between atoms: C12_19  and  O3_3 
REMARK    2  A    between atoms: C18_25  and  O3_3 
REMARK    3  A    between atoms: C17_24  and  O5_5 
REMARK    4  A    between atoms: C8_15  and  N1_6 
REMARK    5  A    between atoms: C1_8  and  C3_10 
ROOT
HETATM    1  O1  UNK     1      27.673  -6.687  32.278  1.00  0.00    -0.269 OA
HETATM    2  O2  UNK     1      28.109  -6.671  34.580  1.00  0.00    -0.286 OA
HETATM    3  O4  UNK     1      29.731 -10.399  34.421  1.00  0.00    -0.287 OA
HETATM    4  N2  UNK     1      27.712  -9.749  28.559  1.00  0.00    -0.191 NA
HETATM    5  C1  UNK     1      28.860  -9.270  31.907  1.00  0.00     0.109 C 
HETATM    6  C2  UNK     1      28.761  -8.572  33.246  1.00  0.00     0.065 A 
HETATM    7  C4  UNK     1      28.061  -8.551  30.829  1.00  0.00     0.086 C 
HETATM    8  C5  UNK     1      28.202  -7.354  33.376  1.00  0.00     0.204 A 
HETATM    9  C6  UNK     1      29.268  -9.267  34.460  1.00  0.00     0.197 A 
HETATM   10  C7  UNK     1      29.183  -8.520  35.722  1.00  0.00     0.049 A 
HETATM   11  C8  UNK     1      27.526  -7.329  31.049  1.00  0.00     0.162 C 
HETATM   12  C10 UNK     1      28.605  -7.255  35.715  1.00  0.00     0.095 A 
HETATM   13  C13 UNK     1      29.669  -9.068  36.913  1.00  0.00     0.021 A 
HETATM   14  C15 UNK     1      28.510  -6.524  36.901  1.00  0.00     0.075 A 
HETATM   15  C17 UNK     1      28.995  -7.066  38.091  1.00  0.00     0.070 A 
HETATM   16  C19 UNK     1      27.868  -9.213  29.574  1.00  0.00     0.100 C 
HETATM   17  C20 UNK     1      29.573  -8.336  38.097  1.00  0.00     0.038 A 
ENDROOT
BRANCH   5  18
HETATM   18  C3  UNK     1      30.295  -9.403  31.488  1.00  0.00    -0.041 A 
HETATM   19  C11 UNK     1      30.801 -10.654  31.154  1.00  0.00     0.008 A 
HETATM   20  C14 UNK     1      32.134 -10.777  30.764  1.00  0.00     0.003 A 
HETATM   21  C16 UNK     1      32.953  -9.649  30.713  1.00  0.00     0.037 A 
HETATM   22  C12 UNK     1      32.439  -8.398  31.049  1.00  0.00     0.069 A 
HETATM   23  C9  UNK     1      31.104  -8.273  31.439  1.00  0.00     0.044 A 
BRANCH  22  24
HETATM   24  O3  UNK     1      33.237  -7.297  30.999  1.00  0.00    -0.347 OA
BRANCH  24  25
HETATM   25  C18 UNK     1      34.615  -7.507  30.695  1.00  0.00     0.120 C 
HETATM   26  C21 UNK     1      34.955  -6.797  29.393  1.00  0.00     0.040 C 
HETATM   27  C22 UNK     1      35.465  -7.006  31.851  1.00  0.00     0.040 C 
ENDBRANCH  24  25
ENDBRANCH  22  24
ENDBRANCH   5  18
BRANCH  11  28
HETATM   28  N1  UNK     1      26.808  -6.607  30.135  1.00  0.00    -0.379 N 
HETATM   29  H10 UNK     1      25.824  -6.421  30.277  1.00  0.00     0.158 HD
HETATM   30  H11 UNK     1      27.276  -6.265  29.306  1.00  0.00     0.158 HD
ENDBRANCH  11  28
BRANCH  15  31
HETATM   31  O5  UNK     1      28.903  -6.356  39.248  1.00  0.00    -0.356 OA
HETATM   32  C23 UNK     1      29.169  -4.956  39.174  1.00  0.00     0.210 C 
ENDBRANCH  15  31
TORSDOF 5
ENDMDL
MODEL 10
REMARK VINA RESULT:      -7.6     16.280     19.020
REMARK  5 active torsions:
REMARK  status: ('A' for Active; 'I' for Inactive)
REMARK    1  A    between atoms: C12_19  and  O3_3 
REMARK    2  A    between atoms: C18_25  and  O3_3 
REMARK    3  A    between atoms: C17_24  and  O5_5 
REMARK    4  A    between atoms: C8_15  and  N1_6 
REMARK    5  A    between atoms: C1_8  and  C3_10 
ROOT
HETATM    1  O1  UNK     1      34.405  -7.147  36.072  1.00  0.00    -0.269 OA
HETATM    2  O2  UNK     1      32.308  -7.112  37.116  1.00  0.00    -0.286 OA
HETATM    3  O4  UNK     1      30.419  -6.475  33.569  1.00  0.00    -0.287 OA
HETATM    4  N2  UNK     1      36.387  -6.183  31.789  1.00  0.00    -0.191 NA
HETATM    5  C1  UNK     1      33.289  -6.802  33.455  1.00  0.00     0.109 C 
HETATM    6  C2  UNK     1      32.463  -6.862  34.722  1.00  0.00     0.065 A 
HETATM    7  C4  UNK     1      34.780  -6.718  33.749  1.00  0.00     0.086 C 
HETATM    8  C5  UNK     1      33.027  -7.033  35.933  1.00  0.00     0.204 A 
HETATM    9  C6  UNK     1      30.988  -6.695  34.630  1.00  0.00     0.197 A 
HETATM   10  C7  UNK     1      30.239  -6.806  35.889  1.00  0.00     0.049 A 
HETATM   11  C8  UNK     1      35.260  -6.896  35.000  1.00  0.00     0.162 C 
HETATM   12  C10 UNK     1      30.943  -7.010  37.072  1.00  0.00     0.095 A 
HETATM   13  C13 UNK     1      28.845  -6.705  35.905  1.00  0.00     0.021 A 
HETATM   14  C15 UNK     1      30.256  -7.118  38.283  1.00  0.00     0.075 A 
HETATM   15  C17 UNK     1      28.865  -7.018  38.303  1.00  0.00     0.070 A 
HETATM   16  C19 UNK     1      35.668  -6.422  32.666  1.00  0.00     0.100 C 
HETATM   17  C20 UNK     1      28.161  -6.812  37.116  1.00  0.00     0.038 A 
ENDROOT
BRANCH   5  18
HETATM   18  C3  UNK     1      32.997  -7.988  32.582  1.00  0.00    -0.041 A 
HETATM   19  C11 UNK     1      33.291  -9.268  33.040  1.00  0.00     0.008 A 
HETATM   20  C14 UNK     1      33.020 -10.369  32.229  1.00  0.00     0.003 A 
HETATM   21  C16 UNK     1      32.458 -10.185  30.967  1.00  0.00     0.037 A 
HETATM   22  C12 UNK     1      32.165  -8.899  30.514  1.00  0.00     0.069 A 
HETATM   23  C9  UNK     1      32.436  -7.796  31.325  1.00  0.00     0.044 A 
BRANCH  22  24
HETATM   24  O3  UNK     1      31.616  -8.718  29.282  1.00  0.00    -0.347 OA
BRANCH  24  25
HETATM   25  C18 UNK     1      30.237  -9.050  29.130  1.00  0.00     0.120 C 
HETATM   26  C21 UNK     1      29.409  -7.774  29.158  1.00  0.00     0.040 C 
HETATM   27  C22 UNK     1      30.047  -9.820  27.833  1.00  0.00     0.040 C 
ENDBRANCH  24  25
ENDBRANCH  22  24
ENDBRANCH   5  18
BRANCH  11  28
HETATM   28  N1  UNK     1      36.582  -6.850  35.351  1.00  0.00    -0.379 N 
HETATM   29  H10 UNK     1      36.863  -6.591  36.287  1.00  0.00     0.158 HD
HETATM   30  H11 UNK     1      37.279  -7.075  34.654  1.00  0.00     0.158 HD
ENDBRANCH  11  28
BRANCH  15  31
HETATM   31  O5  UNK     1      28.193  -7.122  39.482  1.00  0.00    -0.356 OA
HETATM   32  C23 UNK     1      27.584  -8.379  39.774  1.00  0.00     0.210 C 
ENDBRANCH  15  31
TORSDOF 5
ENDMDL
