MODEL 1
REMARK VINA RESULT:      -8.4      0.000      0.000
REMARK  2 active torsions:
REMARK  status: ('A' for Active; 'I' for Inactive)
REMARK    1  A    between atoms: C8_14  and  N1_4 
REMARK    2  A    between atoms: C1_7  and  C5_11 
ROOT
HETATM    1  O1  UNK     1      21.716  -5.865  15.060  1.00  0.00    -0.291 OA
HETATM    2  O2  UNK     1      21.251  -2.420  17.389  1.00  0.00    -0.274 OA
HETATM    3  O3  UNK     1      19.288  -1.962  16.324  1.00  0.00    -0.259 OA
HETATM    4  N3  UNK     1      17.778  -6.513  12.363  1.00  0.00    -0.191 NA
HETATM    5  C1  UNK     1      19.443  -4.198  14.517  1.00  0.00     0.110 C 
HETATM    6  C2  UNK     1      20.468  -3.892  15.593  1.00  0.00     0.066 A 
HETATM    7  C3  UNK     1      21.515  -4.707  15.790  1.00  0.00     0.104 A 
HETATM    8  C4  UNK     1      19.634  -5.587  13.917  1.00  0.00     0.086 C 
HETATM    9  C6  UNK     1      22.525  -4.409  16.803  1.00  0.00     0.033 A 
HETATM   10  C7  UNK     1      20.268  -2.690  16.443  1.00  0.00     0.298 A 
HETATM   11  C8  UNK     1      20.728  -6.333  14.196  1.00  0.00     0.159 C 
HETATM   12  C9  UNK     1      22.364  -3.262  17.575  1.00  0.00     0.092 A 
HETATM   13  C11 UNK     1      23.648  -5.211  17.038  1.00  0.00     0.017 A 
HETATM   14  C13 UNK     1      23.281  -2.897  18.561  1.00  0.00     0.038 A 
HETATM   15  C14 UNK     1      24.576  -4.859  18.024  1.00  0.00     0.001 A 
HETATM   16  C15 UNK     1      18.609  -6.099  13.058  1.00  0.00     0.100 C 
HETATM   17  C16 UNK     1      24.392  -3.704  18.784  1.00  0.00     0.003 A 
ENDROOT
BRANCH   5  18
HETATM   18  C5  UNK     1      19.493  -3.157  13.434  1.00  0.00    -0.026 A 
HETATM   19  C10 UNK     1      20.492  -3.185  12.479  1.00  0.00     0.011 A 
HETATM   20  C17 UNK     1      20.511  -2.210  11.488  1.00  0.00     0.020 A 
HETATM   21  C18 UNK     1      19.517  -1.246  11.508  1.00  0.00     0.116 A 
HETATM   22  N2  UNK     1      18.530  -1.195  12.430  1.00  0.00    -0.273 NA
HETATM   23  C12 UNK     1      18.543  -2.160  13.377  1.00  0.00     0.124 A 
ENDBRANCH   5  18
BRANCH  11  24
HETATM   24  N1  UNK     1      20.983  -7.578  13.691  1.00  0.00    -0.379 N 
HETATM   25  H8  UNK     1      20.896  -8.380  14.303  1.00  0.00     0.158 HD
HETATM   26  H9  UNK     1      21.257  -7.703  12.725  1.00  0.00     0.158 HD
ENDBRANCH  11  24
TORSDOF 2
ENDMDL
MODEL 2
REMARK VINA RESULT:      -8.3     23.222     24.868
REMARK  2 active torsions:
REMARK  status: ('A' for Active; 'I' for Inactive)
REMARK    1  A    between atoms: C8_14  and  N1_4 
REMARK    2  A    between atoms: C1_7  and  C5_11 
ROOT
HETATM    1  O1  UNK     1      30.839  -5.363  38.279  1.00  0.00    -0.291 OA
HETATM    2  O2  UNK     1      31.615  -8.006  35.130  1.00  0.00    -0.274 OA
HETATM    3  O3  UNK     1      29.384  -8.435  34.936  1.00  0.00    -0.259 OA
HETATM    4  N3  UNK     1      26.077  -4.864  38.809  1.00  0.00    -0.191 NA
HETATM    5  C1  UNK     1      28.605  -6.773  37.155  1.00  0.00     0.110 C 
HETATM    6  C2  UNK     1      30.032  -6.939  36.667  1.00  0.00     0.066 A 
HETATM    7  C3  UNK     1      31.034  -6.258  37.243  1.00  0.00     0.104 A 
HETATM    8  C4  UNK     1      28.465  -5.622  38.146  1.00  0.00     0.086 C 
HETATM    9  C6  UNK     1      32.416  -6.431  36.803  1.00  0.00     0.033 A 
HETATM   10  C7  UNK     1      30.290  -7.847  35.519  1.00  0.00     0.298 A 
HETATM   11  C8  UNK     1      29.549  -4.993  38.656  1.00  0.00     0.159 C 
HETATM   12  C9  UNK     1      32.668  -7.311  35.754  1.00  0.00     0.092 A 
HETATM   13  C11 UNK     1      33.504  -5.763  37.381  1.00  0.00     0.017 A 
HETATM   14  C13 UNK     1      33.957  -7.542  35.273  1.00  0.00     0.038 A 
HETATM   15  C14 UNK     1      34.802  -5.984  36.908  1.00  0.00     0.001 A 
HETATM   16  C15 UNK     1      27.145  -5.204  38.512  1.00  0.00     0.100 C 
HETATM   17  C16 UNK     1      35.028  -6.871  35.856  1.00  0.00     0.003 A 
ENDROOT
BRANCH   5  18
HETATM   18  C5  UNK     1      28.110  -8.050  37.773  1.00  0.00    -0.026 A 
HETATM   19  C10 UNK     1      28.792  -8.631  38.826  1.00  0.00     0.011 A 
HETATM   20  C17 UNK     1      28.309  -9.811  39.380  1.00  0.00     0.020 A 
HETATM   21  C18 UNK     1      27.154 -10.354  38.842  1.00  0.00     0.116 A 
HETATM   22  N2  UNK     1      26.468  -9.807  37.814  1.00  0.00    -0.273 NA
HETATM   23  C12 UNK     1      26.967  -8.659  37.301  1.00  0.00     0.124 A 
ENDBRANCH   5  18
BRANCH  11  24
HETATM   24  N1  UNK     1      29.511  -3.965  39.557  1.00  0.00    -0.379 N 
HETATM   25  H8  UNK     1      28.651  -3.791  40.062  1.00  0.00     0.158 HD
HETATM   26  H9  UNK     1      30.322  -3.383  39.718  1.00  0.00     0.158 HD
ENDBRANCH  11  24
TORSDOF 2
ENDMDL
MODEL 3
REMARK VINA RESULT:      -8.3     11.989     14.993
REMARK  2 active torsions:
REMARK  status: ('A' for Active; 'I' for Inactive)
REMARK    1  A    between atoms: C8_14  and  N1_4 
REMARK    2  A    between atoms: C1_7  and  C5_11 
ROOT
HETATM    1  O1  UNK     1      16.857   8.272   9.842  1.00  0.00    -0.291 OA
HETATM    2  O2  UNK     1      13.605  10.447  11.325  1.00  0.00    -0.274 OA
HETATM    3  O3  UNK     1      12.360   8.539  11.403  1.00  0.00    -0.259 OA
HETATM    4  N3  UNK     1      15.774   3.578   9.846  1.00  0.00    -0.191 NA
HETATM    5  C1  UNK     1      14.401   6.850  10.275  1.00  0.00     0.110 C 
HETATM    6  C2  UNK     1      14.572   8.331  10.555  1.00  0.00     0.066 A 
HETATM    7  C3  UNK     1      15.744   8.939  10.321  1.00  0.00     0.104 A 
HETATM    8  C4  UNK     1      15.727   6.167   9.954  1.00  0.00     0.086 C 
HETATM    9  C6  UNK     1      15.913  10.371  10.558  1.00  0.00     0.033 A 
HETATM   10  C7  UNK     1      13.423   9.084  11.123  1.00  0.00     0.298 A 
HETATM   11  C8  UNK     1      16.857   6.881   9.749  1.00  0.00     0.159 C 
HETATM   12  C9  UNK     1      14.828  11.089  11.052  1.00  0.00     0.092 A 
HETATM   13  C11 UNK     1      17.106  11.062  10.312  1.00  0.00     0.017 A 
HETATM   14  C13 UNK     1      14.898  12.459  11.304  1.00  0.00     0.038 A 
HETATM   15  C14 UNK     1      17.192  12.436  10.559  1.00  0.00     0.001 A 
HETATM   16  C15 UNK     1      15.752   4.737   9.894  1.00  0.00     0.100 C 
HETATM   17  C16 UNK     1      16.090  13.133  11.055  1.00  0.00     0.003 A 
ENDROOT
BRANCH   5  18
HETATM   18  C5  UNK     1      13.426   6.637   9.152  1.00  0.00    -0.026 A 
HETATM   19  C10 UNK     1      12.277   5.893   9.350  1.00  0.00     0.011 A 
HETATM   20  C17 UNK     1      11.393   5.714   8.292  1.00  0.00     0.020 A 
HETATM   21  C18 UNK     1      11.710   6.297   7.076  1.00  0.00     0.116 A 
HETATM   22  N2  UNK     1      12.825   7.028   6.856  1.00  0.00    -0.273 NA
HETATM   23  C12 UNK     1      13.662   7.181   7.907  1.00  0.00     0.124 A 
ENDBRANCH   5  18
BRANCH  11  24
HETATM   24  N1  UNK     1      18.080   6.350   9.444  1.00  0.00    -0.379 N 
HETATM   25  H8  UNK     1      18.640   5.954  10.189  1.00  0.00     0.158 HD
HETATM   26  H9  UNK     1      18.427   6.352   8.494  1.00  0.00     0.158 HD
ENDBRANCH  11  24
TORSDOF 2
ENDMDL
MODEL 4
REMARK VINA RESULT:      -8.0     20.979     24.052
REMARK  2 active torsions:
REMARK  status: ('A' for Active; 'I' for Inactive)
REMARK    1  A    between atoms: C8_14  and  N1_4 
REMARK    2  A    between atoms: C1_7  and  C5_11 
ROOT
HETATM    1  O1  UNK     1      30.532  -5.230  37.087  1.00  0.00    -0.291 OA
HETATM    2  O2  UNK     1      30.680  -9.410  37.198  1.00  0.00    -0.274 OA
HETATM    3  O3  UNK     1      32.491  -9.385  35.813  1.00  0.00    -0.259 OA
HETATM    4  N3  UNK     1      34.338  -3.560  34.653  1.00  0.00    -0.191 NA
HETATM    5  C1  UNK     1      32.520  -6.526  35.473  1.00  0.00     0.110 C 
HETATM    6  C2  UNK     1      31.536  -7.275  36.351  1.00  0.00     0.066 A 
HETATM    7  C3  UNK     1      30.623  -6.611  37.074  1.00  0.00     0.104 A 
HETATM    8  C4  UNK     1      32.479  -5.021  35.715  1.00  0.00     0.086 C 
HETATM    9  C6  UNK     1      29.650  -7.321  37.900  1.00  0.00     0.033 A 
HETATM   10  C7  UNK     1      31.627  -8.757  36.416  1.00  0.00     0.298 A 
HETATM   11  C8  UNK     1      31.516  -4.454  36.477  1.00  0.00     0.159 C 
HETATM   12  C9  UNK     1      29.705  -8.711  37.934  1.00  0.00     0.092 A 
HETATM   13  C11 UNK     1      28.662  -6.680  38.659  1.00  0.00     0.017 A 
HETATM   14  C13 UNK     1      28.813  -9.471  38.691  1.00  0.00     0.038 A 
HETATM   15  C14 UNK     1      27.761  -7.428  39.424  1.00  0.00     0.001 A 
HETATM   16  C15 UNK     1      33.506  -4.214  35.128  1.00  0.00     0.100 C 
HETATM   17  C16 UNK     1      27.836  -8.821  39.440  1.00  0.00     0.003 A 
ENDROOT
BRANCH   5  18
HETATM   18  C5  UNK     1      32.262  -6.823  34.023  1.00  0.00    -0.026 A 
HETATM   19  C10 UNK     1      31.013  -6.599  33.472  1.00  0.00     0.011 A 
HETATM   20  C17 UNK     1      30.804  -6.881  32.127  1.00  0.00     0.020 A 
HETATM   21  C18 UNK     1      31.869  -7.380  31.396  1.00  0.00     0.116 A 
HETATM   22  N2  UNK     1      33.099  -7.608  31.909  1.00  0.00    -0.273 NA
HETATM   23  C12 UNK     1      33.265  -7.321  33.220  1.00  0.00     0.124 A 
ENDBRANCH   5  18
BRANCH  11  24
HETATM   24  N1  UNK     1      31.398  -3.116  36.732  1.00  0.00    -0.379 N 
HETATM   25  H8  UNK     1      31.589  -2.779  37.668  1.00  0.00     0.158 HD
HETATM   26  H9  UNK     1      31.123  -2.468  36.005  1.00  0.00     0.158 HD
ENDBRANCH  11  24
TORSDOF 2
ENDMDL
MODEL 5
REMARK VINA RESULT:      -8.0     22.140     24.351
REMARK  2 active torsions:
REMARK  status: ('A' for Active; 'I' for Inactive)
REMARK    1  A    between atoms: C8_14  and  N1_4 
REMARK    2  A    between atoms: C1_7  and  C5_11 
ROOT
HETATM    1  O1  UNK     1      32.265  -6.513  37.072  1.00  0.00    -0.291 OA
HETATM    2  O2  UNK     1      29.989  -7.811  33.810  1.00  0.00    -0.274 OA
HETATM    3  O3  UNK     1      28.141  -6.816  34.699  1.00  0.00    -0.259 OA
HETATM    4  N3  UNK     1      29.569  -3.665  39.868  1.00  0.00    -0.191 NA
HETATM    5  C1  UNK     1      29.456  -5.922  37.100  1.00  0.00     0.110 C 
HETATM    6  C2  UNK     1      30.143  -6.671  35.974  1.00  0.00     0.066 A 
HETATM    7  C3  UNK     1      31.459  -6.926  36.026  1.00  0.00     0.104 A 
HETATM    8  C4  UNK     1      30.453  -5.333  38.093  1.00  0.00     0.086 C 
HETATM    9  C6  UNK     1      32.127  -7.673  34.963  1.00  0.00     0.033 A 
HETATM   10  C7  UNK     1      29.333  -7.089  34.800  1.00  0.00     0.298 A 
HETATM   11  C8  UNK     1      31.767  -5.648  38.045  1.00  0.00     0.159 C 
HETATM   12  C9  UNK     1      31.365  -8.101  33.880  1.00  0.00     0.092 A 
HETATM   13  C11 UNK     1      33.493  -7.984  34.975  1.00  0.00     0.017 A 
HETATM   14  C13 UNK     1      31.919  -8.823  32.823  1.00  0.00     0.038 A 
HETATM   15  C14 UNK     1      34.062  -8.708  33.922  1.00  0.00     0.001 A 
HETATM   16  C15 UNK     1      29.964  -4.411  39.073  1.00  0.00     0.100 C 
HETATM   17  C16 UNK     1      33.277  -9.126  32.848  1.00  0.00     0.003 A 
ENDROOT
BRANCH   5  18
HETATM   18  C5  UNK     1      28.487  -6.821  37.814  1.00  0.00    -0.026 A 
HETATM   19  C10 UNK     1      28.918  -8.003  38.388  1.00  0.00     0.011 A 
HETATM   20  C17 UNK     1      27.998  -8.814  39.045  1.00  0.00     0.020 A 
HETATM   21  C18 UNK     1      26.680  -8.393  39.090  1.00  0.00     0.116 A 
HETATM   22  N2  UNK     1      26.232  -7.243  38.538  1.00  0.00    -0.273 NA
HETATM   23  C12 UNK     1      27.155  -6.481  37.909  1.00  0.00     0.124 A 
ENDBRANCH   5  18
BRANCH  11  24
HETATM   24  N1  UNK     1      32.722  -5.176  38.903  1.00  0.00    -0.379 N 
HETATM   25  H8  UNK     1      33.649  -5.584  38.873  1.00  0.00     0.158 HD
HETATM   26  H9  UNK     1      32.513  -4.437  39.560  1.00  0.00     0.158 HD
ENDBRANCH  11  24
TORSDOF 2
ENDMDL
MODEL 6
REMARK VINA RESULT:      -7.9      1.526      3.995
REMARK  2 active torsions:
REMARK  status: ('A' for Active; 'I' for Inactive)
REMARK    1  A    between atoms: C8_14  and  N1_4 
REMARK    2  A    between atoms: C1_7  and  C5_11 
ROOT
HETATM    1  O1  UNK     1      20.898  -2.638  15.430  1.00  0.00    -0.291 OA
HETATM    2  O2  UNK     1      22.761  -6.194  16.607  1.00  0.00    -0.274 OA
HETATM    3  O3  UNK     1      21.764  -7.294  14.877  1.00  0.00    -0.259 OA
HETATM    4  N3  UNK     1      18.555  -3.361  11.283  1.00  0.00    -0.191 NA
HETATM    5  C1  UNK     1      20.271  -5.015  13.947  1.00  0.00     0.110 C 
HETATM    6  C2  UNK     1      21.232  -4.989  15.119  1.00  0.00     0.066 A 
HETATM    7  C3  UNK     1      21.475  -3.847  15.779  1.00  0.00     0.104 A 
HETATM    8  C4  UNK     1      19.854  -3.613  13.511  1.00  0.00     0.086 C 
HETATM    9  C6  UNK     1      22.375  -3.814  16.929  1.00  0.00     0.033 A 
HETATM   10  C7  UNK     1      21.922  -6.249  15.501  1.00  0.00     0.298 A 
HETATM   11  C8  UNK     1      20.166  -2.523  14.249  1.00  0.00     0.159 C 
HETATM   12  C9  UNK     1      22.993  -4.999  17.315  1.00  0.00     0.092 A 
HETATM   13  C11 UNK     1      22.649  -2.655  17.667  1.00  0.00     0.017 A 
HETATM   14  C13 UNK     1      23.864  -5.062  18.403  1.00  0.00     0.038 A 
HETATM   15  C14 UNK     1      23.520  -2.702  18.760  1.00  0.00     0.001 A 
HETATM   16  C15 UNK     1      19.137  -3.474  12.280  1.00  0.00     0.100 C 
HETATM   17  C16 UNK     1      24.126  -3.903  19.128  1.00  0.00     0.003 A 
ENDROOT
BRANCH   5  18
HETATM   18  C5  UNK     1      19.056  -5.833  14.281  1.00  0.00    -0.026 A 
HETATM   19  C10 UNK     1      18.362  -5.613  15.457  1.00  0.00     0.011 A 
HETATM   20  C17 UNK     1      17.241  -6.384  15.739  1.00  0.00     0.020 A 
HETATM   21  C18 UNK     1      16.870  -7.349  14.817  1.00  0.00     0.116 A 
HETATM   22  N2  UNK     1      17.529  -7.586  13.661  1.00  0.00    -0.273 NA
HETATM   23  C12 UNK     1      18.615  -6.816  13.421  1.00  0.00     0.124 A 
ENDBRANCH   5  18
BRANCH  11  24
HETATM   24  N1  UNK     1      19.820  -1.237  13.939  1.00  0.00    -0.379 N 
HETATM   25  H8  UNK     1      19.033  -1.079  13.322  1.00  0.00     0.158 HD
HETATM   26  H9  UNK     1      20.339  -0.453  14.312  1.00  0.00     0.158 HD
ENDBRANCH  11  24
TORSDOF 2
ENDMDL
MODEL 7
REMARK VINA RESULT:      -7.6     19.005     22.910
REMARK  2 active torsions:
REMARK  status: ('A' for Active; 'I' for Inactive)
REMARK    1  A    between atoms: C8_14  and  N1_4 
REMARK    2  A    between atoms: C1_7  and  C5_11 
ROOT
HETATM    1  O1  UNK     1      28.080  -8.249  34.620  1.00  0.00    -0.291 OA
HETATM    2  O2  UNK     1      30.734  -5.397  33.095  1.00  0.00    -0.274 OA
HETATM    3  O3  UNK     1      31.981  -5.535  34.999  1.00  0.00    -0.259 OA
HETATM    4  N3  UNK     1      29.780  -9.942  38.797  1.00  0.00    -0.191 NA
HETATM    5  C1  UNK     1      30.237  -7.408  36.317  1.00  0.00     0.110 C 
HETATM    6  C2  UNK     1      30.018  -6.875  34.914  1.00  0.00     0.066 A 
HETATM    7  C3  UNK     1      28.983  -7.301  34.175  1.00  0.00     0.104 A 
HETATM    8  C4  UNK     1      29.324  -8.589  36.633  1.00  0.00     0.086 C 
HETATM    9  C6  UNK     1      28.744  -6.773  32.834  1.00  0.00     0.033 A 
HETATM   10  C7  UNK     1      30.992  -5.895  34.367  1.00  0.00     0.298 A 
HETATM   11  C8  UNK     1      28.314  -8.942  35.806  1.00  0.00     0.159 C 
HETATM   12  C9  UNK     1      29.631  -5.825  32.331  1.00  0.00     0.092 A 
HETATM   13  C11 UNK     1      27.669  -7.165  32.026  1.00  0.00     0.017 A 
HETATM   14  C13 UNK     1      29.478  -5.264  31.064  1.00  0.00     0.038 A 
HETATM   15  C14 UNK     1      27.502  -6.612  30.752  1.00  0.00     0.001 A 
HETATM   16  C15 UNK     1      29.576  -9.336  37.828  1.00  0.00     0.100 C 
HETATM   17  C16 UNK     1      28.405  -5.663  30.272  1.00  0.00     0.003 A 
ENDROOT
BRANCH   5  18
HETATM   18  C5  UNK     1      30.039  -6.317  37.331  1.00  0.00    -0.026 A 
HETATM   19  C10 UNK     1      28.786  -5.770  37.538  1.00  0.00     0.011 A 
HETATM   20  C17 UNK     1      28.633  -4.763  38.484  1.00  0.00     0.020 A 
HETATM   21  C18 UNK     1      29.757  -4.351  39.180  1.00  0.00     0.116 A 
HETATM   22  N2  UNK     1      30.992  -4.868  38.997  1.00  0.00    -0.273 NA
HETATM   23  C12 UNK     1      31.103  -5.846  38.069  1.00  0.00     0.124 A 
ENDBRANCH   5  18
BRANCH  11  24
HETATM   24  N1  UNK     1      27.444  -9.975  36.021  1.00  0.00    -0.379 N 
HETATM   25  H8  UNK     1      27.713 -10.715  36.657  1.00  0.00     0.158 HD
HETATM   26  H9  UNK     1      26.547 -10.008  35.555  1.00  0.00     0.158 HD
ENDBRANCH  11  24
TORSDOF 2
ENDMDL
MODEL 8
REMARK VINA RESULT:      -7.6     18.556     22.059
REMARK  2 active torsions:
REMARK  status: ('A' for Active; 'I' for Inactive)
REMARK    1  A    between atoms: C8_14  and  N1_4 
REMARK    2  A    between atoms: C1_7  and  C5_11 
ROOT
HETATM    1  O1  UNK     1      30.494 -10.636  33.547  1.00  0.00    -0.291 OA
HETATM    2  O2  UNK     1      28.151  -7.693  31.717  1.00  0.00    -0.274 OA
HETATM    3  O3  UNK     1      27.951  -6.607  33.712  1.00  0.00    -0.259 OA
HETATM    4  N3  UNK     1      31.363  -9.375  38.114  1.00  0.00    -0.191 NA
HETATM    5  C1  UNK     1      29.424  -8.565  35.223  1.00  0.00     0.110 C 
HETATM    6  C2  UNK     1      29.183  -8.640  33.727  1.00  0.00     0.066 A 
HETATM    7  C3  UNK     1      29.703  -9.641  33.001  1.00  0.00     0.104 A 
HETATM    8  C4  UNK     1      30.468  -9.575  35.690  1.00  0.00     0.086 C 
HETATM    9  C6  UNK     1      29.454  -9.742  31.565  1.00  0.00     0.033 A 
HETATM   10  C7  UNK     1      28.386  -7.565  33.081  1.00  0.00     0.298 A 
HETATM   11  C8  UNK     1      30.937 -10.539  34.865  1.00  0.00     0.159 C 
HETATM   12  C9  UNK     1      28.674  -8.759  30.961  1.00  0.00     0.092 A 
HETATM   13  C11 UNK     1      29.953 -10.774  30.761  1.00  0.00     0.017 A 
HETATM   14  C13 UNK     1      28.382  -8.778  29.598  1.00  0.00     0.038 A 
HETATM   15  C14 UNK     1      29.669 -10.807  29.392  1.00  0.00     0.001 A 
HETATM   16  C15 UNK     1      30.963  -9.464  37.029  1.00  0.00     0.100 C 
HETATM   17  C16 UNK     1      28.884  -9.810  28.812  1.00  0.00     0.003 A 
ENDROOT
BRANCH   5  18
HETATM   18  C5  UNK     1      28.138  -8.769  35.973  1.00  0.00    -0.026 A 
HETATM   19  C10 UNK     1      27.440  -9.957  35.859  1.00  0.00     0.011 A 
HETATM   20  C17 UNK     1      26.254 -10.118  36.567  1.00  0.00     0.020 A 
HETATM   21  C18 UNK     1      25.824  -9.066  37.359  1.00  0.00     0.116 A 
HETATM   22  N2  UNK     1      26.487  -7.896  37.488  1.00  0.00    -0.273 NA
HETATM   23  C12 UNK     1      27.636  -7.776  36.786  1.00  0.00     0.124 A 
ENDBRANCH   5  18
BRANCH  11  24
HETATM   24  N1  UNK     1      31.860 -11.489  35.207  1.00  0.00    -0.379 N 
HETATM   25  H8  UNK     1      31.750 -12.428  34.845  1.00  0.00     0.158 HD
HETATM   26  H9  UNK     1      32.638 -11.265  35.813  1.00  0.00     0.158 HD
ENDBRANCH  11  24
TORSDOF 2
ENDMDL
MODEL 9
REMARK VINA RESULT:      -7.6     18.729     22.516
REMARK  2 active torsions:
REMARK  status: ('A' for Active; 'I' for Inactive)
REMARK    1  A    between atoms: C8_14  and  N1_4 
REMARK    2  A    between atoms: C1_7  and  C5_11 
ROOT
HETATM    1  O1  UNK     1      32.358  -5.083  35.521  1.00  0.00    -0.291 OA
HETATM    2  O2  UNK     1      28.867  -7.256  36.294  1.00  0.00    -0.274 OA
HETATM    3  O3  UNK     1      29.341  -8.644  34.548  1.00  0.00    -0.259 OA
HETATM    4  N3  UNK     1      34.864  -7.271  32.038  1.00  0.00    -0.191 NA
HETATM    5  C1  UNK     1      31.719  -7.238  33.736  1.00  0.00     0.110 C 
HETATM    6  C2  UNK     1      30.863  -6.857  34.929  1.00  0.00     0.066 A 
HETATM    7  C3  UNK     1      31.211  -5.831  35.719  1.00  0.00     0.104 A 
HETATM    8  C4  UNK     1      33.054  -6.500  33.726  1.00  0.00     0.086 C 
HETATM    9  C6  UNK     1      30.380  -5.433  36.853  1.00  0.00     0.033 A 
HETATM   10  C7  UNK     1      29.649  -7.663  35.219  1.00  0.00     0.298 A 
HETATM   11  C8  UNK     1      33.306  -5.484  34.582  1.00  0.00     0.159 C 
HETATM   12  C9  UNK     1      29.220  -6.161  37.106  1.00  0.00     0.092 A 
HETATM   13  C11 UNK     1      30.683  -4.359  37.699  1.00  0.00     0.017 A 
HETATM   14  C13 UNK     1      28.365  -5.850  38.163  1.00  0.00     0.038 A 
HETATM   15  C14 UNK     1      29.835  -4.035  38.763  1.00  0.00     0.001 A 
HETATM   16  C15 UNK     1      34.054  -6.927  32.793  1.00  0.00     0.100 C 
HETATM   17  C16 UNK     1      28.679  -4.779  38.995  1.00  0.00     0.003 A 
ENDROOT
BRANCH   5  18
HETATM   18  C5  UNK     1      30.978  -6.983  32.454  1.00  0.00    -0.026 A 
HETATM   19  C10 UNK     1      30.429  -5.741  32.196  1.00  0.00     0.011 A 
HETATM   20  C17 UNK     1      29.750  -5.533  31.001  1.00  0.00     0.020 A 
HETATM   21  C18 UNK     1      29.656  -6.595  30.117  1.00  0.00     0.116 A 
HETATM   22  N2  UNK     1      30.183  -7.819  30.344  1.00  0.00    -0.273 NA
HETATM   23  C12 UNK     1      30.836  -7.983  31.516  1.00  0.00     0.124 A 
ENDBRANCH   5  18
BRANCH  11  24
HETATM   24  N1  UNK     1      34.467  -4.763  34.628  1.00  0.00    -0.379 N 
HETATM   25  H8  UNK     1      34.509  -3.943  35.222  1.00  0.00     0.158 HD
HETATM   26  H9  UNK     1      35.272  -5.034  34.080  1.00  0.00     0.158 HD
ENDBRANCH  11  24
TORSDOF 2
ENDMDL
MODEL 10
REMARK VINA RESULT:      -7.6     20.307     23.448
REMARK  2 active torsions:
REMARK  status: ('A' for Active; 'I' for Inactive)
REMARK    1  A    between atoms: C8_14  and  N1_4 
REMARK    2  A    between atoms: C1_7  and  C5_11 
ROOT
HETATM    1  O1  UNK     1      28.562  -8.323  34.993  1.00  0.00    -0.291 OA
HETATM    2  O2  UNK     1      28.941  -6.456  38.718  1.00  0.00    -0.274 OA
HETATM    3  O3  UNK     1      30.034  -4.712  37.736  1.00  0.00    -0.259 OA
HETATM    4  N3  UNK     1      30.195  -5.372  31.554  1.00  0.00    -0.191 NA
HETATM    5  C1  UNK     1      30.016  -5.849  35.091  1.00  0.00     0.110 C 
HETATM    6  C2  UNK     1      29.387  -6.501  36.309  1.00  0.00     0.066 A 
HETATM    7  C3  UNK     1      28.730  -7.664  36.198  1.00  0.00     0.104 A 
HETATM    8  C4  UNK     1      29.600  -6.534  33.793  1.00  0.00     0.086 C 
HETATM    9  C6  UNK     1      28.147  -8.317  37.367  1.00  0.00     0.033 A 
HETATM   10  C7  UNK     1      29.491  -5.806  37.619  1.00  0.00     0.298 A 
HETATM   11  C8  UNK     1      28.923  -7.705  33.797  1.00  0.00     0.159 C 
HETATM   12  C9  UNK     1      28.275  -7.691  38.604  1.00  0.00     0.092 A 
HETATM   13  C11 UNK     1      27.468  -9.541  37.314  1.00  0.00     0.017 A 
HETATM   14  C13 UNK     1      27.753  -8.244  39.773  1.00  0.00     0.038 A 
HETATM   15  C14 UNK     1      26.939 -10.109  38.478  1.00  0.00     0.001 A 
HETATM   16  C15 UNK     1      29.929  -5.892  32.556  1.00  0.00     0.100 C 
HETATM   17  C16 UNK     1      27.081  -9.461  39.706  1.00  0.00     0.003 A 
ENDROOT
BRANCH   5  18
HETATM   18  C5  UNK     1      31.513  -5.840  35.214  1.00  0.00    -0.026 A 
HETATM   19  C10 UNK     1      32.219  -4.656  35.107  1.00  0.00     0.011 A 
HETATM   20  C17 UNK     1      33.604  -4.679  35.226  1.00  0.00     0.020 A 
HETATM   21  C18 UNK     1      34.216  -5.901  35.448  1.00  0.00     0.116 A 
HETATM   22  N2  UNK     1      33.550  -7.073  35.557  1.00  0.00    -0.273 NA
HETATM   23  C12 UNK     1      32.204  -7.012  35.436  1.00  0.00     0.124 A 
ENDBRANCH   5  18
BRANCH  11  24
HETATM   24  N1  UNK     1      28.527  -8.390  32.682  1.00  0.00    -0.379 N 
HETATM   25  H8  UNK     1      28.254  -7.866  31.859  1.00  0.00     0.158 HD
HETATM   26  H9  UNK     1      28.501  -9.401  32.672  1.00  0.00     0.158 HD
ENDBRANCH  11  24
TORSDOF 2
ENDMDL
