MODEL 1
REMARK VINA RESULT:      -7.9      0.000      0.000
REMARK  7 active torsions:
REMARK  status: ('A' for Active; 'I' for Inactive)
REMARK    1  A    between atoms: C11_18  and  O3_3 
REMARK    2  A    between atoms: C19_26  and  O3_3 
REMARK    3  A    between atoms: C22_29  and  O6_6 
REMARK    4  A    between atoms: C23_30  and  O6_6 
REMARK    5  A    between atoms: C1_8  and  C10_17 
REMARK    6  A    between atoms: C11_18  and  C6_13 
REMARK    7  A    between atoms: C19_26  and  C22_29 
ROOT
HETATM    1  O1  UNK     1      30.236  -9.317  34.065  1.00  0.00    -0.293 OA
HETATM    2  N1  UNK     1      31.389  -4.724  34.194  1.00  0.00    -0.362 N 
HETATM    3  C1  UNK     1      31.049  -7.095  35.716  1.00  0.00     0.104 C 
HETATM    4  C2  UNK     1      30.739  -7.002  34.225  1.00  0.00     0.024 C 
HETATM    5  C3  UNK     1      30.896  -5.842  33.551  1.00  0.00     0.020 C 
HETATM    6  C4  UNK     1      30.557  -5.682  32.092  1.00  0.00     0.058 C 
HETATM    7  C5  UNK     1      29.590  -6.753  31.604  1.00  0.00     0.014 C 
HETATM    8  C6  UNK     1      31.720  -5.832  36.259  1.00  0.00     0.052 C 
HETATM    9  C7  UNK     1      30.072  -8.137  31.996  1.00  0.00     0.084 C 
HETATM   10  C8  UNK     1      30.318  -8.234  33.486  1.00  0.00     0.158 C 
HETATM   11  C9  UNK     1      31.838  -4.714  35.505  1.00  0.00     0.018 C 
HETATM   12  C13 UNK     1      32.434  -3.411  35.961  1.00  0.00     0.069 C 
HETATM   13  H8  UNK     1      31.493  -3.873  33.653  1.00  0.00     0.165 HD
ENDROOT
BRANCH   8  14
HETATM   14  C11 UNK     1      32.273  -5.917  37.621  1.00  0.00     0.292 C 
HETATM   15  O5  UNK     1      31.796  -5.330  38.574  1.00  0.00    -0.259 OA
BRANCH  14  16
HETATM   16  O3  UNK     1      33.354  -6.733  37.592  1.00  0.00    -0.316 OA
BRANCH  16  17
HETATM   17  C19 UNK     1      34.606  -6.075  37.371  1.00  0.00     0.205 C 
BRANCH  17  18
HETATM   18  C22 UNK     1      35.142  -6.476  36.012  1.00  0.00     0.202 C 
BRANCH  18  19
HETATM   19  O6  UNK     1      34.644  -7.767  35.678  1.00  0.00    -0.349 OA
BRANCH  19  20
HETATM   20  C23 UNK     1      34.331  -7.985  34.362  1.00  0.00     0.068 A 
HETATM   21  C24 UNK     1      33.939  -9.254  33.950  1.00  0.00     0.037 A 
HETATM   22  C26 UNK     1      33.620  -9.477  32.611  1.00  0.00     0.003 A 
HETATM   23  C28 UNK     1      33.694  -8.430  31.692  1.00  0.00     0.000 A 
HETATM   24  C27 UNK     1      34.087  -7.160  32.113  1.00  0.00     0.003 A 
HETATM   25  C25 UNK     1      34.407  -6.937  33.452  1.00  0.00     0.037 A 
ENDBRANCH  19  20
ENDBRANCH  18  19
ENDBRANCH  17  18
ENDBRANCH  16  17
ENDBRANCH  14  16
ENDBRANCH   8  14
BRANCH   3  26
HETATM   26  C10 UNK     1      29.793  -7.391  36.490  1.00  0.00     0.029 A 
HETATM   27  C12 UNK     1      29.806  -8.515  37.460  1.00  0.00     0.194 A 
HETATM   28  O4  UNK     1      30.800  -9.203  37.646  1.00  0.00    -0.287 OA
HETATM   29  C15 UNK     1      28.549  -8.763  38.190  1.00  0.00     0.048 A 
HETATM   30  C16 UNK     1      27.446  -7.946  37.937  1.00  0.00     0.089 A 
HETATM   31  C17 UNK     1      28.460  -9.798  39.124  1.00  0.00     0.018 A 
HETATM   32  O2  UNK     1      27.478  -6.916  37.032  1.00  0.00    -0.321 OA
HETATM   33  C18 UNK     1      26.246  -8.162  38.618  1.00  0.00     0.038 A 
HETATM   34  C14 UNK     1      28.654  -6.698  36.359  1.00  0.00     0.154 A 
HETATM   35  C21 UNK     1      26.155  -9.195  39.551  1.00  0.00     0.003 A 
HETATM   36  C20 UNK     1      27.259 -10.010  39.803  1.00  0.00     0.001 A 
ENDBRANCH   3  26
TORSDOF 7
ENDMDL
MODEL 2
REMARK VINA RESULT:      -7.8      2.744      4.914
REMARK  7 active torsions:
REMARK  status: ('A' for Active; 'I' for Inactive)
REMARK    1  A    between atoms: C11_18  and  O3_3 
REMARK    2  A    between atoms: C19_26  and  O3_3 
REMARK    3  A    between atoms: C22_29  and  O6_6 
REMARK    4  A    between atoms: C23_30  and  O6_6 
REMARK    5  A    between atoms: C1_8  and  C10_17 
REMARK    6  A    between atoms: C11_18  and  C6_13 
REMARK    7  A    between atoms: C19_26  and  C22_29 
ROOT
HETATM    1  O1  UNK     1      32.206  -9.291  34.761  1.00  0.00    -0.293 OA
HETATM    2  N1  UNK     1      28.868  -9.899  31.455  1.00  0.00    -0.362 N 
HETATM    3  C1  UNK     1      29.910  -8.153  33.436  1.00  0.00     0.104 C 
HETATM    4  C2  UNK     1      30.451  -9.558  33.185  1.00  0.00     0.024 C 
HETATM    5  C3  UNK     1      29.903 -10.358  32.245  1.00  0.00     0.020 C 
HETATM    6  C4  UNK     1      30.364 -11.770  31.992  1.00  0.00     0.058 C 
HETATM    7  C5  UNK     1      31.119 -12.351  33.180  1.00  0.00     0.014 C 
HETATM    8  C6  UNK     1      28.870  -7.728  32.398  1.00  0.00     0.052 C 
HETATM    9  C7  UNK     1      32.207 -11.402  33.647  1.00  0.00     0.084 C 
HETATM   10  C8  UNK     1      31.648 -10.029  33.950  1.00  0.00     0.158 C 
HETATM   11  C9  UNK     1      28.381  -8.601  31.487  1.00  0.00     0.018 C 
HETATM   12  C13 UNK     1      27.325  -8.295  30.461  1.00  0.00     0.069 C 
HETATM   13  H8  UNK     1      28.485 -10.530  30.760  1.00  0.00     0.165 HD
ENDROOT
BRANCH   8  14
HETATM   14  C11 UNK     1      28.471  -6.310  32.412  1.00  0.00     0.292 C 
HETATM   15  O5  UNK     1      27.371  -5.929  32.766  1.00  0.00    -0.259 OA
BRANCH  14  16
HETATM   16  O3  UNK     1      29.518  -5.568  31.977  1.00  0.00    -0.316 OA
BRANCH  16  17
HETATM   17  C19 UNK     1      29.441  -5.156  30.608  1.00  0.00     0.205 C 
BRANCH  17  18
HETATM   18  C22 UNK     1      30.735  -5.522  29.908  1.00  0.00     0.202 C 
BRANCH  18  19
HETATM   19  O6  UNK     1      30.631  -6.849  29.404  1.00  0.00    -0.349 OA
BRANCH  19  20
HETATM   20  C23 UNK     1      31.571  -7.748  29.834  1.00  0.00     0.068 A 
HETATM   21  C24 UNK     1      32.463  -7.383  30.836  1.00  0.00     0.037 A 
HETATM   22  C26 UNK     1      33.421  -8.297  31.274  1.00  0.00     0.003 A 
HETATM   23  C28 UNK     1      33.481  -9.570  30.708  1.00  0.00     0.000 A 
HETATM   24  C27 UNK     1      32.583  -9.929  29.703  1.00  0.00     0.003 A 
HETATM   25  C25 UNK     1      31.625  -9.015  29.265  1.00  0.00     0.037 A 
ENDBRANCH  19  20
ENDBRANCH  18  19
ENDBRANCH  17  18
ENDBRANCH  16  17
ENDBRANCH  14  16
ENDBRANCH   8  14
BRANCH   3  26
HETATM   26  C10 UNK     1      29.331  -8.059  34.822  1.00  0.00     0.029 A 
HETATM   27  C12 UNK     1      29.744  -6.924  35.686  1.00  0.00     0.194 A 
HETATM   28  O4  UNK     1      30.535  -6.071  35.308  1.00  0.00    -0.287 OA
HETATM   29  C15 UNK     1      29.148  -6.880  37.035  1.00  0.00     0.048 A 
HETATM   30  C16 UNK     1      28.251  -7.880  37.413  1.00  0.00     0.089 A 
HETATM   31  C17 UNK     1      29.474  -5.853  37.924  1.00  0.00     0.018 A 
HETATM   32  O2  UNK     1      27.897  -8.912  36.580  1.00  0.00    -0.321 OA
HETATM   33  C18 UNK     1      27.675  -7.858  38.684  1.00  0.00     0.038 A 
HETATM   34  C14 UNK     1      28.460  -8.940  35.328  1.00  0.00     0.154 A 
HETATM   35  C21 UNK     1      27.999  -6.833  39.573  1.00  0.00     0.003 A 
HETATM   36  C20 UNK     1      28.895  -5.834  39.194  1.00  0.00     0.001 A 
ENDBRANCH   3  26
TORSDOF 7
ENDMDL
MODEL 3
REMARK VINA RESULT:      -7.7      2.804      5.986
REMARK  7 active torsions:
REMARK  status: ('A' for Active; 'I' for Inactive)
REMARK    1  A    between atoms: C11_18  and  O3_3 
REMARK    2  A    between atoms: C19_26  and  O3_3 
REMARK    3  A    between atoms: C22_29  and  O6_6 
REMARK    4  A    between atoms: C23_30  and  O6_6 
REMARK    5  A    between atoms: C1_8  and  C10_17 
REMARK    6  A    between atoms: C11_18  and  C6_13 
REMARK    7  A    between atoms: C19_26  and  C22_29 
ROOT
HETATM    1  O1  UNK     1      26.765  -9.579  36.247  1.00  0.00    -0.293 OA
HETATM    2  N1  UNK     1      29.631  -6.165  37.851  1.00  0.00    -0.362 N 
HETATM    3  C1  UNK     1      28.900  -7.746  35.610  1.00  0.00     0.104 C 
HETATM    4  C2  UNK     1      28.294  -7.926  36.999  1.00  0.00     0.024 C 
HETATM    5  C3  UNK     1      28.695  -7.162  38.039  1.00  0.00     0.020 C 
HETATM    6  C4  UNK     1      28.168  -7.331  39.440  1.00  0.00     0.058 C 
HETATM    7  C5  UNK     1      27.558  -8.709  39.663  1.00  0.00     0.014 C 
HETATM    8  C6  UNK     1      29.808  -6.519  35.517  1.00  0.00     0.052 C 
HETATM    9  C7  UNK     1      26.564  -9.045  38.565  1.00  0.00     0.084 C 
HETATM   10  C8  UNK     1      27.194  -8.921  37.195  1.00  0.00     0.158 C 
HETATM   11  C9  UNK     1      30.152  -5.808  36.617  1.00  0.00     0.018 C 
HETATM   12  C13 UNK     1      31.075  -4.620  36.637  1.00  0.00     0.069 C 
HETATM   13  H8  UNK     1      29.904  -5.612  38.656  1.00  0.00     0.165 HD
ENDROOT
BRANCH   8  14
HETATM   14  C11 UNK     1      30.242  -6.125  34.166  1.00  0.00     0.292 C 
HETATM   15  O5  UNK     1      31.410  -6.086  33.824  1.00  0.00    -0.259 OA
BRANCH  14  16
HETATM   16  O3  UNK     1      29.142  -5.835  33.432  1.00  0.00    -0.316 OA
BRANCH  16  17
HETATM   17  C19 UNK     1      29.405  -5.279  32.139  1.00  0.00     0.205 C 
BRANCH  17  18
HETATM   18  C22 UNK     1      28.844  -6.207  31.079  1.00  0.00     0.202 C 
BRANCH  18  19
HETATM   19  O6  UNK     1      29.880  -7.068  30.619  1.00  0.00    -0.349 OA
BRANCH  19  20
HETATM   20  C23 UNK     1      29.507  -8.096  29.794  1.00  0.00     0.068 A 
HETATM   21  C24 UNK     1      28.188  -8.537  29.799  1.00  0.00     0.037 A 
HETATM   22  C26 UNK     1      27.807  -9.584  28.960  1.00  0.00     0.003 A 
HETATM   23  C28 UNK     1      28.747 -10.182  28.120  1.00  0.00     0.000 A 
HETATM   24  C27 UNK     1      30.067  -9.734  28.121  1.00  0.00     0.003 A 
HETATM   25  C25 UNK     1      30.449  -8.688  28.960  1.00  0.00     0.037 A 
ENDBRANCH  19  20
ENDBRANCH  18  19
ENDBRANCH  17  18
ENDBRANCH  16  17
ENDBRANCH  14  16
ENDBRANCH   8  14
BRANCH   3  26
HETATM   26  C10 UNK     1      29.655  -8.984  35.208  1.00  0.00     0.029 A 
HETATM   27  C12 UNK     1      29.369  -9.589  33.883  1.00  0.00     0.194 A 
HETATM   28  O4  UNK     1      28.544  -9.114  33.114  1.00  0.00    -0.287 OA
HETATM   29  C15 UNK     1      30.135 -10.801  33.539  1.00  0.00     0.048 A 
HETATM   30  C16 UNK     1      31.064 -11.299  34.454  1.00  0.00     0.089 A 
HETATM   31  C17 UNK     1      29.939 -11.445  32.315  1.00  0.00     0.018 A 
HETATM   32  O2  UNK     1      31.298 -10.706  35.669  1.00  0.00    -0.321 OA
HETATM   33  C18 UNK     1      31.801 -12.444  34.149  1.00  0.00     0.038 A 
HETATM   34  C14 UNK     1      30.576  -9.579  35.976  1.00  0.00     0.154 A 
HETATM   35  C21 UNK     1      31.606 -13.089  32.928  1.00  0.00     0.003 A 
HETATM   36  C20 UNK     1      30.677 -12.591  32.014  1.00  0.00     0.001 A 
ENDBRANCH   3  26
TORSDOF 7
ENDMDL
MODEL 4
REMARK VINA RESULT:      -7.6      1.351      1.800
REMARK  7 active torsions:
REMARK  status: ('A' for Active; 'I' for Inactive)
REMARK    1  A    between atoms: C11_18  and  O3_3 
REMARK    2  A    between atoms: C19_26  and  O3_3 
REMARK    3  A    between atoms: C22_29  and  O6_6 
REMARK    4  A    between atoms: C23_30  and  O6_6 
REMARK    5  A    between atoms: C1_8  and  C10_17 
REMARK    6  A    between atoms: C11_18  and  C6_13 
REMARK    7  A    between atoms: C19_26  and  C22_29 
ROOT
HETATM    1  O1  UNK     1      28.656  -9.460  33.101  1.00  0.00    -0.293 OA
HETATM    2  N1  UNK     1      30.717  -5.195  33.105  1.00  0.00    -0.362 N 
HETATM    3  C1  UNK     1      30.304  -7.596  34.561  1.00  0.00     0.104 C 
HETATM    4  C2  UNK     1      29.646  -7.305  33.215  1.00  0.00     0.024 C 
HETATM    5  C3  UNK     1      29.857  -6.136  32.574  1.00  0.00     0.020 C 
HETATM    6  C4  UNK     1      29.194  -5.777  31.270  1.00  0.00     0.058 C 
HETATM    7  C5  UNK     1      27.936  -6.598  31.019  1.00  0.00     0.014 C 
HETATM    8  C6  UNK     1      31.335  -6.537  34.954  1.00  0.00     0.052 C 
HETATM    9  C7  UNK     1      28.210  -8.079  31.206  1.00  0.00     0.084 C 
HETATM   10  C8  UNK     1      28.806  -8.361  32.568  1.00  0.00     0.158 C 
HETATM   11  C9  UNK     1      31.481  -5.394  34.244  1.00  0.00     0.018 C 
HETATM   12  C13 UNK     1      32.429  -4.273  34.576  1.00  0.00     0.069 C 
HETATM   13  H8  UNK     1      30.850  -4.330  32.593  1.00  0.00     0.165 HD
ENDROOT
BRANCH   8  14
HETATM   14  C11 UNK     1      32.192  -6.853  36.109  1.00  0.00     0.292 C 
HETATM   15  O5  UNK     1      32.114  -6.274  37.177  1.00  0.00    -0.259 OA
BRANCH  14  16
HETATM   16  O3  UNK     1      33.029  -7.858  35.758  1.00  0.00    -0.316 OA
BRANCH  16  17
HETATM   17  C19 UNK     1      34.304  -7.438  35.258  1.00  0.00     0.205 C 
BRANCH  17  18
HETATM   18  C22 UNK     1      34.582  -8.154  33.951  1.00  0.00     0.202 C 
BRANCH  18  19
HETATM   19  O6  UNK     1      34.027  -7.399  32.880  1.00  0.00    -0.349 OA
BRANCH  19  20
HETATM   20  C23 UNK     1      33.182  -8.063  32.030  1.00  0.00     0.068 A 
HETATM   21  C24 UNK     1      32.777  -9.357  32.336  1.00  0.00     0.037 A 
HETATM   22  C26 UNK     1      31.916 -10.034  31.472  1.00  0.00     0.003 A 
HETATM   23  C28 UNK     1      31.466  -9.412  30.307  1.00  0.00     0.000 A 
HETATM   24  C27 UNK     1      31.877  -8.114  30.007  1.00  0.00     0.003 A 
HETATM   25  C25 UNK     1      32.737  -7.437  30.871  1.00  0.00     0.037 A 
ENDBRANCH  19  20
ENDBRANCH  18  19
ENDBRANCH  17  18
ENDBRANCH  16  17
ENDBRANCH  14  16
ENDBRANCH   8  14
BRANCH   3  26
HETATM   26  C10 UNK     1      29.257  -7.726  35.634  1.00  0.00     0.029 A 
HETATM   27  C12 UNK     1      29.371  -8.844  36.604  1.00  0.00     0.194 A 
HETATM   28  O4  UNK     1      30.285  -9.656  36.557  1.00  0.00    -0.287 OA
HETATM   29  C15 UNK     1      28.318  -8.926  37.634  1.00  0.00     0.048 A 
HETATM   30  C16 UNK     1      27.300  -7.971  37.640  1.00  0.00     0.089 A 
HETATM   31  C17 UNK     1      28.337  -9.942  38.592  1.00  0.00     0.018 A 
HETATM   32  O2  UNK     1      27.233  -6.953  36.723  1.00  0.00    -0.321 OA
HETATM   33  C18 UNK     1      26.294  -8.029  38.605  1.00  0.00     0.038 A 
HETATM   34  C14 UNK     1      28.220  -6.889  35.770  1.00  0.00     0.154 A 
HETATM   35  C21 UNK     1      26.311  -9.043  39.564  1.00  0.00     0.003 A 
HETATM   36  C20 UNK     1      27.329  -9.996  39.556  1.00  0.00     0.001 A 
ENDBRANCH   3  26
TORSDOF 7
ENDMDL
MODEL 5
REMARK VINA RESULT:      -7.5      2.424      6.433
REMARK  7 active torsions:
REMARK  status: ('A' for Active; 'I' for Inactive)
REMARK    1  A    between atoms: C11_18  and  O3_3 
REMARK    2  A    between atoms: C19_26  and  O3_3 
REMARK    3  A    between atoms: C22_29  and  O6_6 
REMARK    4  A    between atoms: C23_30  and  O6_6 
REMARK    5  A    between atoms: C1_8  and  C10_17 
REMARK    6  A    between atoms: C11_18  and  C6_13 
REMARK    7  A    between atoms: C19_26  and  C22_29 
ROOT
HETATM    1  O1  UNK     1      33.452  -4.615  34.918  1.00  0.00    -0.293 OA
HETATM    2  N1  UNK     1      29.872  -6.360  37.484  1.00  0.00    -0.362 N 
HETATM    3  C1  UNK     1      31.758  -6.893  35.431  1.00  0.00     0.104 C 
HETATM    4  C2  UNK     1      31.608  -5.531  36.101  1.00  0.00     0.024 C 
HETATM    5  C3  UNK     1      30.678  -5.323  37.058  1.00  0.00     0.020 C 
HETATM    6  C4  UNK     1      30.453  -3.986  37.715  1.00  0.00     0.058 C 
HETATM    7  C5  UNK     1      30.995  -2.835  36.878  1.00  0.00     0.014 C 
HETATM    8  C6  UNK     1      30.909  -7.976  36.100  1.00  0.00     0.052 C 
HETATM    9  C7  UNK     1      32.427  -3.101  36.453  1.00  0.00     0.084 C 
HETATM   10  C8  UNK     1      32.552  -4.428  35.736  1.00  0.00     0.158 C 
HETATM   11  C9  UNK     1      30.002  -7.672  37.058  1.00  0.00     0.018 C 
HETATM   12  C13 UNK     1      29.087  -8.654  37.739  1.00  0.00     0.069 C 
HETATM   13  H8  UNK     1      29.187  -6.164  38.205  1.00  0.00     0.165 HD
ENDROOT
BRANCH   8  14
HETATM   14  C11 UNK     1      31.168  -9.364  35.682  1.00  0.00     0.292 C 
HETATM   15  O5  UNK     1      32.061 -10.047  36.147  1.00  0.00    -0.259 OA
BRANCH  14  16
HETATM   16  O3  UNK     1      30.262  -9.700  34.732  1.00  0.00    -0.316 OA
BRANCH  16  17
HETATM   17  C19 UNK     1      30.522 -10.935  34.056  1.00  0.00     0.205 C 
BRANCH  17  18
HETATM   18  C22 UNK     1      30.771 -10.651  32.587  1.00  0.00     0.202 C 
BRANCH  18  19
HETATM   19  O6  UNK     1      29.724  -9.824  32.090  1.00  0.00    -0.349 OA
BRANCH  19  20
HETATM   20  C23 UNK     1      29.477  -9.886  30.744  1.00  0.00     0.068 A 
HETATM   21  C24 UNK     1      30.393 -10.510  29.904  1.00  0.00     0.037 A 
HETATM   22  C26 UNK     1      30.141 -10.573  28.534  1.00  0.00     0.003 A 
HETATM   23  C28 UNK     1      28.975 -10.013  28.012  1.00  0.00     0.000 A 
HETATM   24  C27 UNK     1      28.061  -9.389  28.861  1.00  0.00     0.003 A 
HETATM   25  C25 UNK     1      28.313  -9.326  30.231  1.00  0.00     0.037 A 
ENDBRANCH  19  20
ENDBRANCH  18  19
ENDBRANCH  17  18
ENDBRANCH  16  17
ENDBRANCH  14  16
ENDBRANCH   8  14
BRANCH   3  26
HETATM   26  C10 UNK     1      31.417  -6.794  33.969  1.00  0.00     0.029 A 
HETATM   27  C12 UNK     1      32.393  -7.312  32.977  1.00  0.00     0.194 A 
HETATM   28  O4  UNK     1      33.458  -7.813  33.311  1.00  0.00    -0.287 OA
HETATM   29  C15 UNK     1      32.010  -7.188  31.558  1.00  0.00     0.048 A 
HETATM   30  C16 UNK     1      30.783  -6.607  31.234  1.00  0.00     0.089 A 
HETATM   31  C17 UNK     1      32.861  -7.645  30.548  1.00  0.00     0.018 A 
HETATM   32  O2  UNK     1      29.910  -6.142  32.185  1.00  0.00    -0.321 OA
HETATM   33  C18 UNK     1      30.400  -6.481  29.898  1.00  0.00     0.038 A 
HETATM   34  C14 UNK     1      30.280  -6.263  33.502  1.00  0.00     0.154 A 
HETATM   35  C21 UNK     1      31.248  -6.937  28.889  1.00  0.00     0.003 A 
HETATM   36  C20 UNK     1      32.474  -7.517  29.213  1.00  0.00     0.001 A 
ENDBRANCH   3  26
TORSDOF 7
ENDMDL
MODEL 6
REMARK VINA RESULT:      -7.5      2.296      5.667
REMARK  7 active torsions:
REMARK  status: ('A' for Active; 'I' for Inactive)
REMARK    1  A    between atoms: C11_18  and  O3_3 
REMARK    2  A    between atoms: C19_26  and  O3_3 
REMARK    3  A    between atoms: C22_29  and  O6_6 
REMARK    4  A    between atoms: C23_30  and  O6_6 
REMARK    5  A    between atoms: C1_8  and  C10_17 
REMARK    6  A    between atoms: C11_18  and  C6_13 
REMARK    7  A    between atoms: C19_26  and  C22_29 
ROOT
HETATM    1  O1  UNK     1      30.355  -3.736  37.324  1.00  0.00    -0.293 OA
HETATM    2  N1  UNK     1      29.845  -8.347  38.286  1.00  0.00    -0.362 N 
HETATM    3  C1  UNK     1      31.237  -6.420  36.736  1.00  0.00     0.104 C 
HETATM    4  C2  UNK     1      30.096  -6.069  37.687  1.00  0.00     0.024 C 
HETATM    5  C3  UNK     1      29.450  -7.027  38.385  1.00  0.00     0.020 C 
HETATM    6  C4  UNK     1      28.286  -6.743  39.298  1.00  0.00     0.058 C 
HETATM    7  C5  UNK     1      27.616  -5.413  38.977  1.00  0.00     0.014 C 
HETATM    8  C6  UNK     1      31.659  -7.886  36.838  1.00  0.00     0.052 C 
HETATM    9  C7  UNK     1      28.641  -4.297  38.888  1.00  0.00     0.084 C 
HETATM   10  C8  UNK     1      29.734  -4.632  37.896  1.00  0.00     0.158 C 
HETATM   11  C9  UNK     1      30.951  -8.777  37.569  1.00  0.00     0.018 C 
HETATM   12  C13 UNK     1      31.254 -10.246  37.693  1.00  0.00     0.069 C 
HETATM   13  H8  UNK     1      29.336  -9.036  38.827  1.00  0.00     0.165 HD
ENDROOT
BRANCH   8  14
HETATM   14  C11 UNK     1      32.902  -8.261  36.142  1.00  0.00     0.292 C 
HETATM   15  O5  UNK     1      34.009  -7.933  36.527  1.00  0.00    -0.259 OA
BRANCH  14  16
HETATM   16  O3  UNK     1      32.576  -8.999  35.054  1.00  0.00    -0.316 OA
BRANCH  16  17
HETATM   17  C19 UNK     1      33.255  -8.633  33.848  1.00  0.00     0.205 C 
BRANCH  17  18
HETATM   18  C22 UNK     1      32.673  -9.425  32.693  1.00  0.00     0.202 C 
BRANCH  18  19
HETATM   19  O6  UNK     1      31.277  -9.162  32.606  1.00  0.00    -0.349 OA
BRANCH  19  20
HETATM   20  C23 UNK     1      30.760  -8.990  31.349  1.00  0.00     0.068 A 
HETATM   21  C24 UNK     1      31.444  -8.207  30.425  1.00  0.00     0.037 A 
HETATM   22  C26 UNK     1      30.918  -8.032  29.145  1.00  0.00     0.003 A 
HETATM   23  C28 UNK     1      29.712  -8.640  28.797  1.00  0.00     0.000 A 
HETATM   24  C27 UNK     1      29.032  -9.423  29.729  1.00  0.00     0.003 A 
HETATM   25  C25 UNK     1      29.558  -9.599  31.009  1.00  0.00     0.037 A 
ENDBRANCH  19  20
ENDBRANCH  18  19
ENDBRANCH  17  18
ENDBRANCH  16  17
ENDBRANCH  14  16
ENDBRANCH   8  14
BRANCH   3  26
HETATM   26  C10 UNK     1      30.854  -6.086  35.319  1.00  0.00     0.029 A 
HETATM   27  C12 UNK     1      29.581  -6.631  34.782  1.00  0.00     0.194 A 
HETATM   28  O4  UNK     1      28.840  -7.337  35.453  1.00  0.00    -0.287 OA
HETATM   29  C15 UNK     1      29.254  -6.275  33.389  1.00  0.00     0.048 A 
HETATM   30  C16 UNK     1      30.136  -5.466  32.671  1.00  0.00     0.089 A 
HETATM   31  C17 UNK     1      28.079  -6.738  32.792  1.00  0.00     0.018 A 
HETATM   32  O2  UNK     1      31.303  -4.984  33.207  1.00  0.00    -0.321 OA
HETATM   33  C18 UNK     1      29.846  -5.116  31.351  1.00  0.00     0.038 A 
HETATM   34  C14 UNK     1      31.594  -5.323  34.505  1.00  0.00     0.154 A 
HETATM   35  C21 UNK     1      28.673  -5.578  30.753  1.00  0.00     0.003 A 
HETATM   36  C20 UNK     1      27.793  -6.386  31.472  1.00  0.00     0.001 A 
ENDBRANCH   3  26
TORSDOF 7
ENDMDL
MODEL 7
REMARK VINA RESULT:      -7.4      2.183      5.112
REMARK  7 active torsions:
REMARK  status: ('A' for Active; 'I' for Inactive)
REMARK    1  A    between atoms: C11_18  and  O3_3 
REMARK    2  A    between atoms: C19_26  and  O3_3 
REMARK    3  A    between atoms: C22_29  and  O6_6 
REMARK    4  A    between atoms: C23_30  and  O6_6 
REMARK    5  A    between atoms: C1_8  and  C10_17 
REMARK    6  A    between atoms: C11_18  and  C6_13 
REMARK    7  A    between atoms: C19_26  and  C22_29 
ROOT
HETATM    1  O1  UNK     1      30.214  -4.731  36.942  1.00  0.00    -0.293 OA
HETATM    2  N1  UNK     1      32.435  -7.223  33.580  1.00  0.00    -0.362 N 
HETATM    3  C1  UNK     1      30.003  -6.851  34.995  1.00  0.00     0.104 C 
HETATM    4  C2  UNK     1      31.284  -6.082  35.307  1.00  0.00     0.024 C 
HETATM    5  C3  UNK     1      32.422  -6.314  34.619  1.00  0.00     0.020 C 
HETATM    6  C4  UNK     1      33.725  -5.621  34.919  1.00  0.00     0.058 C 
HETATM    7  C5  UNK     1      33.760  -5.046  36.329  1.00  0.00     0.014 C 
HETATM    8  C6  UNK     1      30.124  -7.710  33.736  1.00  0.00     0.052 C 
HETATM    9  C7  UNK     1      32.520  -4.215  36.606  1.00  0.00     0.084 C 
HETATM   10  C8  UNK     1      31.257  -5.008  36.350  1.00  0.00     0.158 C 
HETATM   11  C9  UNK     1      31.310  -7.881  33.107  1.00  0.00     0.018 C 
HETATM   12  C13 UNK     1      31.542  -8.743  31.896  1.00  0.00     0.069 C 
HETATM   13  H8  UNK     1      33.309  -7.368  33.087  1.00  0.00     0.165 HD
ENDROOT
BRANCH   8  14
HETATM   14  C11 UNK     1      28.876  -8.296  33.219  1.00  0.00     0.292 C 
HETATM   15  O5  UNK     1      28.742  -9.482  32.980  1.00  0.00    -0.259 OA
BRANCH  14  16
HETATM   16  O3  UNK     1      27.965  -7.303  33.076  1.00  0.00    -0.316 OA
BRANCH  16  17
HETATM   17  C19 UNK     1      28.254  -6.361  32.038  1.00  0.00     0.205 C 
BRANCH  17  18
HETATM   18  C22 UNK     1      27.673  -6.870  30.733  1.00  0.00     0.202 C 
BRANCH  18  19
HETATM   19  O6  UNK     1      28.646  -6.726  29.704  1.00  0.00    -0.349 OA
BRANCH  19  20
HETATM   20  C23 UNK     1      29.200  -7.880  29.214  1.00  0.00     0.068 A 
HETATM   21  C24 UNK     1      28.484  -9.070  29.285  1.00  0.00     0.037 A 
HETATM   22  C26 UNK     1      29.047 -10.244  28.786  1.00  0.00     0.003 A 
HETATM   23  C28 UNK     1      30.321 -10.222  28.220  1.00  0.00     0.000 A 
HETATM   24  C27 UNK     1      31.033  -9.025  28.152  1.00  0.00     0.003 A 
HETATM   25  C25 UNK     1      30.470  -7.850  28.651  1.00  0.00     0.037 A 
ENDBRANCH  19  20
ENDBRANCH  18  19
ENDBRANCH  17  18
ENDBRANCH  16  17
ENDBRANCH  14  16
ENDBRANCH   8  14
BRANCH   3  26
HETATM   26  C10 UNK     1      29.609  -7.703  36.171  1.00  0.00     0.029 A 
HETATM   27  C12 UNK     1      28.238  -7.557  36.724  1.00  0.00     0.194 A 
HETATM   28  O4  UNK     1      27.427  -6.769  36.256  1.00  0.00    -0.287 OA
HETATM   29  C15 UNK     1      27.904  -8.414  37.877  1.00  0.00     0.048 A 
HETATM   30  C16 UNK     1      28.869  -9.293  38.370  1.00  0.00     0.089 A 
HETATM   31  C17 UNK     1      26.640  -8.350  38.469  1.00  0.00     0.018 A 
HETATM   32  O2  UNK     1      30.125  -9.397  37.827  1.00  0.00    -0.321 OA
HETATM   33  C18 UNK     1      28.574 -10.114  39.460  1.00  0.00     0.038 A 
HETATM   34  C14 UNK     1      30.422  -8.592  36.755  1.00  0.00     0.154 A 
HETATM   35  C21 UNK     1      27.313 -10.053  40.052  1.00  0.00     0.003 A 
HETATM   36  C20 UNK     1      26.349  -9.173  39.559  1.00  0.00     0.001 A 
ENDBRANCH   3  26
TORSDOF 7
ENDMDL
MODEL 8
REMARK VINA RESULT:      -7.4      2.402      5.894
REMARK  7 active torsions:
REMARK  status: ('A' for Active; 'I' for Inactive)
REMARK    1  A    between atoms: C11_18  and  O3_3 
REMARK    2  A    between atoms: C19_26  and  O3_3 
REMARK    3  A    between atoms: C22_29  and  O6_6 
REMARK    4  A    between atoms: C23_30  and  O6_6 
REMARK    5  A    between atoms: C1_8  and  C10_17 
REMARK    6  A    between atoms: C11_18  and  C6_13 
REMARK    7  A    between atoms: C19_26  and  C22_29 
ROOT
HETATM    1  O1  UNK     1      30.023  -6.200  35.563  1.00  0.00    -0.293 OA
HETATM    2  N1  UNK     1      33.120  -9.767  35.194  1.00  0.00    -0.362 N 
HETATM    3  C1  UNK     1      31.843  -7.626  33.836  1.00  0.00     0.104 C 
HETATM    4  C2  UNK     1      31.520  -8.021  35.275  1.00  0.00     0.024 C 
HETATM    5  C3  UNK     1      32.140  -9.064  35.867  1.00  0.00     0.020 C 
HETATM    6  C4  UNK     1      31.824  -9.528  37.265  1.00  0.00     0.058 C 
HETATM    7  C5  UNK     1      30.452  -9.058  37.731  1.00  0.00     0.014 C 
HETATM    8  C6  UNK     1      33.040  -8.391  33.269  1.00  0.00     0.052 C 
HETATM    9  C7  UNK     1      30.284  -7.566  37.503  1.00  0.00     0.084 C 
HETATM   10  C8  UNK     1      30.548  -7.197  36.060  1.00  0.00     0.158 C 
HETATM   11  C9  UNK     1      33.602  -9.423  33.940  1.00  0.00     0.018 C 
HETATM   12  C13 UNK     1      34.746 -10.267  33.448  1.00  0.00     0.069 C 
HETATM   13  H8  UNK     1      33.563 -10.542  35.673  1.00  0.00     0.165 HD
ENDROOT
BRANCH   8  14
HETATM   14  C11 UNK     1      33.576  -7.911  31.984  1.00  0.00     0.292 C 
HETATM   15  O5  UNK     1      33.440  -8.514  30.936  1.00  0.00    -0.259 OA
BRANCH  14  16
HETATM   16  O3  UNK     1      34.210  -6.733  32.199  1.00  0.00    -0.316 OA
BRANCH  16  17
HETATM   17  C19 UNK     1      35.625  -6.834  32.395  1.00  0.00     0.205 C 
BRANCH  17  18
HETATM   18  C22 UNK     1      35.952  -6.469  33.830  1.00  0.00     0.202 C 
BRANCH  18  19
HETATM   19  O6  UNK     1      35.139  -5.370  34.227  1.00  0.00    -0.349 OA
BRANCH  19  20
HETATM   20  C23 UNK     1      34.515  -5.472  35.442  1.00  0.00     0.068 A 
HETATM   21  C24 UNK     1      34.899  -6.470  36.330  1.00  0.00     0.037 A 
HETATM   22  C26 UNK     1      34.264  -6.575  37.568  1.00  0.00     0.003 A 
HETATM   23  C28 UNK     1      33.248  -5.682  37.909  1.00  0.00     0.000 A 
HETATM   24  C27 UNK     1      32.868  -4.684  37.012  1.00  0.00     0.003 A 
HETATM   25  C25 UNK     1      33.503  -4.579  35.775  1.00  0.00     0.037 A 
ENDBRANCH  19  20
ENDBRANCH  18  19
ENDBRANCH  17  18
ENDBRANCH  16  17
ENDBRANCH  14  16
ENDBRANCH   8  14
BRANCH   3  26
HETATM   26  C10 UNK     1      30.636  -7.824  32.960  1.00  0.00     0.029 A 
HETATM   27  C12 UNK     1      30.080  -6.649  32.243  1.00  0.00     0.194 A 
HETATM   28  O4  UNK     1      30.570  -5.532  32.344  1.00  0.00    -0.287 OA
HETATM   29  C15 UNK     1      28.896  -6.898  31.399  1.00  0.00     0.048 A 
HETATM   30  C16 UNK     1      28.379  -8.192  31.322  1.00  0.00     0.089 A 
HETATM   31  C17 UNK     1      28.299  -5.857  30.685  1.00  0.00     0.018 A 
HETATM   32  O2  UNK     1      28.926  -9.251  32.002  1.00  0.00    -0.321 OA
HETATM   33  C18 UNK     1      27.260  -8.451  30.529  1.00  0.00     0.038 A 
HETATM   34  C14 UNK     1      30.027  -9.004  32.784  1.00  0.00     0.154 A 
HETATM   35  C21 UNK     1      26.662  -7.412  29.814  1.00  0.00     0.003 A 
HETATM   36  C20 UNK     1      27.180  -6.119  29.893  1.00  0.00     0.001 A 
ENDBRANCH   3  26
TORSDOF 7
ENDMDL
MODEL 9
REMARK VINA RESULT:      -7.4      2.463      4.679
REMARK  7 active torsions:
REMARK  status: ('A' for Active; 'I' for Inactive)
REMARK    1  A    between atoms: C11_18  and  O3_3 
REMARK    2  A    between atoms: C19_26  and  O3_3 
REMARK    3  A    between atoms: C22_29  and  O6_6 
REMARK    4  A    between atoms: C23_30  and  O6_6 
REMARK    5  A    between atoms: C1_8  and  C10_17 
REMARK    6  A    between atoms: C11_18  and  C6_13 
REMARK    7  A    between atoms: C19_26  and  C22_29 
ROOT
HETATM    1  O1  UNK     1      27.972  -6.411  32.856  1.00  0.00    -0.293 OA
HETATM    2  N1  UNK     1      32.381  -7.507  31.514  1.00  0.00    -0.362 N 
HETATM    3  C1  UNK     1      30.433  -7.739  33.566  1.00  0.00     0.104 C 
HETATM    4  C2  UNK     1      30.221  -6.924  32.293  1.00  0.00     0.024 C 
HETATM    5  C3  UNK     1      31.190  -6.826  31.358  1.00  0.00     0.020 C 
HETATM    6  C4  UNK     1      31.052  -5.995  30.109  1.00  0.00     0.058 C 
HETATM    7  C5  UNK     1      29.977  -4.925  30.245  1.00  0.00     0.014 C 
HETATM    8  C6  UNK     1      31.730  -8.550  33.537  1.00  0.00     0.052 C 
HETATM    9  C7  UNK     1      28.679  -5.523  30.756  1.00  0.00     0.084 C 
HETATM   10  C8  UNK     1      28.893  -6.278  32.051  1.00  0.00     0.158 C 
HETATM   11  C9  UNK     1      32.644  -8.388  32.552  1.00  0.00     0.018 C 
HETATM   12  C13 UNK     1      33.967  -9.099  32.460  1.00  0.00     0.069 C 
HETATM   13  H8  UNK     1      33.083  -7.409  30.789  1.00  0.00     0.165 HD
ENDROOT
BRANCH   8  14
HETATM   14  C11 UNK     1      31.904  -9.547  34.606  1.00  0.00     0.292 C 
HETATM   15  O5  UNK     1      32.723  -9.434  35.499  1.00  0.00    -0.259 OA
BRANCH  14  16
HETATM   16  O3  UNK     1      31.018 -10.551  34.401  1.00  0.00    -0.316 OA
BRANCH  16  17
HETATM   17  C19 UNK     1      31.551 -11.705  33.742  1.00  0.00     0.205 C 
BRANCH  17  18
HETATM   18  C22 UNK     1      30.741 -11.977  32.490  1.00  0.00     0.202 C 
BRANCH  18  19
HETATM   19  O6  UNK     1      31.447 -11.474  31.361  1.00  0.00    -0.349 OA
BRANCH  19  20
HETATM   20  C23 UNK     1      30.756 -10.637  30.525  1.00  0.00     0.068 A 
HETATM   21  C24 UNK     1      31.332 -10.235  29.325  1.00  0.00     0.037 A 
HETATM   22  C26 UNK     1      30.629  -9.383  28.473  1.00  0.00     0.003 A 
HETATM   23  C28 UNK     1      29.355  -8.939  28.826  1.00  0.00     0.000 A 
HETATM   24  C27 UNK     1      28.784  -9.347  30.031  1.00  0.00     0.003 A 
HETATM   25  C25 UNK     1      29.486 -10.199  30.883  1.00  0.00     0.037 A 
ENDBRANCH  19  20
ENDBRANCH  18  19
ENDBRANCH  17  18
ENDBRANCH  16  17
ENDBRANCH  14  16
ENDBRANCH   8  14
BRANCH   3  26
HETATM   26  C10 UNK     1      30.410  -6.837  34.770  1.00  0.00     0.029 A 
HETATM   27  C12 UNK     1      29.448  -7.136  35.861  1.00  0.00     0.194 A 
HETATM   28  O4  UNK     1      28.679  -8.086  35.809  1.00  0.00    -0.287 OA
HETATM   29  C15 UNK     1      29.466  -6.220  37.017  1.00  0.00     0.048 A 
HETATM   30  C16 UNK     1      30.364  -5.152  37.022  1.00  0.00     0.089 A 
HETATM   31  C17 UNK     1      28.598  -6.416  38.094  1.00  0.00     0.018 A 
HETATM   32  O2  UNK     1      31.238  -4.913  35.992  1.00  0.00    -0.321 OA
HETATM   33  C18 UNK     1      30.399  -4.273  38.106  1.00  0.00     0.038 A 
HETATM   34  C14 UNK     1      31.210  -5.773  34.922  1.00  0.00     0.154 A 
HETATM   35  C21 UNK     1      29.533  -4.467  39.183  1.00  0.00     0.003 A 
HETATM   36  C20 UNK     1      28.635  -5.535  39.176  1.00  0.00     0.001 A 
ENDBRANCH   3  26
TORSDOF 7
ENDMDL
MODEL 10
REMARK VINA RESULT:      -7.3      3.100      6.304
REMARK  7 active torsions:
REMARK  status: ('A' for Active; 'I' for Inactive)
REMARK    1  A    between atoms: C11_18  and  O3_3 
REMARK    2  A    between atoms: C19_26  and  O3_3 
REMARK    3  A    between atoms: C22_29  and  O6_6 
REMARK    4  A    between atoms: C23_30  and  O6_6 
REMARK    5  A    between atoms: C1_8  and  C10_17 
REMARK    6  A    between atoms: C11_18  and  C6_13 
REMARK    7  A    between atoms: C19_26  and  C22_29 
ROOT
HETATM    1  O1  UNK     1      33.514 -12.102  32.909  1.00  0.00    -0.293 OA
HETATM    2  N1  UNK     1      29.624 -11.234  30.348  1.00  0.00    -0.362 N 
HETATM    3  C1  UNK     1      31.626 -10.111  32.017  1.00  0.00     0.104 C 
HETATM    4  C2  UNK     1      31.520 -11.604  31.719  1.00  0.00     0.024 C 
HETATM    5  C3  UNK     1      30.533 -12.091  30.937  1.00  0.00     0.020 C 
HETATM    6  C4  UNK     1      30.352 -13.559  30.653  1.00  0.00     0.058 C 
HETATM    7  C5  UNK     1      31.040 -14.436  31.691  1.00  0.00     0.014 C 
HETATM    8  C6  UNK     1      30.651  -9.274  31.188  1.00  0.00     0.052 C 
HETATM    9  C7  UNK     1      32.480 -14.002  31.898  1.00  0.00     0.084 C 
HETATM   10  C8  UNK     1      32.566 -12.533  32.252  1.00  0.00     0.158 C 
HETATM   11  C9  UNK     1      29.695  -9.852  30.424  1.00  0.00     0.018 C 
HETATM   12  C13 UNK     1      28.660  -9.119  29.614  1.00  0.00     0.069 C 
HETATM   13  H8  UNK     1      28.899 -11.639  29.767  1.00  0.00     0.165 HD
ENDROOT
BRANCH   8  14
HETATM   14  C11 UNK     1      30.844  -7.815  31.225  1.00  0.00     0.292 C 
HETATM   15  O5  UNK     1      31.728  -7.241  30.617  1.00  0.00    -0.259 OA
BRANCH  14  16
HETATM   16  O3  UNK     1      29.892  -7.279  32.026  1.00  0.00    -0.316 OA
BRANCH  16  17
HETATM   17  C19 UNK     1      30.320  -6.165  32.816  1.00  0.00     0.205 C 
BRANCH  17  18
HETATM   18  C22 UNK     1      29.704  -6.272  34.197  1.00  0.00     0.202 C 
BRANCH  18  19
HETATM   19  O6  UNK     1      30.624  -5.763  35.157  1.00  0.00    -0.349 OA
BRANCH  19  20
HETATM   20  C23 UNK     1      30.161  -5.619  36.438  1.00  0.00     0.068 A 
HETATM   21  C24 UNK     1      30.873  -4.840  37.343  1.00  0.00     0.037 A 
HETATM   22  C26 UNK     1      30.402  -4.693  38.647  1.00  0.00     0.003 A 
HETATM   23  C28 UNK     1      29.222  -5.325  39.039  1.00  0.00     0.000 A 
HETATM   24  C27 UNK     1      28.513  -6.105  38.126  1.00  0.00     0.003 A 
HETATM   25  C25 UNK     1      28.984  -6.252  36.821  1.00  0.00     0.037 A 
ENDBRANCH  19  20
ENDBRANCH  18  19
ENDBRANCH  17  18
ENDBRANCH  16  17
ENDBRANCH  14  16
ENDBRANCH   8  14
BRANCH   3  26
HETATM   26  C10 UNK     1      31.412  -9.857  33.485  1.00  0.00     0.029 A 
HETATM   27  C12 UNK     1      32.432  -9.071  34.224  1.00  0.00     0.194 A 
HETATM   28  O4  UNK     1      33.434  -8.628  33.679  1.00  0.00    -0.287 OA
HETATM   29  C15 UNK     1      32.175  -8.853  35.660  1.00  0.00     0.048 A 
HETATM   30  C16 UNK     1      31.016  -9.382  36.229  1.00  0.00     0.089 A 
HETATM   31  C17 UNK     1      33.076  -8.126  36.442  1.00  0.00     0.018 A 
HETATM   32  O2  UNK     1      30.098 -10.103  35.507  1.00  0.00    -0.321 OA
HETATM   33  C18 UNK     1      30.752  -9.187  37.585  1.00  0.00     0.038 A 
HETATM   34  C14 UNK     1      30.351 -10.298  34.172  1.00  0.00     0.154 A 
HETATM   35  C21 UNK     1      31.649  -8.461  38.369  1.00  0.00     0.003 A 
HETATM   36  C20 UNK     1      32.808  -7.933  37.799  1.00  0.00     0.001 A 
ENDBRANCH   3  26
TORSDOF 7
ENDMDL
