MODEL 1
REMARK VINA RESULT:      -9.5      0.000      0.000
REMARK  2 active torsions:
REMARK  status: ('A' for Active; 'I' for Inactive)
REMARK    1  A    between atoms: C2_9  and  C5_12 
REMARK    2  A    between atoms: C10_17  and  C11_18 
ROOT
HETATM    1 Cl1  UNK     1      19.134  11.347  34.570  1.00  0.00    -0.081 Cl
HETATM    2 Cl2  UNK     1      13.961  11.675  33.127  1.00  0.00    -0.084 Cl
HETATM    3  O1  UNK     1      18.789   8.466  34.109  1.00  0.00    -0.319 OA
HETATM    4  O3  UNK     1      15.408   6.530  32.897  1.00  0.00    -0.286 OA
HETATM    5  C1  UNK     1      16.455   8.565  33.453  1.00  0.00     0.052 A 
HETATM    6  C2  UNK     1      17.697   6.376  33.534  1.00  0.00     0.040 A 
HETATM    7  C3  UNK     1      17.639   9.173  33.869  1.00  0.00     0.111 A 
HETATM    8  C4  UNK     1      16.427   7.103  33.260  1.00  0.00     0.197 A 
HETATM    9  C6  UNK     1      15.312   9.336  33.222  1.00  0.00     0.042 A 
HETATM   10  C8  UNK     1      18.749   7.106  33.928  1.00  0.00     0.158 A 
HETATM   11  C9  UNK     1      17.687  10.555  34.057  1.00  0.00     0.070 A 
HETATM   12  C12 UNK     1      15.363  10.717  33.411  1.00  0.00     0.036 A 
HETATM   13  C13 UNK     1      16.548  11.326  33.828  1.00  0.00     0.050 A 
ENDROOT
BRANCH   6  14
HETATM   14  C5  UNK     1      17.769   4.949  33.376  1.00  0.00     0.055 C 
HETATM   15  C7  UNK     1      18.157   4.351  32.247  1.00  0.00     0.136 A 
HETATM   16  C14 UNK     1      18.554   5.108  31.041  1.00  0.00     0.318 A 
HETATM   17  N1  UNK     1      18.250   3.007  32.023  1.00  0.00    -0.218 NA
HETATM   18  O2  UNK     1      18.865   4.118  30.154  1.00  0.00    -0.254 OA
HETATM   19  O4  UNK     1      18.596   6.308  30.864  1.00  0.00    -0.257 OA
HETATM   20  C10 UNK     1      18.664   2.941  30.799  1.00  0.00     0.184 A 
BRANCH  20  21
HETATM   21  C11 UNK     1      18.948   1.772  30.005  1.00  0.00     0.017 A 
HETATM   22  C15 UNK     1      18.230   1.521  28.828  1.00  0.00     0.016 A 
HETATM   23  C17 UNK     1      18.503   0.389  28.060  1.00  0.00     0.001 A 
HETATM   24  C19 UNK     1      19.497  -0.503  28.464  1.00  0.00     0.000 A 
HETATM   25  C18 UNK     1      20.217  -0.263  29.634  1.00  0.00     0.001 A 
HETATM   26  C16 UNK     1      19.944   0.869  30.401  1.00  0.00     0.016 A 
ENDBRANCH  20  21
ENDBRANCH   6  14
TORSDOF 2
ENDMDL
MODEL 2
REMARK VINA RESULT:      -9.1     15.916     20.720
REMARK  2 active torsions:
REMARK  status: ('A' for Active; 'I' for Inactive)
REMARK    1  A    between atoms: C2_9  and  C5_12 
REMARK    2  A    between atoms: C10_17  and  C11_18 
ROOT
HETATM    1 Cl1  UNK     1      19.717  -8.248  12.578  1.00  0.00    -0.081 Cl
HETATM    2 Cl2  UNK     1      21.074  -4.678   8.787  1.00  0.00    -0.084 Cl
HETATM    3  O1  UNK     1      18.724  -5.900  14.037  1.00  0.00    -0.319 OA
HETATM    4  O3  UNK     1      18.810  -2.003  12.829  1.00  0.00    -0.286 OA
HETATM    5  C1  UNK     1      19.319  -4.253  12.356  1.00  0.00     0.052 A 
HETATM    6  C2  UNK     1      18.205  -3.576  14.511  1.00  0.00     0.040 A 
HETATM    7  C3  UNK     1      19.263  -5.567  12.821  1.00  0.00     0.111 A 
HETATM    8  C4  UNK     1      18.779  -3.170  13.199  1.00  0.00     0.197 A 
HETATM    9  C6  UNK     1      19.879  -3.973  11.107  1.00  0.00     0.042 A 
HETATM   10  C8  UNK     1      18.226  -4.881  14.812  1.00  0.00     0.158 A 
HETATM   11  C9  UNK     1      19.768  -6.607  12.040  1.00  0.00     0.070 A 
HETATM   12  C12 UNK     1      20.383  -5.015  10.328  1.00  0.00     0.036 A 
HETATM   13  C13 UNK     1      20.327  -6.329  10.793  1.00  0.00     0.050 A 
ENDROOT
BRANCH   6  14
HETATM   14  C5  UNK     1      17.656  -2.591  15.403  1.00  0.00     0.055 C 
HETATM   15  C7  UNK     1      18.372  -1.965  16.339  1.00  0.00     0.136 A 
HETATM   16  C14 UNK     1      19.812  -2.226  16.548  1.00  0.00     0.318 A 
HETATM   17  N1  UNK     1      17.922  -1.023  17.220  1.00  0.00    -0.218 NA
HETATM   18  O2  UNK     1      20.124  -1.387  17.579  1.00  0.00    -0.254 OA
HETATM   19  O4  UNK     1      20.549  -2.992  15.962  1.00  0.00    -0.257 OA
HETATM   20  C10 UNK     1      18.981  -0.731  17.905  1.00  0.00     0.184 A 
BRANCH  20  21
HETATM   21  C11 UNK     1      19.123   0.210  18.987  1.00  0.00     0.017 A 
HETATM   22  C15 UNK     1      19.034   1.588  18.747  1.00  0.00     0.016 A 
HETATM   23  C17 UNK     1      19.172   2.499  19.794  1.00  0.00     0.001 A 
HETATM   24  C19 UNK     1      19.399   2.039  21.091  1.00  0.00     0.000 A 
HETATM   25  C18 UNK     1      19.490   0.671  21.341  1.00  0.00     0.001 A 
HETATM   26  C16 UNK     1      19.352  -0.240  20.295  1.00  0.00     0.016 A 
ENDBRANCH  20  21
ENDBRANCH   6  14
TORSDOF 2
ENDMDL
MODEL 3
REMARK VINA RESULT:      -9.0     14.516     16.770
REMARK  2 active torsions:
REMARK  status: ('A' for Active; 'I' for Inactive)
REMARK    1  A    between atoms: C2_9  and  C5_12 
REMARK    2  A    between atoms: C10_17  and  C11_18 
ROOT
HETATM    1 Cl1  UNK     1      19.316 -10.757  39.267  1.00  0.00    -0.081 Cl
HETATM    2 Cl2  UNK     1      17.423  -7.613  35.332  1.00  0.00    -0.084 Cl
HETATM    3  O1  UNK     1      21.410  -8.712  39.511  1.00  0.00    -0.319 OA
HETATM    4  O3  UNK     1      21.820  -5.298  37.314  1.00  0.00    -0.286 OA
HETATM    5  C1  UNK     1      20.594  -7.263  37.744  1.00  0.00     0.052 A 
HETATM    6  C2  UNK     1      22.663  -6.683  39.057  1.00  0.00     0.040 A 
HETATM    7  C3  UNK     1      20.505  -8.415  38.525  1.00  0.00     0.111 A 
HETATM    8  C4  UNK     1      21.704  -6.320  37.979  1.00  0.00     0.197 A 
HETATM    9  C6  UNK     1      19.642  -7.010  36.753  1.00  0.00     0.042 A 
HETATM   10  C8  UNK     1      22.439  -7.827  39.719  1.00  0.00     0.158 A 
HETATM   11  C9  UNK     1      19.463  -9.320  38.320  1.00  0.00     0.070 A 
HETATM   12  C12 UNK     1      18.602  -7.917  36.550  1.00  0.00     0.036 A 
HETATM   13  C13 UNK     1      18.512  -9.070  37.332  1.00  0.00     0.050 A 
ENDROOT
BRANCH   6  14
HETATM   14  C5  UNK     1      23.779  -5.828  39.360  1.00  0.00     0.055 C 
HETATM   15  C7  UNK     1      25.031  -6.088  38.977  1.00  0.00     0.136 A 
HETATM   16  C14 UNK     1      25.393  -7.290  38.197  1.00  0.00     0.318 A 
HETATM   17  N1  UNK     1      26.137  -5.326  39.227  1.00  0.00    -0.218 NA
HETATM   18  O2  UNK     1      26.740  -7.149  38.034  1.00  0.00    -0.254 OA
HETATM   19  O4  UNK     1      24.683  -8.189  37.795  1.00  0.00    -0.257 OA
HETATM   20  C10 UNK     1      27.088  -5.993  38.655  1.00  0.00     0.184 A 
BRANCH  20  21
HETATM   21  C11 UNK     1      28.492  -5.678  38.584  1.00  0.00     0.017 A 
HETATM   22  C15 UNK     1      28.928  -4.349  38.670  1.00  0.00     0.016 A 
HETATM   23  C17 UNK     1      30.287  -4.043  38.600  1.00  0.00     0.001 A 
HETATM   24  C19 UNK     1      31.223  -5.066  38.445  1.00  0.00     0.000 A 
HETATM   25  C18 UNK     1      30.801  -6.392  38.358  1.00  0.00     0.001 A 
HETATM   26  C16 UNK     1      29.442  -6.697  38.427  1.00  0.00     0.016 A 
ENDBRANCH  20  21
ENDBRANCH   6  14
TORSDOF 2
ENDMDL
MODEL 4
REMARK VINA RESULT:      -8.9     16.052     20.983
REMARK  2 active torsions:
REMARK  status: ('A' for Active; 'I' for Inactive)
REMARK    1  A    between atoms: C2_9  and  C5_12 
REMARK    2  A    between atoms: C10_17  and  C11_18 
ROOT
HETATM    1 Cl1  UNK     1      19.084  -5.950   9.632  1.00  0.00    -0.081 Cl
HETATM    2 Cl2  UNK     1      15.959  -9.181  12.588  1.00  0.00    -0.084 Cl
HETATM    3  O1  UNK     1      19.816  -4.760  12.215  1.00  0.00    -0.319 OA
HETATM    4  O3  UNK     1      18.470  -5.829  15.916  1.00  0.00    -0.286 OA
HETATM    5  C1  UNK     1      18.422  -6.193  13.589  1.00  0.00     0.052 A 
HETATM    6  C2  UNK     1      19.856  -4.395  14.615  1.00  0.00     0.040 A 
HETATM    7  C3  UNK     1      18.916  -5.784  12.351  1.00  0.00     0.111 A 
HETATM    8  C4  UNK     1      18.880  -5.502  14.809  1.00  0.00     0.197 A 
HETATM    9  C6  UNK     1      17.505  -7.245  13.668  1.00  0.00     0.042 A 
HETATM   10  C8  UNK     1      20.234  -4.123  13.359  1.00  0.00     0.158 A 
HETATM   11  C9  UNK     1      18.496  -6.425  11.185  1.00  0.00     0.070 A 
HETATM   12  C12 UNK     1      17.087  -7.883  12.500  1.00  0.00     0.036 A 
HETATM   13  C13 UNK     1      17.581  -7.474  11.261  1.00  0.00     0.050 A 
ENDROOT
BRANCH   6  14
HETATM   14  C5  UNK     1      20.360  -3.660  15.743  1.00  0.00     0.055 C 
HETATM   15  C7  UNK     1      19.735  -2.608  16.275  1.00  0.00     0.136 A 
HETATM   16  C14 UNK     1      18.452  -2.094  15.751  1.00  0.00     0.318 A 
HETATM   17  N1  UNK     1      20.151  -1.862  17.342  1.00  0.00    -0.218 NA
HETATM   18  O2  UNK     1      18.190  -1.040  16.577  1.00  0.00    -0.254 OA
HETATM   19  O4  UNK     1      17.786  -2.495  14.819  1.00  0.00    -0.257 OA
HETATM   20  C10 UNK     1      19.215  -0.976  17.464  1.00  0.00     0.184 A 
BRANCH  20  21
HETATM   21  C11 UNK     1      19.105   0.091  18.426  1.00  0.00     0.017 A 
HETATM   22  C15 UNK     1      19.070  -0.191  19.798  1.00  0.00     0.016 A 
HETATM   23  C17 UNK     1      18.963   0.842  20.730  1.00  0.00     0.001 A 
HETATM   24  C19 UNK     1      18.890   2.166  20.297  1.00  0.00     0.000 A 
HETATM   25  C18 UNK     1      18.924   2.457  18.934  1.00  0.00     0.001 A 
HETATM   26  C16 UNK     1      19.031   1.425  18.002  1.00  0.00     0.016 A 
ENDBRANCH  20  21
ENDBRANCH   6  14
TORSDOF 2
ENDMDL
MODEL 5
REMARK VINA RESULT:      -8.8     16.089     21.003
REMARK  2 active torsions:
REMARK  status: ('A' for Active; 'I' for Inactive)
REMARK    1  A    between atoms: C2_9  and  C5_12 
REMARK    2  A    between atoms: C10_17  and  C11_18 
ROOT
HETATM    1 Cl1  UNK     1      16.883  -8.652  13.018  1.00  0.00    -0.081 Cl
HETATM    2 Cl2  UNK     1      18.399  -5.874   8.667  1.00  0.00    -0.084 Cl
HETATM    3  O1  UNK     1      18.298  -6.553  14.507  1.00  0.00    -0.319 OA
HETATM    4  O3  UNK     1      20.264  -3.318  12.981  1.00  0.00    -0.286 OA
HETATM    5  C1  UNK     1      19.005  -5.267  12.574  1.00  0.00     0.052 A 
HETATM    6  C2  UNK     1      19.596  -4.541  14.912  1.00  0.00     0.040 A 
HETATM    7  C3  UNK     1      18.349  -6.354  13.151  1.00  0.00     0.111 A 
HETATM    8  C4  UNK     1      19.675  -4.285  13.448  1.00  0.00     0.197 A 
HETATM    9  C6  UNK     1      19.024  -5.114  11.185  1.00  0.00     0.042 A 
HETATM   10  C8  UNK     1      18.927  -5.632  15.309  1.00  0.00     0.158 A 
HETATM   11  C9  UNK     1      17.708  -7.293  12.343  1.00  0.00     0.070 A 
HETATM   12  C12 UNK     1      18.383  -6.055  10.379  1.00  0.00     0.036 A 
HETATM   13  C13 UNK     1      17.726  -7.143  10.957  1.00  0.00     0.050 A 
ENDROOT
BRANCH   6  14
HETATM   14  C5  UNK     1      20.220  -3.642  15.845  1.00  0.00     0.055 C 
HETATM   15  C7  UNK     1      19.582  -2.622  16.422  1.00  0.00     0.136 A 
HETATM   16  C14 UNK     1      18.160  -2.317  16.156  1.00  0.00     0.318 A 
HETATM   17  N1  UNK     1      20.106  -1.729  17.314  1.00  0.00    -0.218 NA
HETATM   18  O2  UNK     1      17.935  -1.223  16.940  1.00  0.00    -0.254 OA
HETATM   19  O4  UNK     1      17.375  -2.885  15.425  1.00  0.00    -0.257 OA
HETATM   20  C10 UNK     1      19.105  -0.951  17.573  1.00  0.00     0.184 A 
BRANCH  20  21
HETATM   21  C11 UNK     1      19.054   0.188  18.455  1.00  0.00     0.017 A 
HETATM   22  C15 UNK     1      19.029   1.489  17.934  1.00  0.00     0.016 A 
HETATM   23  C17 UNK     1      18.981   2.592  18.787  1.00  0.00     0.001 A 
HETATM   24  C19 UNK     1      18.956   2.402  20.169  1.00  0.00     0.000 A 
HETATM   25  C18 UNK     1      18.981   1.112  20.698  1.00  0.00     0.001 A 
HETATM   26  C16 UNK     1      19.029   0.010  19.845  1.00  0.00     0.016 A 
ENDBRANCH  20  21
ENDBRANCH   6  14
TORSDOF 2
ENDMDL
MODEL 6
REMARK VINA RESULT:      -8.7      7.436      9.150
REMARK  2 active torsions:
REMARK  status: ('A' for Active; 'I' for Inactive)
REMARK    1  A    between atoms: C2_9  and  C5_12 
REMARK    2  A    between atoms: C10_17  and  C11_18 
ROOT
HETATM    1 Cl1  UNK     1      18.517   1.741  30.304  1.00  0.00    -0.081 Cl
HETATM    2 Cl2  UNK     1      18.424   5.810  33.824  1.00  0.00    -0.084 Cl
HETATM    3  O1  UNK     1      18.298   0.042  32.690  1.00  0.00    -0.319 OA
HETATM    4  O3  UNK     1      18.081   1.240  36.585  1.00  0.00    -0.286 OA
HETATM    5  C1  UNK     1      18.253   1.844  34.314  1.00  0.00     0.052 A 
HETATM    6  C2  UNK     1      18.121  -0.566  35.034  1.00  0.00     0.040 A 
HETATM    7  C3  UNK     1      18.325   1.377  33.003  1.00  0.00     0.111 A 
HETATM    8  C4  UNK     1      18.145   0.872  35.419  1.00  0.00     0.197 A 
HETATM    9  C6  UNK     1      18.284   3.217  34.574  1.00  0.00     0.042 A 
HETATM   10  C8  UNK     1      18.199  -0.853  33.727  1.00  0.00     0.158 A 
HETATM   11  C9  UNK     1      18.428   2.279  31.944  1.00  0.00     0.070 A 
HETATM   12  C12 UNK     1      18.387   4.116  33.514  1.00  0.00     0.036 A 
HETATM   13  C13 UNK     1      18.459   3.649  32.200  1.00  0.00     0.050 A 
ENDROOT
BRANCH   6  14
HETATM   14  C5  UNK     1      18.019  -1.589  36.039  1.00  0.00     0.055 C 
HETATM   15  C7  UNK     1      19.007  -2.440  36.326  1.00  0.00     0.136 A 
HETATM   16  C14 UNK     1      20.312  -2.409  35.633  1.00  0.00     0.318 A 
HETATM   17  N1  UNK     1      18.983  -3.434  37.264  1.00  0.00    -0.218 NA
HETATM   18  O2  UNK     1      20.995  -3.428  36.233  1.00  0.00    -0.254 OA
HETATM   19  O4  UNK     1      20.697  -1.672  34.749  1.00  0.00    -0.257 OA
HETATM   20  C10 UNK     1      20.160  -3.964  37.158  1.00  0.00     0.184 A 
BRANCH  20  21
HETATM   21  C11 UNK     1      20.720  -5.065  37.899  1.00  0.00     0.017 A 
HETATM   22  C15 UNK     1      19.892  -6.079  38.401  1.00  0.00     0.016 A 
HETATM   23  C17 UNK     1      20.434  -7.145  39.119  1.00  0.00     0.001 A 
HETATM   24  C19 UNK     1      21.810  -7.207  39.341  1.00  0.00     0.000 A 
HETATM   25  C18 UNK     1      22.643  -6.204  38.847  1.00  0.00     0.001 A 
HETATM   26  C16 UNK     1      22.101  -5.138  38.129  1.00  0.00     0.016 A 
ENDBRANCH  20  21
ENDBRANCH   6  14
TORSDOF 2
ENDMDL
MODEL 7
REMARK VINA RESULT:      -8.7     16.295     21.171
REMARK  2 active torsions:
REMARK  status: ('A' for Active; 'I' for Inactive)
REMARK    1  A    between atoms: C2_9  and  C5_12 
REMARK    2  A    between atoms: C10_17  and  C11_18 
ROOT
HETATM    1 Cl1  UNK     1      17.121  -8.022  11.813  1.00  0.00    -0.081 Cl
HETATM    2 Cl2  UNK     1      19.273  -4.779   8.097  1.00  0.00    -0.084 Cl
HETATM    3  O1  UNK     1      18.443  -6.235  13.733  1.00  0.00    -0.319 OA
HETATM    4  O3  UNK     1      20.724  -2.953  12.911  1.00  0.00    -0.286 OA
HETATM    5  C1  UNK     1      19.435  -4.746  12.094  1.00  0.00     0.052 A 
HETATM    6  C2  UNK     1      19.775  -4.382  14.562  1.00  0.00     0.040 A 
HETATM    7  C3  UNK     1      18.665  -5.858  12.433  1.00  0.00     0.111 A 
HETATM    8  C4  UNK     1      20.040  -3.936  13.167  1.00  0.00     0.197 A 
HETATM    9  C6  UNK     1      19.626  -4.408  10.751  1.00  0.00     0.042 A 
HETATM   10  C8  UNK     1      19.014  -5.473  14.723  1.00  0.00     0.158 A 
HETATM   11  C9  UNK     1      18.083  -6.638  11.434  1.00  0.00     0.070 A 
HETATM   12  C12 UNK     1      19.043  -5.189   9.754  1.00  0.00     0.036 A 
HETATM   13  C13 UNK     1      18.273  -6.302  10.094  1.00  0.00     0.050 A 
ENDROOT
BRANCH   6  14
HETATM   14  C5  UNK     1      20.323  -3.659  15.677  1.00  0.00     0.055 C 
HETATM   15  C7  UNK     1      19.709  -2.626  16.258  1.00  0.00     0.136 A 
HETATM   16  C14 UNK     1      18.394  -2.124  15.807  1.00  0.00     0.318 A 
HETATM   17  N1  UNK     1      20.167  -1.892  17.316  1.00  0.00    -0.218 NA
HETATM   18  O2  UNK     1      18.157  -1.088  16.663  1.00  0.00    -0.254 OA
HETATM   19  O4  UNK     1      17.689  -2.520  14.902  1.00  0.00    -0.257 OA
HETATM   20  C10 UNK     1      19.225  -1.024  17.499  1.00  0.00     0.184 A 
BRANCH  20  21
HETATM   21  C11 UNK     1      19.146   0.025  18.485  1.00  0.00     0.017 A 
HETATM   22  C15 UNK     1      19.228  -0.276  19.851  1.00  0.00     0.016 A 
HETATM   23  C17 UNK     1      19.151   0.738  20.806  1.00  0.00     0.001 A 
HETATM   24  C19 UNK     1      18.993   2.064  20.401  1.00  0.00     0.000 A 
HETATM   25  C18 UNK     1      18.911   2.375  19.045  1.00  0.00     0.001 A 
HETATM   26  C16 UNK     1      18.987   1.361  18.090  1.00  0.00     0.016 A 
ENDBRANCH  20  21
ENDBRANCH   6  14
TORSDOF 2
ENDMDL
MODEL 8
REMARK VINA RESULT:      -8.7     11.730     15.237
REMARK  2 active torsions:
REMARK  status: ('A' for Active; 'I' for Inactive)
REMARK    1  A    between atoms: C2_9  and  C5_12 
REMARK    2  A    between atoms: C10_17  and  C11_18 
ROOT
HETATM    1 Cl1  UNK     1      21.278 -11.086  35.336  1.00  0.00    -0.081 Cl
HETATM    2 Cl2  UNK     1      18.853 -11.920  40.066  1.00  0.00    -0.084 Cl
HETATM    3  O1  UNK     1      21.311  -8.269  36.168  1.00  0.00    -0.319 OA
HETATM    4  O3  UNK     1      19.869  -6.685  39.641  1.00  0.00    -0.286 OA
HETATM    5  C1  UNK     1      20.220  -8.597  38.310  1.00  0.00     0.052 A 
HETATM    6  C2  UNK     1      20.944  -6.308  37.550  1.00  0.00     0.040 A 
HETATM    7  C3  UNK     1      20.729  -9.082  37.106  1.00  0.00     0.111 A 
HETATM    8  C4  UNK     1      20.305  -7.152  38.596  1.00  0.00     0.197 A 
HETATM    9  C6  UNK     1      19.637  -9.472  39.230  1.00  0.00     0.042 A 
HETATM   10  C8  UNK     1      21.383  -6.926  36.446  1.00  0.00     0.158 A 
HETATM   11  C9  UNK     1      20.658 -10.444  36.815  1.00  0.00     0.070 A 
HETATM   12  C12 UNK     1      19.568 -10.834  38.937  1.00  0.00     0.036 A 
HETATM   13  C13 UNK     1      20.077 -11.320  37.732  1.00  0.00     0.050 A 
ENDROOT
BRANCH   6  14
HETATM   14  C5  UNK     1      21.072  -4.888  37.736  1.00  0.00     0.055 C 
HETATM   15  C7  UNK     1      20.143  -4.008  37.357  1.00  0.00     0.136 A 
HETATM   16  C14 UNK     1      18.880  -4.414  36.704  1.00  0.00     0.318 A 
HETATM   17  N1  UNK     1      20.195  -2.650  37.500  1.00  0.00    -0.218 NA
HETATM   18  O2  UNK     1      18.250  -3.221  36.498  1.00  0.00    -0.254 OA
HETATM   19  O4  UNK     1      18.487  -5.525  36.413  1.00  0.00    -0.257 OA
HETATM   20  C10 UNK     1      19.074  -2.258  36.985  1.00  0.00     0.184 A 
BRANCH  20  21
HETATM   21  C11 UNK     1      18.564  -0.917  36.853  1.00  0.00     0.017 A 
HETATM   22  C15 UNK     1      18.725  -0.211  35.652  1.00  0.00     0.016 A 
HETATM   23  C17 UNK     1      18.233   1.088  35.523  1.00  0.00     0.001 A 
HETATM   24  C19 UNK     1      17.575   1.693  36.595  1.00  0.00     0.000 A 
HETATM   25  C18 UNK     1      17.410   1.000  37.794  1.00  0.00     0.001 A 
HETATM   26  C16 UNK     1      17.902  -0.299  37.923  1.00  0.00     0.016 A 
ENDBRANCH  20  21
ENDBRANCH   6  14
TORSDOF 2
ENDMDL
MODEL 9
REMARK VINA RESULT:      -8.5      1.137      2.541
REMARK  2 active torsions:
REMARK  status: ('A' for Active; 'I' for Inactive)
REMARK    1  A    between atoms: C2_9  and  C5_12 
REMARK    2  A    between atoms: C10_17  and  C11_18 
ROOT
HETATM    1 Cl1  UNK     1      13.942  11.273  34.258  1.00  0.00    -0.081 Cl
HETATM    2 Cl2  UNK     1      18.900  13.348  34.022  1.00  0.00    -0.084 Cl
HETATM    3  O1  UNK     1      15.322   8.683  34.133  1.00  0.00    -0.319 OA
HETATM    4  O3  UNK     1      19.341   8.017  33.896  1.00  0.00    -0.286 OA
HETATM    5  C1  UNK     1      17.577   9.573  34.024  1.00  0.00     0.052 A 
HETATM    6  C2  UNK     1      17.150   7.091  34.001  1.00  0.00     0.040 A 
HETATM    7  C3  UNK     1      16.195   9.741  34.104  1.00  0.00     0.111 A 
HETATM    8  C4  UNK     1      18.134   8.208  33.968  1.00  0.00     0.197 A 
HETATM    9  C6  UNK     1      18.420  10.688  33.998  1.00  0.00     0.042 A 
HETATM   10  C8  UNK     1      15.853   7.418  34.079  1.00  0.00     0.158 A 
HETATM   11  C9  UNK     1      15.648  11.023  34.158  1.00  0.00     0.070 A 
HETATM   12  C12 UNK     1      17.870  11.968  34.052  1.00  0.00     0.036 A 
HETATM   13  C13 UNK     1      16.486  12.136  34.132  1.00  0.00     0.050 A 
ENDROOT
BRANCH   6  14
HETATM   14  C5  UNK     1      17.595   5.725  33.950  1.00  0.00     0.055 C 
HETATM   15  C7  UNK     1      17.820   5.066  32.811  1.00  0.00     0.136 A 
HETATM   16  C14 UNK     1      17.633   5.685  31.482  1.00  0.00     0.318 A 
HETATM   17  N1  UNK     1      18.242   3.773  32.684  1.00  0.00    -0.218 NA
HETATM   18  O2  UNK     1      17.970   4.675  30.629  1.00  0.00    -0.254 OA
HETATM   19  O4  UNK     1      17.269   6.809  31.200  1.00  0.00    -0.257 OA
HETATM   20  C10 UNK     1      18.309   3.611  31.401  1.00  0.00     0.184 A 
BRANCH  20  21
HETATM   21  C11 UNK     1      18.698   2.438  30.661  1.00  0.00     0.017 A 
HETATM   22  C15 UNK     1      19.474   1.440  31.267  1.00  0.00     0.016 A 
HETATM   23  C17 UNK     1      19.852   0.305  30.551  1.00  0.00     0.001 A 
HETATM   24  C19 UNK     1      19.457   0.157  29.221  1.00  0.00     0.000 A 
HETATM   25  C18 UNK     1      18.686   1.143  28.608  1.00  0.00     0.001 A 
HETATM   26  C16 UNK     1      18.308   2.279  29.324  1.00  0.00     0.016 A 
ENDBRANCH  20  21
ENDBRANCH   6  14
TORSDOF 2
ENDMDL
MODEL 10
REMARK VINA RESULT:      -8.3      1.460      2.174
REMARK  2 active torsions:
REMARK  status: ('A' for Active; 'I' for Inactive)
REMARK    1  A    between atoms: C2_9  and  C5_12 
REMARK    2  A    between atoms: C10_17  and  C11_18 
ROOT
HETATM    1 Cl1  UNK     1      17.399  13.327  33.758  1.00  0.00    -0.081 Cl
HETATM    2 Cl2  UNK     1      12.137  12.223  33.942  1.00  0.00    -0.084 Cl
HETATM    3  O1  UNK     1      17.732  10.416  33.967  1.00  0.00    -0.319 OA
HETATM    4  O3  UNK     1      14.798   7.592  34.235  1.00  0.00    -0.286 OA
HETATM    5  C1  UNK     1      15.369   9.870  34.054  1.00  0.00     0.052 A 
HETATM    6  C2  UNK     1      17.129   8.071  34.153  1.00  0.00     0.040 A 
HETATM    7  C3  UNK     1      16.413  10.790  33.966  1.00  0.00     0.111 A 
HETATM    8  C4  UNK     1      15.685   8.432  34.154  1.00  0.00     0.197 A 
HETATM    9  C6  UNK     1      14.042  10.309  34.048  1.00  0.00     0.042 A 
HETATM   10  C8  UNK     1      18.013   9.075  34.062  1.00  0.00     0.158 A 
HETATM   11  C9  UNK     1      16.136  12.154  33.871  1.00  0.00     0.070 A 
HETATM   12  C12 UNK     1      13.769  11.673  33.952  1.00  0.00     0.036 A 
HETATM   13  C13 UNK     1      14.813  12.595  33.864  1.00  0.00     0.050 A 
ENDROOT
BRANCH   6  14
HETATM   14  C5  UNK     1      17.538   6.696  34.249  1.00  0.00     0.055 C 
HETATM   15  C7  UNK     1      17.727   5.909  33.187  1.00  0.00     0.136 A 
HETATM   16  C14 UNK     1      17.533   6.381  31.800  1.00  0.00     0.318 A 
HETATM   17  N1  UNK     1      18.113   4.598  33.199  1.00  0.00    -0.218 NA
HETATM   18  O2  UNK     1      17.829   5.273  31.061  1.00  0.00    -0.254 OA
HETATM   19  O4  UNK     1      17.193   7.476  31.400  1.00  0.00    -0.257 OA
HETATM   20  C10 UNK     1      18.153   4.293  31.942  1.00  0.00     0.184 A 
BRANCH  20  21
HETATM   21  C11 UNK     1      18.500   3.035  31.332  1.00  0.00     0.017 A 
HETATM   22  C15 UNK     1      18.678   1.889  32.119  1.00  0.00     0.016 A 
HETATM   23  C17 UNK     1      19.014   0.670  31.529  1.00  0.00     0.001 A 
HETATM   24  C19 UNK     1      19.175   0.587  30.145  1.00  0.00     0.000 A 
HETATM   25  C18 UNK     1      19.001   1.721  29.353  1.00  0.00     0.001 A 
HETATM   26  C16 UNK     1      18.665   2.940  29.943  1.00  0.00     0.016 A 
ENDBRANCH  20  21
ENDBRANCH   6  14
TORSDOF 2
ENDMDL
