MODEL 1
REMARK VINA RESULT:      -8.6      0.000      0.000
REMARK  2 active torsions:
REMARK  status: ('A' for Active; 'I' for Inactive)
REMARK    1  A    between atoms: C8_15  and  N1_6 
REMARK    2  A    between atoms: C1_8  and  C3_10 
ROOT
HETATM    1  F1  UNK     1      20.776  -6.272  39.476  1.00  0.00    -0.206 F 
HETATM    2  O1  UNK     1      27.657  -4.816  38.781  1.00  0.00    -0.269 OA
HETATM    3  O2  UNK     1      25.395  -5.390  39.002  1.00  0.00    -0.286 OA
HETATM    4  O3  UNK     1      26.185  -9.299  38.197  1.00  0.00    -0.287 OA
HETATM    5  N2  UNK     1      31.958  -6.944  38.351  1.00  0.00    -0.191 NA
HETATM    6  C1  UNK     1      28.435  -7.487  38.093  1.00  0.00     0.108 C 
HETATM    7  C2  UNK     1      27.013  -7.078  38.412  1.00  0.00     0.065 A 
HETATM    8  C4  UNK     1      29.429  -6.376  38.401  1.00  0.00     0.086 C 
HETATM    9  C5  UNK     1      26.688  -5.810  38.723  1.00  0.00     0.204 A 
HETATM   10  C6  UNK     1      25.949  -8.118  38.412  1.00  0.00     0.197 A 
HETATM   11  C7  UNK     1      24.582  -7.651  38.688  1.00  0.00     0.049 A 
HETATM   12  C8  UNK     1      29.013  -5.129  38.715  1.00  0.00     0.162 C 
HETATM   13  C9  UNK     1      24.377  -6.305  38.968  1.00  0.00     0.095 A 
HETATM   14  C12 UNK     1      23.506  -8.542  38.673  1.00  0.00     0.021 A 
HETATM   15  C13 UNK     1      23.090  -5.836  39.234  1.00  0.00     0.080 A 
HETATM   16  C16 UNK     1      30.825  -6.690  38.374  1.00  0.00     0.100 C 
HETATM   17  C17 UNK     1      22.219  -8.071  38.939  1.00  0.00     0.043 A 
HETATM   18  C18 UNK     1      22.012  -6.720  39.219  1.00  0.00     0.119 A 
ENDROOT
BRANCH   6  19
HETATM   19  C3  UNK     1      28.553  -7.906  36.657  1.00  0.00    -0.043 A 
HETATM   20  C10 UNK     1      28.288  -6.986  35.649  1.00  0.00     0.027 A 
HETATM   21  C14 UNK     1      28.399  -7.375  34.314  1.00  0.00     0.011 A 
HETATM   22 Br1  UNK     1      28.044  -6.134  32.934  1.00  0.00    -0.051 Br
HETATM   23  C19 UNK     1      28.773  -8.681  33.996  1.00  0.00     0.019 A 
HETATM   24  C15 UNK     1      29.037  -9.597  35.015  1.00  0.00     0.002 A 
HETATM   25  C11 UNK     1      28.926  -9.209  36.349  1.00  0.00     0.008 A 
ENDBRANCH   6  19
BRANCH  12  26
HETATM   26  N1  UNK     1      29.835  -4.070  38.990  1.00  0.00    -0.379 N 
HETATM   27  H10 UNK     1      30.068  -3.871  39.955  1.00  0.00     0.158 HD
HETATM   28  H9  UNK     1      30.205  -3.492  38.247  1.00  0.00     0.158 HD
ENDBRANCH  12  26
TORSDOF 2
ENDMDL
MODEL 2
REMARK VINA RESULT:      -8.3      4.909      6.816
REMARK  2 active torsions:
REMARK  status: ('A' for Active; 'I' for Inactive)
REMARK    1  A    between atoms: C8_15  and  N1_6 
REMARK    2  A    between atoms: C1_8  and  C3_10 
ROOT
HETATM    1  F1  UNK     1      29.939  -7.922  28.581  1.00  0.00    -0.206 F 
HETATM    2  O1  UNK     1      31.769  -4.941  34.723  1.00  0.00    -0.269 OA
HETATM    3  O2  UNK     1      31.085  -5.966  32.728  1.00  0.00    -0.286 OA
HETATM    4  O3  UNK     1      27.988  -7.823  34.602  1.00  0.00    -0.287 OA
HETATM    5  N2  UNK     1      30.202  -4.277  39.230  1.00  0.00    -0.191 NA
HETATM    6  C1  UNK     1      29.722  -6.220  36.269  1.00  0.00     0.108 C 
HETATM    7  C2  UNK     1      29.898  -6.414  34.779  1.00  0.00     0.065 A 
HETATM    8  C4  UNK     1      30.606  -5.102  36.806  1.00  0.00     0.086 C 
HETATM    9  C5  UNK     1      30.878  -5.800  34.090  1.00  0.00     0.204 A 
HETATM   10  C6  UNK     1      28.937  -7.284  34.048  1.00  0.00     0.197 A 
HETATM   11  C7  UNK     1      29.185  -7.464  32.610  1.00  0.00     0.049 A 
HETATM   12  C8  UNK     1      31.563  -4.534  36.039  1.00  0.00     0.162 C 
HETATM   13  C9  UNK     1      30.253  -6.794  32.024  1.00  0.00     0.095 A 
HETATM   14  C12 UNK     1      28.364  -8.293  31.841  1.00  0.00     0.021 A 
HETATM   15  C13 UNK     1      30.510  -6.948  30.662  1.00  0.00     0.080 A 
HETATM   16  C16 UNK     1      30.382  -4.647  38.144  1.00  0.00     0.100 C 
HETATM   17  C17 UNK     1      28.623  -8.446  30.478  1.00  0.00     0.043 A 
HETATM   18  C18 UNK     1      29.694  -7.774  29.889  1.00  0.00     0.119 A 
ENDROOT
BRANCH   6  19
HETATM   19  C3  UNK     1      30.001  -7.499  37.002  1.00  0.00    -0.043 A 
HETATM   20  C10 UNK     1      29.021  -8.051  37.819  1.00  0.00     0.027 A 
HETATM   21  C14 UNK     1      29.281  -9.240  38.500  1.00  0.00     0.011 A 
HETATM   22 Br1  UNK     1      27.956 -10.003  39.611  1.00  0.00    -0.051 Br
HETATM   23  C19 UNK     1      30.518  -9.870  38.360  1.00  0.00     0.019 A 
HETATM   24  C15 UNK     1      31.496  -9.308  37.539  1.00  0.00     0.002 A 
HETATM   25  C11 UNK     1      31.237  -8.119  36.858  1.00  0.00     0.008 A 
ENDBRANCH   6  19
BRANCH  12  26
HETATM   26  N1  UNK     1      32.408  -3.538  36.444  1.00  0.00    -0.379 N 
HETATM   27  H10 UNK     1      32.612  -2.780  35.805  1.00  0.00     0.158 HD
HETATM   28  H9  UNK     1      32.828  -3.554  37.364  1.00  0.00     0.158 HD
ENDBRANCH  12  26
TORSDOF 2
ENDMDL
MODEL 3
REMARK VINA RESULT:      -8.2      4.567      6.349
REMARK  2 active torsions:
REMARK  status: ('A' for Active; 'I' for Inactive)
REMARK    1  A    between atoms: C8_15  and  N1_6 
REMARK    2  A    between atoms: C1_8  and  C3_10 
ROOT
HETATM    1  F1  UNK     1      29.527  -3.573  40.173  1.00  0.00    -0.206 F 
HETATM    2  O1  UNK     1      33.415  -5.589  34.625  1.00  0.00    -0.269 OA
HETATM    3  O2  UNK     1      32.062  -4.985  36.442  1.00  0.00    -0.286 OA
HETATM    4  O3  UNK     1      29.122  -7.534  35.253  1.00  0.00    -0.287 OA
HETATM    5  N2  UNK     1      33.587  -8.879  31.111  1.00  0.00    -0.191 NA
HETATM    6  C1  UNK     1      31.448  -7.370  33.544  1.00  0.00     0.108 C 
HETATM    7  C2  UNK     1      31.258  -6.577  34.819  1.00  0.00     0.065 A 
HETATM    8  C4  UNK     1      32.879  -7.287  33.031  1.00  0.00     0.086 C 
HETATM    9  C5  UNK     1      32.204  -5.744  35.289  1.00  0.00     0.204 A 
HETATM   10  C6  UNK     1      29.998  -6.750  35.592  1.00  0.00     0.197 A 
HETATM   11  C7  UNK     1      29.856  -5.922  36.798  1.00  0.00     0.049 A 
HETATM   12  C8  UNK     1      33.770  -6.426  33.570  1.00  0.00     0.162 C 
HETATM   13  C9  UNK     1      30.900  -5.078  37.160  1.00  0.00     0.095 A 
HETATM   14  C12 UNK     1      28.694  -5.980  37.573  1.00  0.00     0.021 A 
HETATM   15  C13 UNK     1      30.791  -4.282  38.300  1.00  0.00     0.080 A 
HETATM   16  C16 UNK     1      33.269  -8.167  31.971  1.00  0.00     0.100 C 
HETATM   17  C17 UNK     1      28.586  -5.182  38.714  1.00  0.00     0.043 A 
HETATM   18  C18 UNK     1      29.633  -4.335  39.077  1.00  0.00     0.119 A 
ENDROOT
BRANCH   6  19
HETATM   19  C3  UNK     1      30.490  -6.904  32.487  1.00  0.00    -0.043 A 
HETATM   20  C10 UNK     1      29.669  -7.827  31.848  1.00  0.00     0.027 A 
HETATM   21  C14 UNK     1      28.778  -7.394  30.867  1.00  0.00     0.011 A 
HETATM   22 Br1  UNK     1      27.655  -8.637  29.993  1.00  0.00    -0.051 Br
HETATM   23  C19 UNK     1      28.715  -6.041  30.529  1.00  0.00     0.019 A 
HETATM   24  C15 UNK     1      29.543  -5.123  31.175  1.00  0.00     0.002 A 
HETATM   25  C11 UNK     1      30.433  -5.555  32.156  1.00  0.00     0.008 A 
ENDBRANCH   6  19
BRANCH  12  26
HETATM   26  N1  UNK     1      35.066  -6.276  33.161  1.00  0.00    -0.379 N 
HETATM   27  H10 UNK     1      35.401  -5.349  32.930  1.00  0.00     0.158 HD
HETATM   28  H9  UNK     1      35.684  -7.073  33.087  1.00  0.00     0.158 HD
ENDBRANCH  12  26
TORSDOF 2
ENDMDL
MODEL 4
REMARK VINA RESULT:      -8.1     22.267     24.349
REMARK  2 active torsions:
REMARK  status: ('A' for Active; 'I' for Inactive)
REMARK    1  A    between atoms: C8_15  and  N1_6 
REMARK    2  A    between atoms: C1_8  and  C3_10 
ROOT
HETATM    1  F1  UNK     1      24.200  -3.464  19.979  1.00  0.00    -0.206 F 
HETATM    2  O1  UNK     1      19.871  -2.064  14.571  1.00  0.00    -0.269 OA
HETATM    3  O2  UNK     1      21.325  -2.613  16.326  1.00  0.00    -0.286 OA
HETATM    4  O3  UNK     1      21.823  -6.388  14.893  1.00  0.00    -0.287 OA
HETATM    5  N2  UNK     1      18.340  -3.869  10.375  1.00  0.00    -0.191 NA
HETATM    6  C1  UNK     1      19.991  -4.693  13.435  1.00  0.00     0.108 C 
HETATM    7  C2  UNK     1      20.751  -4.275  14.675  1.00  0.00     0.065 A 
HETATM    8  C4  UNK     1      19.342  -3.505  12.737  1.00  0.00     0.086 C 
HETATM    9  C5  UNK     1      20.661  -3.031  15.182  1.00  0.00     0.204 A 
HETATM   10  C6  UNK     1      21.649  -5.260  15.335  1.00  0.00     0.197 A 
HETATM   11  C7  UNK     1      22.328  -4.806  16.558  1.00  0.00     0.049 A 
HETATM   12  C8  UNK     1      19.305  -2.285  13.317  1.00  0.00     0.162 C 
HETATM   13  C9  UNK     1      22.127  -3.501  16.992  1.00  0.00     0.095 A 
HETATM   14  C12 UNK     1      23.162  -5.668  17.275  1.00  0.00     0.021 A 
HETATM   15  C13 UNK     1      22.758  -3.045  18.149  1.00  0.00     0.080 A 
HETATM   16  C16 UNK     1      18.789  -3.706  11.433  1.00  0.00     0.100 C 
HETATM   17  C17 UNK     1      23.793  -5.210  18.433  1.00  0.00     0.043 A 
HETATM   18  C18 UNK     1      23.592  -3.900  18.869  1.00  0.00     0.119 A 
ENDROOT
BRANCH   6  19
HETATM   19  C3  UNK     1      18.954  -5.723  13.776  1.00  0.00    -0.043 A 
HETATM   20  C10 UNK     1      18.156  -5.550  14.901  1.00  0.00     0.027 A 
HETATM   21  C14 UNK     1      17.193  -6.508  15.217  1.00  0.00     0.011 A 
HETATM   22 Br1  UNK     1      16.100  -6.283  16.742  1.00  0.00    -0.051 Br
HETATM   23  C19 UNK     1      17.034  -7.633  14.406  1.00  0.00     0.019 A 
HETATM   24  C15 UNK     1      17.840  -7.798  13.280  1.00  0.00     0.002 A 
HETATM   25  C11 UNK     1      18.803  -6.841  12.963  1.00  0.00     0.008 A 
ENDBRANCH   6  19
BRANCH  12  26
HETATM   26  N1  UNK     1      18.732  -1.170  12.769  1.00  0.00    -0.379 N 
HETATM   27  H10 UNK     1      19.275  -0.318  12.716  1.00  0.00     0.158 HD
HETATM   28  H9  UNK     1      17.781  -1.190  12.424  1.00  0.00     0.158 HD
ENDBRANCH  12  26
TORSDOF 2
ENDMDL
MODEL 5
REMARK VINA RESULT:      -8.1      5.179      7.414
REMARK  2 active torsions:
REMARK  status: ('A' for Active; 'I' for Inactive)
REMARK    1  A    between atoms: C8_15  and  N1_6 
REMARK    2  A    between atoms: C1_8  and  C3_10 
ROOT
HETATM    1  F1  UNK     1      27.315  -9.580  28.903  1.00  0.00    -0.206 F 
HETATM    2  O1  UNK     1      32.840  -8.958  33.266  1.00  0.00    -0.269 OA
HETATM    3  O2  UNK     1      30.974  -9.083  31.852  1.00  0.00    -0.286 OA
HETATM    4  O3  UNK     1      29.324  -5.769  33.539  1.00  0.00    -0.287 OA
HETATM    5  N2  UNK     1      34.841  -5.940  36.443  1.00  0.00    -0.191 NA
HETATM    6  C1  UNK     1      31.828  -6.673  34.668  1.00  0.00     0.108 C 
HETATM    7  C2  UNK     1      31.106  -7.347  33.521  1.00  0.00     0.065 A 
HETATM    8  C4  UNK     1      33.244  -7.203  34.838  1.00  0.00     0.086 C 
HETATM    9  C5  UNK     1      31.612  -8.424  32.894  1.00  0.00     0.204 A 
HETATM   10  C6  UNK     1      29.812  -6.780  33.053  1.00  0.00     0.197 A 
HETATM   11  C7  UNK     1      29.140  -7.503  31.964  1.00  0.00     0.049 A 
HETATM   12  C8  UNK     1      33.675  -8.289  34.159  1.00  0.00     0.162 C 
HETATM   13  C9  UNK     1      29.760  -8.623  31.420  1.00  0.00     0.095 A 
HETATM   14  C12 UNK     1      27.902  -7.076  31.478  1.00  0.00     0.021 A 
HETATM   15  C13 UNK     1      29.144  -9.327  30.385  1.00  0.00     0.080 A 
HETATM   16  C16 UNK     1      34.126  -6.505  35.724  1.00  0.00     0.100 C 
HETATM   17  C17 UNK     1      27.287  -7.782  30.443  1.00  0.00     0.043 A 
HETATM   18  C18 UNK     1      27.907  -8.906  29.897  1.00  0.00     0.119 A 
ENDROOT
BRANCH   6  19
HETATM   19  C3  UNK     1      31.055  -6.836  35.944  1.00  0.00    -0.043 A 
HETATM   20  C10 UNK     1      30.706  -5.713  36.685  1.00  0.00     0.027 A 
HETATM   21  C14 UNK     1      29.988  -5.865  37.870  1.00  0.00     0.011 A 
HETATM   22 Br1  UNK     1      29.505  -4.346  38.885  1.00  0.00    -0.051 Br
HETATM   23  C19 UNK     1      29.624  -7.139  38.309  1.00  0.00     0.019 A 
HETATM   24  C15 UNK     1      29.980  -8.261  37.559  1.00  0.00     0.002 A 
HETATM   25  C11 UNK     1      30.697  -8.109  36.374  1.00  0.00     0.008 A 
ENDBRANCH   6  19
BRANCH  12  26
HETATM   26  N1  UNK     1      34.922  -8.840  34.263  1.00  0.00    -0.379 N 
HETATM   27  H10 UNK     1      35.526  -8.541  35.018  1.00  0.00     0.158 HD
HETATM   28  H9  UNK     1      35.243  -9.532  33.599  1.00  0.00     0.158 HD
ENDBRANCH  12  26
TORSDOF 2
ENDMDL
MODEL 6
REMARK VINA RESULT:      -8.1      3.980      6.513
REMARK  2 active torsions:
REMARK  status: ('A' for Active; 'I' for Inactive)
REMARK    1  A    between atoms: C8_15  and  N1_6 
REMARK    2  A    between atoms: C1_8  and  C3_10 
ROOT
HETATM    1  F1  UNK     1      30.969  -9.351  30.190  1.00  0.00    -0.206 F 
HETATM    2  O1  UNK     1      31.860  -6.265  36.486  1.00  0.00    -0.269 OA
HETATM    3  O2  UNK     1      31.472  -7.271  34.404  1.00  0.00    -0.286 OA
HETATM    4  O3  UNK     1      27.446  -6.867  34.825  1.00  0.00    -0.287 OA
HETATM    5  N2  UNK     1      29.463  -3.858  39.902  1.00  0.00    -0.191 NA
HETATM    6  C1  UNK     1      29.065  -5.967  37.044  1.00  0.00     0.108 C 
HETATM    7  C2  UNK     1      29.610  -6.574  35.769  1.00  0.00     0.065 A 
HETATM    8  C4  UNK     1      30.162  -5.331  37.886  1.00  0.00     0.086 C 
HETATM    9  C5  UNK     1      30.932  -6.703  35.549  1.00  0.00     0.204 A 
HETATM   10  C6  UNK     1      28.656  -7.011  34.715  1.00  0.00     0.197 A 
HETATM   11  C7  UNK     1      29.245  -7.629  33.519  1.00  0.00     0.049 A 
HETATM   12  C8  UNK     1      31.468  -5.506  37.586  1.00  0.00     0.162 C 
HETATM   13  C9  UNK     1      30.630  -7.729  33.427  1.00  0.00     0.095 A 
HETATM   14  C12 UNK     1      28.434  -8.109  32.488  1.00  0.00     0.021 A 
HETATM   15  C13 UNK     1      31.214  -8.311  32.303  1.00  0.00     0.080 A 
HETATM   16  C16 UNK     1      29.776  -4.518  38.999  1.00  0.00     0.100 C 
HETATM   17  C17 UNK     1      29.021  -8.692  31.363  1.00  0.00     0.043 A 
HETATM   18  C18 UNK     1      30.409  -8.793  31.271  1.00  0.00     0.119 A 
ENDROOT
BRANCH   6  19
HETATM   19  C3  UNK     1      28.328  -7.000  37.845  1.00  0.00    -0.043 A 
HETATM   20  C10 UNK     1      26.948  -6.907  37.983  1.00  0.00     0.027 A 
HETATM   21  C14 UNK     1      26.264  -7.868  38.727  1.00  0.00     0.011 A 
HETATM   22 Br1  UNK     1      24.387  -7.756  38.919  1.00  0.00    -0.051 Br
HETATM   23  C19 UNK     1      26.964  -8.914  39.330  1.00  0.00     0.019 A 
HETATM   24  C15 UNK     1      28.349  -8.998  39.187  1.00  0.00     0.002 A 
HETATM   25  C11 UNK     1      29.033  -8.039  38.443  1.00  0.00     0.008 A 
ENDBRANCH   6  19
BRANCH  12  26
HETATM   26  N1  UNK     1      32.516  -4.986  38.296  1.00  0.00    -0.379 N 
HETATM   27  H10 UNK     1      32.848  -5.484  39.112  1.00  0.00     0.158 HD
HETATM   28  H9  UNK     1      32.953  -4.117  38.018  1.00  0.00     0.158 HD
ENDBRANCH  12  26
TORSDOF 2
ENDMDL
MODEL 7
REMARK VINA RESULT:      -8.1      3.490      4.756
REMARK  2 active torsions:
REMARK  status: ('A' for Active; 'I' for Inactive)
REMARK    1  A    between atoms: C8_15  and  N1_6 
REMARK    2  A    between atoms: C1_8  and  C3_10 
ROOT
HETATM    1  F1  UNK     1      26.552  -9.065  40.215  1.00  0.00    -0.206 F 
HETATM    2  O1  UNK     1      30.583  -4.143  37.135  1.00  0.00    -0.269 OA
HETATM    3  O2  UNK     1      29.304  -5.842  38.123  1.00  0.00    -0.286 OA
HETATM    4  O3  UNK     1      31.561  -8.732  36.360  1.00  0.00    -0.287 OA
HETATM    5  N2  UNK     1      34.674  -3.605  34.649  1.00  0.00    -0.191 NA
HETATM    6  C1  UNK     1      32.241  -5.997  35.712  1.00  0.00     0.108 C 
HETATM    7  C2  UNK     1      31.117  -6.410  36.638  1.00  0.00     0.065 A 
HETATM    8  C4  UNK     1      32.534  -4.506  35.802  1.00  0.00     0.086 C 
HETATM    9  C5  UNK     1      30.355  -5.507  37.282  1.00  0.00     0.204 A 
HETATM   10  C6  UNK     1      30.869  -7.859  36.866  1.00  0.00     0.197 A 
HETATM   11  C7  UNK     1      29.737  -8.196  37.743  1.00  0.00     0.049 A 
HETATM   12  C8  UNK     1      31.718  -3.670  36.481  1.00  0.00     0.162 C 
HETATM   13  C9  UNK     1      29.010  -7.164  38.326  1.00  0.00     0.095 A 
HETATM   14  C12 UNK     1      29.395  -9.528  37.990  1.00  0.00     0.021 A 
HETATM   15  C13 UNK     1      27.932  -7.456  39.161  1.00  0.00     0.080 A 
HETATM   16  C16 UNK     1      33.716  -4.009  35.166  1.00  0.00     0.100 C 
HETATM   17  C17 UNK     1      28.316  -9.818  38.827  1.00  0.00     0.043 A 
HETATM   18  C18 UNK     1      27.586  -8.783  39.412  1.00  0.00     0.119 A 
ENDROOT
BRANCH   6  19
HETATM   19  C3  UNK     1      31.924  -6.380  34.296  1.00  0.00    -0.043 A 
HETATM   20  C10 UNK     1      30.746  -5.932  33.710  1.00  0.00     0.027 A 
HETATM   21  C14 UNK     1      30.452  -6.286  32.394  1.00  0.00     0.011 A 
HETATM   22 Br1  UNK     1      28.855  -5.681  31.585  1.00  0.00    -0.051 Br
HETATM   23  C19 UNK     1      31.337  -7.088  31.672  1.00  0.00     0.019 A 
HETATM   24  C15 UNK     1      32.517  -7.534  32.269  1.00  0.00     0.002 A 
HETATM   25  C11 UNK     1      32.812  -7.179  33.584  1.00  0.00     0.008 A 
ENDBRANCH   6  19
BRANCH  12  26
HETATM   26  N1  UNK     1      31.896  -2.319  36.599  1.00  0.00    -0.379 N 
HETATM   27  H10 UNK     1      31.832  -1.744  35.768  1.00  0.00     0.158 HD
HETATM   28  H9  UNK     1      32.093  -1.896  37.496  1.00  0.00     0.158 HD
ENDBRANCH  12  26
TORSDOF 2
ENDMDL
MODEL 8
REMARK VINA RESULT:      -8.1      2.980      3.983
REMARK  2 active torsions:
REMARK  status: ('A' for Active; 'I' for Inactive)
REMARK    1  A    between atoms: C8_15  and  N1_6 
REMARK    2  A    between atoms: C1_8  and  C3_10 
ROOT
HETATM    1  F1  UNK     1      24.841  -8.465  39.498  1.00  0.00    -0.206 F 
HETATM    2  O1  UNK     1      30.233  -4.741  36.850  1.00  0.00    -0.269 OA
HETATM    3  O2  UNK     1      28.502  -6.050  37.738  1.00  0.00    -0.286 OA
HETATM    4  O3  UNK     1      30.871  -9.358  37.795  1.00  0.00    -0.287 OA
HETATM    5  N2  UNK     1      34.962  -5.016  35.974  1.00  0.00    -0.191 NA
HETATM    6  C1  UNK     1      32.049  -6.953  36.703  1.00  0.00     0.108 C 
HETATM    7  C2  UNK     1      30.635  -7.057  37.233  1.00  0.00     0.065 A 
HETATM    8  C4  UNK     1      32.466  -5.508  36.473  1.00  0.00     0.086 C 
HETATM    9  C5  UNK     1      29.810  -5.995  37.278  1.00  0.00     0.204 A 
HETATM   10  C6  UNK     1      30.155  -8.367  37.750  1.00  0.00     0.197 A 
HETATM   11  C7  UNK     1      28.760  -8.412  38.213  1.00  0.00     0.049 A 
HETATM   12  C8  UNK     1      31.571  -4.498  36.547  1.00  0.00     0.162 C 
HETATM   13  C9  UNK     1      28.004  -7.246  38.180  1.00  0.00     0.095 A 
HETATM   14  C12 UNK     1      28.200  -9.604  38.681  1.00  0.00     0.021 A 
HETATM   15  C13 UNK     1      26.678  -7.262  38.613  1.00  0.00     0.080 A 
HETATM   16  C16 UNK     1      33.844  -5.237  36.198  1.00  0.00     0.100 C 
HETATM   17  C17 UNK     1      26.873  -9.618  39.114  1.00  0.00     0.043 A 
HETATM   18  C18 UNK     1      26.113  -8.449  39.080  1.00  0.00     0.119 A 
ENDROOT
BRANCH   6  19
HETATM   19  C3  UNK     1      32.195  -7.744  35.436  1.00  0.00    -0.043 A 
HETATM   20  C10 UNK     1      31.368  -7.466  34.354  1.00  0.00     0.027 A 
HETATM   21  C14 UNK     1      31.504  -8.200  33.176  1.00  0.00     0.011 A 
HETATM   22 Br1  UNK     1      30.387  -7.830  31.696  1.00  0.00    -0.051 Br
HETATM   23  C19 UNK     1      32.466  -9.207  33.088  1.00  0.00     0.019 A 
HETATM   24  C15 UNK     1      33.291  -9.479  34.179  1.00  0.00     0.002 A 
HETATM   25  C11 UNK     1      33.155  -8.746  35.356  1.00  0.00     0.008 A 
ENDBRANCH   6  19
BRANCH  12  26
HETATM   26  N1  UNK     1      31.856  -3.176  36.341  1.00  0.00    -0.379 N 
HETATM   27  H10 UNK     1      31.108  -2.554  36.062  1.00  0.00     0.158 HD
HETATM   28  H9  UNK     1      32.795  -2.821  36.460  1.00  0.00     0.158 HD
ENDBRANCH  12  26
TORSDOF 2
ENDMDL
MODEL 9
REMARK VINA RESULT:      -7.9      4.107      5.723
REMARK  2 active torsions:
REMARK  status: ('A' for Active; 'I' for Inactive)
REMARK    1  A    between atoms: C8_15  and  N1_6 
REMARK    2  A    between atoms: C1_8  and  C3_10 
ROOT
HETATM    1  F1  UNK     1      26.455 -10.321  40.373  1.00  0.00    -0.206 F 
HETATM    2  O1  UNK     1      28.489  -9.570  33.646  1.00  0.00    -0.269 OA
HETATM    3  O2  UNK     1      27.846  -9.732  35.895  1.00  0.00    -0.286 OA
HETATM    4  O3  UNK     1      29.512  -6.121  36.757  1.00  0.00    -0.287 OA
HETATM    5  N2  UNK     1      30.310  -6.335  30.575  1.00  0.00    -0.191 NA
HETATM    6  C1  UNK     1      29.816  -7.060  34.039  1.00  0.00     0.108 C 
HETATM    7  C2  UNK     1      29.100  -7.816  35.137  1.00  0.00     0.065 A 
HETATM    8  C4  UNK     1      29.557  -7.667  32.667  1.00  0.00     0.086 C 
HETATM    9  C5  UNK     1      28.496  -8.997  34.913  1.00  0.00     0.204 A 
HETATM   10  C6  UNK     1      29.036  -7.219  36.498  1.00  0.00     0.197 A 
HETATM   11  C7  UNK     1      28.362  -8.020  37.530  1.00  0.00     0.049 A 
HETATM   12  C8  UNK     1      28.932  -8.858  32.533  1.00  0.00     0.162 C 
HETATM   13  C9  UNK     1      27.802  -9.241  37.172  1.00  0.00     0.095 A 
HETATM   14  C12 UNK     1      28.283  -7.567  38.849  1.00  0.00     0.021 A 
HETATM   15  C13 UNK     1      27.157 -10.021  38.132  1.00  0.00     0.080 A 
HETATM   16  C16 UNK     1      29.972  -6.931  31.512  1.00  0.00     0.100 C 
HETATM   17  C17 UNK     1      27.637  -8.349  39.809  1.00  0.00     0.043 A 
HETATM   18  C18 UNK     1      27.075  -9.574  39.450  1.00  0.00     0.119 A 
ENDROOT
BRANCH   6  19
HETATM   19  C3  UNK     1      31.291  -7.006  34.312  1.00  0.00    -0.043 A 
HETATM   20  C10 UNK     1      31.924  -5.774  34.429  1.00  0.00     0.027 A 
HETATM   21  C14 UNK     1      33.294  -5.725  34.684  1.00  0.00     0.011 A 
HETATM   22 Br1  UNK     1      34.166  -4.056  34.848  1.00  0.00    -0.051 Br
HETATM   23  C19 UNK     1      34.023  -6.908  34.820  1.00  0.00     0.019 A 
HETATM   24  C15 UNK     1      33.379  -8.139  34.700  1.00  0.00     0.002 A 
HETATM   25  C11 UNK     1      32.009  -8.189  34.446  1.00  0.00     0.008 A 
ENDBRANCH   6  19
BRANCH  12  26
HETATM   26  N1  UNK     1      28.673  -9.482  31.344  1.00  0.00    -0.379 N 
HETATM   27  H10 UNK     1      29.363 -10.120  30.967  1.00  0.00     0.158 HD
HETATM   28  H9  UNK     1      27.811  -9.311  30.843  1.00  0.00     0.158 HD
ENDBRANCH  12  26
TORSDOF 2
ENDMDL
MODEL 10
REMARK VINA RESULT:      -7.9      5.518      7.774
REMARK  2 active torsions:
REMARK  status: ('A' for Active; 'I' for Inactive)
REMARK    1  A    between atoms: C8_15  and  N1_6 
REMARK    2  A    between atoms: C1_8  and  C3_10 
ROOT
HETATM    1  F1  UNK     1      27.739  -9.915  28.599  1.00  0.00    -0.206 F 
HETATM    2  O1  UNK     1      33.229  -7.650  32.431  1.00  0.00    -0.269 OA
HETATM    3  O2  UNK     1      31.354  -8.337  31.202  1.00  0.00    -0.286 OA
HETATM    4  O3  UNK     1      28.923  -5.820  33.277  1.00  0.00    -0.287 OA
HETATM    5  N2  UNK     1      34.493  -4.253  35.604  1.00  0.00    -0.191 NA
HETATM    6  C1  UNK     1      31.698  -5.881  34.086  1.00  0.00     0.108 C 
HETATM    7  C2  UNK     1      31.106  -6.716  32.970  1.00  0.00     0.065 A 
HETATM    8  C4  UNK     1      33.219  -5.917  34.078  1.00  0.00     0.086 C 
HETATM    9  C5  UNK     1      31.859  -7.541  32.220  1.00  0.00     0.204 A 
HETATM   10  C6  UNK     1      29.653  -6.594  32.674  1.00  0.00     0.197 A 
HETATM   11  C7  UNK     1      29.132  -7.460  31.606  1.00  0.00     0.049 A 
HETATM   12  C8  UNK     1      33.898  -6.774  33.283  1.00  0.00     0.162 C 
HETATM   13  C9  UNK     1      30.014  -8.291  30.925  1.00  0.00     0.095 A 
HETATM   14  C12 UNK     1      27.774  -7.451  31.277  1.00  0.00     0.021 A 
HETATM   15  C13 UNK     1      29.545  -9.123  29.908  1.00  0.00     0.080 A 
HETATM   16  C16 UNK     1      33.922  -4.998  34.921  1.00  0.00     0.100 C 
HETATM   17  C17 UNK     1      27.306  -8.285  30.259  1.00  0.00     0.043 A 
HETATM   18  C18 UNK     1      28.191  -9.119  29.576  1.00  0.00     0.119 A 
ENDROOT
BRANCH   6  19
HETATM   19  C3  UNK     1      31.175  -6.337  35.417  1.00  0.00    -0.043 A 
HETATM   20  C10 UNK     1      31.371  -7.653  35.819  1.00  0.00     0.027 A 
HETATM   21  C14 UNK     1      30.886  -8.076  37.056  1.00  0.00     0.011 A 
HETATM   22 Br1  UNK     1      31.147  -9.862  37.615  1.00  0.00    -0.051 Br
HETATM   23  C19 UNK     1      30.207  -7.180  37.883  1.00  0.00     0.019 A 
HETATM   24  C15 UNK     1      30.015  -5.861  37.472  1.00  0.00     0.002 A 
HETATM   25  C11 UNK     1      30.500  -5.438  36.235  1.00  0.00     0.008 A 
ENDBRANCH   6  19
BRANCH  12  26
HETATM   26  N1  UNK     1      35.260  -6.883  33.224  1.00  0.00    -0.379 N 
HETATM   27  H10 UNK     1      35.720  -6.778  32.328  1.00  0.00     0.158 HD
HETATM   28  H9  UNK     1      35.804  -7.069  34.056  1.00  0.00     0.158 HD
ENDBRANCH  12  26
TORSDOF 2
ENDMDL
