MODEL 1
REMARK VINA RESULT:     -10.0      0.000      0.000
REMARK  6 active torsions:
REMARK  status: ('A' for Active; 'I' for Inactive)
REMARK    1  A    between atoms: C4_12  and  O2_4 
REMARK    2  A    between atoms: C16_24  and  N1_7 
REMARK    3  A    between atoms: C8_16  and  N1_7 
REMARK    4  A    between atoms: C16_24  and  N2_8 
REMARK       I    between atoms: C19_27  and  N2_8 
REMARK    5  A    between atoms: C1_9  and  C2_10 
REMARK    6  A    between atoms: C18_26  and  C19_27 
ROOT
HETATM    1  C1  UNK     1      18.332   4.971  32.425  1.00  0.00     0.014 A 
HETATM    2  C4  UNK     1      18.565   4.664  31.082  1.00  0.00     0.081 A 
HETATM    3  C7  UNK     1      18.164   3.943  33.353  1.00  0.00     0.017 A 
HETATM    4  C8  UNK     1      18.461   2.307  31.599  1.00  0.00     0.036 A 
HETATM    5  C9  UNK     1      18.630   3.334  30.670  1.00  0.00     0.067 A 
HETATM    6  C11 UNK     1      18.228   2.612  32.940  1.00  0.00     0.030 A 
ENDROOT
BRANCH   4   7
HETATM    7  N1  UNK     1      18.526   0.976  31.187  1.00  0.00    -0.333 N 
HETATM    8  H7  UNK     1      17.634   0.634  30.835  1.00  0.00     0.168 HD
BRANCH   7   9
HETATM    9  C16 UNK     1      19.459  -0.050  31.406  1.00  0.00     0.179 C 
HETATM   10  S1  UNK     1      20.571  -0.693  30.326  1.00  0.00    -0.040 SA
BRANCH   9  11
HETATM   11  N2  UNK     1      19.474  -0.569  32.716  1.00  0.00    -0.299 N 
HETATM   12  C19 UNK     1      18.416  -0.987  33.539  1.00  0.00     0.259 C 
HETATM   13  O4  UNK     1      17.226  -0.972  33.238  1.00  0.00    -0.267 OA
HETATM   14  H13 UNK     1      20.407  -0.638  33.119  1.00  0.00     0.171 HD
BRANCH  12  15
HETATM   15  C18 UNK     1      18.815  -1.526  34.864  1.00  0.00     0.054 A 
HETATM   16  C20 UNK     1      18.107  -1.202  36.005  1.00  0.00     0.049 A 
HETATM   17 Cl1  UNK     1      16.729  -0.163  35.976  1.00  0.00    -0.083 Cl
HETATM   18  C22 UNK     1      18.518  -1.731  37.229  1.00  0.00     0.025 A 
HETATM   19  C24 UNK     1      19.627  -2.573  37.288  1.00  0.00     0.002 A 
HETATM   20  C23 UNK     1      20.328  -2.887  36.123  1.00  0.00     0.001 A 
HETATM   21  C21 UNK     1      19.917  -2.359  34.899  1.00  0.00     0.019 A 
ENDBRANCH  12  15
ENDBRANCH   9  11
ENDBRANCH   7   9
ENDBRANCH   4   7
BRANCH   2  22
HETATM   22  O2  UNK     1      18.735   5.649  30.154  1.00  0.00    -0.355 OA
HETATM   23  C17 UNK     1      20.075   5.991  29.810  1.00  0.00     0.210 C 
ENDBRANCH   2  22
BRANCH   1  24
HETATM   24  C2  UNK     1      18.259   6.370  32.885  1.00  0.00     0.053 A 
HETATM   25  C10 UNK     1      19.497   7.097  33.280  1.00  0.00     0.299 A 
HETATM   26  O1  UNK     1      19.350   8.424  33.676  1.00  0.00    -0.274 OA
HETATM   27  O3  UNK     1      20.600   6.560  33.268  1.00  0.00    -0.259 OA
HETATM   28  C6  UNK     1      18.093   9.055  33.721  1.00  0.00     0.089 A 
HETATM   29  C13 UNK     1      18.049  10.383  34.142  1.00  0.00     0.038 A 
HETATM   30  C3  UNK     1      16.945   8.363  33.358  1.00  0.00    -0.001 A 
HETATM   31  C15 UNK     1      16.818  11.032  34.199  1.00  0.00     0.003 A 
HETATM   32  C14 UNK     1      15.653  10.353  33.837  1.00  0.00     0.001 A 
HETATM   33  C12 UNK     1      15.713   9.021  33.417  1.00  0.00     0.014 A 
HETATM   34  C5  UNK     1      17.065   6.980  32.926  1.00  0.00     0.032 A 
ENDBRANCH   1  24
TORSDOF 6
ENDMDL
MODEL 2
REMARK VINA RESULT:      -9.8      1.404      2.173
REMARK  6 active torsions:
REMARK  status: ('A' for Active; 'I' for Inactive)
REMARK    1  A    between atoms: C4_12  and  O2_4 
REMARK    2  A    between atoms: C16_24  and  N1_7 
REMARK    3  A    between atoms: C8_16  and  N1_7 
REMARK    4  A    between atoms: C16_24  and  N2_8 
REMARK       I    between atoms: C19_27  and  N2_8 
REMARK    5  A    between atoms: C1_9  and  C2_10 
REMARK    6  A    between atoms: C18_26  and  C19_27 
ROOT
HETATM    1  C1  UNK     1      18.284   4.944  32.409  1.00  0.00     0.014 A 
HETATM    2  C4  UNK     1      18.596   4.576  31.098  1.00  0.00     0.081 A 
HETATM    3  C7  UNK     1      18.071   3.960  33.375  1.00  0.00     0.017 A 
HETATM    4  C8  UNK     1      18.478   2.245  31.722  1.00  0.00     0.036 A 
HETATM    5  C9  UNK     1      18.693   3.228  30.756  1.00  0.00     0.067 A 
HETATM    6  C11 UNK     1      18.167   2.612  33.032  1.00  0.00     0.030 A 
ENDROOT
BRANCH   4   7
HETATM    7  N1  UNK     1      18.575   0.896  31.380  1.00  0.00    -0.333 N 
HETATM    8  H7  UNK     1      17.791   0.581  30.812  1.00  0.00     0.168 HD
BRANCH   7   9
HETATM    9  C16 UNK     1      19.359  -0.162  31.867  1.00  0.00     0.179 C 
HETATM   10  S1  UNK     1      20.500  -1.077  31.044  1.00  0.00    -0.040 SA
BRANCH   9  11
HETATM   11  N2  UNK     1      19.176  -0.454  33.234  1.00  0.00    -0.299 N 
HETATM   12  C19 UNK     1      18.026  -0.860  33.930  1.00  0.00     0.259 C 
HETATM   13  O4  UNK     1      16.917  -1.042  33.436  1.00  0.00    -0.267 OA
HETATM   14  H13 UNK     1      20.019  -0.340  33.793  1.00  0.00     0.171 HD
BRANCH  12  15
HETATM   15  C18 UNK     1      18.218  -1.121  35.379  1.00  0.00     0.054 A 
HETATM   16  C20 UNK     1      19.162  -2.028  35.818  1.00  0.00     0.049 A 
HETATM   17 Cl1  UNK     1      20.172  -2.912  34.732  1.00  0.00    -0.083 Cl
HETATM   18  C22 UNK     1      19.308  -2.243  37.189  1.00  0.00     0.025 A 
HETATM   19  C24 UNK     1      18.508  -1.545  38.093  1.00  0.00     0.002 A 
HETATM   20  C23 UNK     1      17.561  -0.634  37.628  1.00  0.00     0.001 A 
HETATM   21  C21 UNK     1      17.414  -0.419  36.257  1.00  0.00     0.019 A 
ENDBRANCH  12  15
ENDBRANCH   9  11
ENDBRANCH   7   9
ENDBRANCH   4   7
BRANCH   2  22
HETATM   22  O2  UNK     1      18.811   5.517  30.135  1.00  0.00    -0.355 OA
HETATM   23  C17 UNK     1      20.163   5.900  29.895  1.00  0.00     0.210 C 
ENDBRANCH   2  22
BRANCH   1  24
HETATM   24  C2  UNK     1      18.176   6.363  32.797  1.00  0.00     0.053 A 
HETATM   25  C10 UNK     1      16.890   7.092  32.629  1.00  0.00     0.299 A 
HETATM   26  O1  UNK     1      16.858   8.421  33.044  1.00  0.00    -0.274 OA
HETATM   27  O3  UNK     1      15.898   6.559  32.141  1.00  0.00    -0.259 OA
HETATM   28  C6  UNK     1      17.989   9.060  33.585  1.00  0.00     0.089 A 
HETATM   29  C13 UNK     1      17.860  10.396  33.962  1.00  0.00     0.038 A 
HETATM   30  C3  UNK     1      19.186   8.371  33.729  1.00  0.00    -0.001 A 
HETATM   31  C15 UNK     1      18.963  11.056  34.497  1.00  0.00     0.003 A 
HETATM   32  C14 UNK     1      20.175  10.379  34.650  1.00  0.00     0.001 A 
HETATM   33  C12 UNK     1      20.289   9.039  34.268  1.00  0.00     0.014 A 
HETATM   34  C5  UNK     1      19.249   6.978  33.318  1.00  0.00     0.032 A 
ENDBRANCH   1  24
TORSDOF 6
ENDMDL
MODEL 3
REMARK VINA RESULT:      -9.8      3.266      5.037
REMARK  6 active torsions:
REMARK  status: ('A' for Active; 'I' for Inactive)
REMARK    1  A    between atoms: C4_12  and  O2_4 
REMARK    2  A    between atoms: C16_24  and  N1_7 
REMARK    3  A    between atoms: C8_16  and  N1_7 
REMARK    4  A    between atoms: C16_24  and  N2_8 
REMARK       I    between atoms: C19_27  and  N2_8 
REMARK    5  A    between atoms: C1_9  and  C2_10 
REMARK    6  A    between atoms: C18_26  and  C19_27 
ROOT
HETATM    1  C1  UNK     1      16.898   8.643  33.711  1.00  0.00     0.014 A 
HETATM    2  C4  UNK     1      16.077   7.975  32.800  1.00  0.00     0.081 A 
HETATM    3  C7  UNK     1      18.146   8.113  34.041  1.00  0.00     0.017 A 
HETATM    4  C8  UNK     1      17.751   6.251  32.551  1.00  0.00     0.036 A 
HETATM    5  C9  UNK     1      16.504   6.781  32.221  1.00  0.00     0.067 A 
HETATM    6  C11 UNK     1      18.572   6.917  33.462  1.00  0.00     0.030 A 
ENDROOT
BRANCH   4   7
HETATM    7  N1  UNK     1      18.179   5.056  31.972  1.00  0.00    -0.333 N 
HETATM    8  H7  UNK     1      17.915   4.241  32.521  1.00  0.00     0.168 HD
BRANCH   7   9
HETATM    9  C16 UNK     1      19.110   4.760  30.964  1.00  0.00     0.179 C 
HETATM   10  S1  UNK     1      19.962   5.826  29.987  1.00  0.00    -0.040 SA
BRANCH   9  11
HETATM   11  N2  UNK     1      19.377   3.387  30.789  1.00  0.00    -0.299 N 
HETATM   12  C19 UNK     1      18.501   2.314  30.557  1.00  0.00     0.259 C 
HETATM   13  O4  UNK     1      17.280   2.394  30.461  1.00  0.00    -0.267 OA
HETATM   14  H13 UNK     1      20.366   3.151  30.850  1.00  0.00     0.171 HD
BRANCH  12  15
HETATM   15  C18 UNK     1      19.150   0.990  30.378  1.00  0.00     0.054 A 
HETATM   16  C20 UNK     1      19.283   0.115  31.438  1.00  0.00     0.049 A 
HETATM   17 Cl1  UNK     1      18.715   0.489  33.025  1.00  0.00    -0.083 Cl
HETATM   18  C22 UNK     1      19.900  -1.118  31.224  1.00  0.00     0.025 A 
HETATM   19  C24 UNK     1      20.371  -1.452  29.955  1.00  0.00     0.002 A 
HETATM   20  C23 UNK     1      20.226  -0.552  28.898  1.00  0.00     0.001 A 
HETATM   21  C21 UNK     1      19.609   0.681  29.112  1.00  0.00     0.019 A 
ENDBRANCH  12  15
ENDBRANCH   9  11
ENDBRANCH   7   9
ENDBRANCH   4   7
BRANCH   2  22
HETATM   22  O2  UNK     1      14.854   8.471  32.459  1.00  0.00    -0.355 OA
HETATM   23  C17 UNK     1      13.771   7.545  32.406  1.00  0.00     0.210 C 
ENDBRANCH   2  22
BRANCH   1  24
HETATM   24  C2  UNK     1      16.470   9.908  34.338  1.00  0.00     0.053 A 
HETATM   25  C10 UNK     1      17.245  11.158  34.113  1.00  0.00     0.299 A 
HETATM   26  O1  UNK     1      16.762  12.317  34.715  1.00  0.00    -0.274 OA
HETATM   27  O3  UNK     1      18.269  11.178  33.437  1.00  0.00    -0.259 OA
HETATM   28  C6  UNK     1      15.604  12.316  35.514  1.00  0.00     0.089 A 
HETATM   29  C13 UNK     1      15.206  13.525  36.082  1.00  0.00     0.038 A 
HETATM   30  C3  UNK     1      14.894  11.141  35.723  1.00  0.00    -0.001 A 
HETATM   31  C15 UNK     1      14.065  13.554  36.880  1.00  0.00     0.003 A 
HETATM   32  C14 UNK     1      13.338  12.382  37.100  1.00  0.00     0.001 A 
HETATM   33  C12 UNK     1      13.749  11.176  36.524  1.00  0.00     0.014 A 
HETATM   34  C5  UNK     1      15.363   9.916  35.097  1.00  0.00     0.032 A 
ENDBRANCH   1  24
TORSDOF 6
ENDMDL
MODEL 4
REMARK VINA RESULT:      -9.8      1.488      2.233
REMARK  6 active torsions:
REMARK  status: ('A' for Active; 'I' for Inactive)
REMARK    1  A    between atoms: C4_12  and  O2_4 
REMARK    2  A    between atoms: C16_24  and  N1_7 
REMARK    3  A    between atoms: C8_16  and  N1_7 
REMARK    4  A    between atoms: C16_24  and  N2_8 
REMARK       I    between atoms: C19_27  and  N2_8 
REMARK    5  A    between atoms: C1_9  and  C2_10 
REMARK    6  A    between atoms: C18_26  and  C19_27 
ROOT
HETATM    1  C1  UNK     1      18.466   4.886  31.973  1.00  0.00     0.014 A 
HETATM    2  C4  UNK     1      18.311   3.760  32.785  1.00  0.00     0.081 A 
HETATM    3  C7  UNK     1      18.698   4.730  30.606  1.00  0.00     0.017 A 
HETATM    4  C8  UNK     1      18.620   2.329  30.864  1.00  0.00     0.036 A 
HETATM    5  C9  UNK     1      18.388   2.483  32.231  1.00  0.00     0.067 A 
HETATM    6  C11 UNK     1      18.775   3.453  30.052  1.00  0.00     0.030 A 
ENDROOT
BRANCH   4   7
HETATM    7  N1  UNK     1      18.696   1.051  30.309  1.00  0.00    -0.333 N 
HETATM    8  H7  UNK     1      17.826   0.769  29.862  1.00  0.00     0.168 HD
BRANCH   7   9
HETATM    9  C16 UNK     1      19.601  -0.010  30.469  1.00  0.00     0.179 C 
HETATM   10  S1  UNK     1      20.582  -0.726  29.311  1.00  0.00    -0.040 SA
BRANCH   9  11
HETATM   11  N2  UNK     1      19.713  -0.500  31.786  1.00  0.00    -0.299 N 
HETATM   12  C19 UNK     1      18.763  -1.138  32.601  1.00  0.00     0.259 C 
HETATM   13  O4  UNK     1      17.605  -1.394  32.285  1.00  0.00    -0.267 OA
HETATM   14  H13 UNK     1      20.631  -0.354  32.201  1.00  0.00     0.171 HD
BRANCH  12  15
HETATM   15  C18 UNK     1      19.253  -1.560  33.938  1.00  0.00     0.054 A 
HETATM   16  C20 UNK     1      20.300  -2.452  34.061  1.00  0.00     0.049 A 
HETATM   17 Cl1  UNK     1      21.103  -3.133  32.693  1.00  0.00    -0.083 Cl
HETATM   18  C22 UNK     1      20.727  -2.822  35.337  1.00  0.00     0.025 A 
HETATM   19  C24 UNK     1      20.100  -2.291  36.464  1.00  0.00     0.002 A 
HETATM   20  C23 UNK     1      19.045  -1.391  36.316  1.00  0.00     0.001 A 
HETATM   21  C21 UNK     1      18.617  -1.022  35.040  1.00  0.00     0.019 A 
ENDBRANCH  12  15
ENDBRANCH   9  11
ENDBRANCH   7   9
ENDBRANCH   4   7
BRANCH   2  22
HETATM   22  O2  UNK     1      18.083   3.884  34.124  1.00  0.00    -0.355 OA
HETATM   23  C17 UNK     1      18.380   2.752  34.938  1.00  0.00     0.210 C 
ENDBRANCH   2  22
BRANCH   1  24
HETATM   24  C2  UNK     1      18.390   6.248  32.536  1.00  0.00     0.053 A 
HETATM   25  C10 UNK     1      19.610   6.908  33.074  1.00  0.00     0.299 A 
HETATM   26  O1  UNK     1      19.463   8.204  33.562  1.00  0.00    -0.274 OA
HETATM   27  O3  UNK     1      20.699   6.344  33.100  1.00  0.00    -0.259 OA
HETATM   28  C6  UNK     1      18.220   8.864  33.565  1.00  0.00     0.089 A 
HETATM   29  C13 UNK     1      18.173  10.156  34.084  1.00  0.00     0.038 A 
HETATM   30  C3  UNK     1      17.087   8.233  33.067  1.00  0.00    -0.001 A 
HETATM   31  C15 UNK     1      16.956  10.833  34.103  1.00  0.00     0.003 A 
HETATM   32  C14 UNK     1      15.806  10.215  33.606  1.00  0.00     0.001 A 
HETATM   33  C12 UNK     1      15.869   8.918  33.088  1.00  0.00     0.014 A 
HETATM   34  C5  UNK     1      17.209   6.885  32.537  1.00  0.00     0.032 A 
ENDBRANCH   1  24
TORSDOF 6
ENDMDL
MODEL 5
REMARK VINA RESULT:      -9.7     24.488     27.615
REMARK  6 active torsions:
REMARK  status: ('A' for Active; 'I' for Inactive)
REMARK    1  A    between atoms: C4_12  and  O2_4 
REMARK    2  A    between atoms: C16_24  and  N1_7 
REMARK    3  A    between atoms: C8_16  and  N1_7 
REMARK    4  A    between atoms: C16_24  and  N2_8 
REMARK       I    between atoms: C19_27  and  N2_8 
REMARK    5  A    between atoms: C1_9  and  C2_10 
REMARK    6  A    between atoms: C18_26  and  C19_27 
ROOT
HETATM    1  C1  UNK     1      14.501   8.740   9.003  1.00  0.00     0.014 A 
HETATM    2  C4  UNK     1      15.433   8.015   9.748  1.00  0.00     0.081 A 
HETATM    3  C7  UNK     1      14.856   9.975   8.459  1.00  0.00     0.017 A 
HETATM    4  C8  UNK     1      17.069   9.758   9.404  1.00  0.00     0.036 A 
HETATM    5  C9  UNK     1      16.716   8.523   9.948  1.00  0.00     0.067 A 
HETATM    6  C11 UNK     1      16.139  10.484   8.660  1.00  0.00     0.030 A 
ENDROOT
BRANCH   4   7
HETATM    7  N1  UNK     1      18.352  10.267   9.604  1.00  0.00    -0.333 N 
HETATM    8  H7  UNK     1      18.990   9.575   9.991  1.00  0.00     0.168 HD
BRANCH   7   9
HETATM    9  C16 UNK     1      18.869  11.573   9.644  1.00  0.00     0.179 C 
HETATM   10  S1  UNK     1      19.035  12.586  10.972  1.00  0.00    -0.040 SA
BRANCH   9  11
HETATM   11  N2  UNK     1      19.337  12.063   8.408  1.00  0.00    -0.299 N 
HETATM   12  C19 UNK     1      18.812  13.059   7.569  1.00  0.00     0.259 C 
HETATM   13  O4  UNK     1      17.795  13.712   7.783  1.00  0.00    -0.267 OA
HETATM   14  H13 UNK     1      20.188  11.608   8.082  1.00  0.00     0.171 HD
BRANCH  12  15
HETATM   15  C18 UNK     1      19.606  13.346   6.348  1.00  0.00     0.054 A 
HETATM   16  C20 UNK     1      20.750  14.117   6.410  1.00  0.00     0.049 A 
HETATM   17 Cl1  UNK     1      21.330  14.797   7.887  1.00  0.00    -0.083 Cl
HETATM   18  C22 UNK     1      21.465  14.362   5.237  1.00  0.00     0.025 A 
HETATM   19  C24 UNK     1      21.023  13.830   4.026  1.00  0.00     0.002 A 
HETATM   20  C23 UNK     1      19.865  13.053   3.987  1.00  0.00     0.001 A 
HETATM   21  C21 UNK     1      19.150  12.808   5.159  1.00  0.00     0.019 A 
ENDBRANCH  12  15
ENDBRANCH   9  11
ENDBRANCH   7   9
ENDBRANCH   4   7
BRANCH   2  22
HETATM   22  O2  UNK     1      15.113   6.804  10.290  1.00  0.00    -0.355 OA
HETATM   23  C17 UNK     1      15.707   5.652   9.697  1.00  0.00     0.210 C 
ENDBRANCH   2  22
BRANCH   1  24
HETATM   24  C2  UNK     1      13.138   8.224   8.777  1.00  0.00     0.053 A 
HETATM   25  C10 UNK     1      12.103   8.344   9.840  1.00  0.00     0.299 A 
HETATM   26  O1  UNK     1      10.832   7.860   9.541  1.00  0.00    -0.274 OA
HETATM   27  O3  UNK     1      12.348   8.840  10.935  1.00  0.00    -0.259 OA
HETATM   28  C6  UNK     1      10.532   7.266   8.301  1.00  0.00     0.089 A 
HETATM   29  C13 UNK     1       9.234   6.801   8.101  1.00  0.00     0.038 A 
HETATM   30  C3  UNK     1      11.510   7.152   7.321  1.00  0.00    -0.001 A 
HETATM   31  C15 UNK     1       8.908   6.206   6.884  1.00  0.00     0.003 A 
HETATM   32  C14 UNK     1       9.878   6.083   5.887  1.00  0.00     0.001 A 
HETATM   33  C12 UNK     1      11.176   6.554   6.101  1.00  0.00     0.014 A 
HETATM   34  C5  UNK     1      12.843   7.661   7.595  1.00  0.00     0.032 A 
ENDBRANCH   1  24
TORSDOF 6
ENDMDL
MODEL 6
REMARK VINA RESULT:      -9.5      4.381     10.002
REMARK  6 active torsions:
REMARK  status: ('A' for Active; 'I' for Inactive)
REMARK    1  A    between atoms: C4_12  and  O2_4 
REMARK    2  A    between atoms: C16_24  and  N1_7 
REMARK    3  A    between atoms: C8_16  and  N1_7 
REMARK    4  A    between atoms: C16_24  and  N2_8 
REMARK       I    between atoms: C19_27  and  N2_8 
REMARK    5  A    between atoms: C1_9  and  C2_10 
REMARK    6  A    between atoms: C18_26  and  C19_27 
ROOT
HETATM    1  C1  UNK     1      18.616   3.695  30.928  1.00  0.00     0.014 A 
HETATM    2  C4  UNK     1      17.986   3.811  32.169  1.00  0.00     0.081 A 
HETATM    3  C7  UNK     1      18.977   4.843  30.223  1.00  0.00     0.017 A 
HETATM    4  C8  UNK     1      18.079   6.218  31.995  1.00  0.00     0.036 A 
HETATM    5  C9  UNK     1      17.718   5.071  32.702  1.00  0.00     0.067 A 
HETATM    6  C11 UNK     1      18.709   6.104  30.755  1.00  0.00     0.030 A 
ENDROOT
BRANCH   4   7
HETATM    7  N1  UNK     1      17.811   7.480  32.528  1.00  0.00    -0.333 N 
HETATM    8  H7  UNK     1      17.192   8.028  31.935  1.00  0.00     0.168 HD
BRANCH   7   9
HETATM    9  C16 UNK     1      18.417   8.240  33.541  1.00  0.00     0.179 C 
HETATM   10  S1  UNK     1      20.001   8.168  34.091  1.00  0.00    -0.040 SA
BRANCH   9  11
HETATM   11  N2  UNK     1      17.581   9.206  34.137  1.00  0.00    -0.299 N 
HETATM   12  C19 UNK     1      16.386   9.782  33.675  1.00  0.00     0.259 C 
HETATM   13  O4  UNK     1      15.833   9.525  32.609  1.00  0.00    -0.267 OA
HETATM   14  H13 UNK     1      17.913   9.534  35.041  1.00  0.00     0.171 HD
BRANCH  12  15
HETATM   15  C18 UNK     1      15.746  10.750  34.601  1.00  0.00     0.054 A 
HETATM   16  C20 UNK     1      16.268  12.016  34.777  1.00  0.00     0.049 A 
HETATM   17 Cl1  UNK     1      17.682  12.558  33.948  1.00  0.00    -0.083 Cl
HETATM   18  C22 UNK     1      15.634  12.892  35.658  1.00  0.00     0.025 A 
HETATM   19  C24 UNK     1      14.490  12.486  36.345  1.00  0.00     0.002 A 
HETATM   20  C23 UNK     1      13.980  11.202  36.151  1.00  0.00     0.001 A 
HETATM   21  C21 UNK     1      14.614  10.326  35.271  1.00  0.00     0.019 A 
ENDBRANCH  12  15
ENDBRANCH   9  11
ENDBRANCH   7   9
ENDBRANCH   4   7
BRANCH   2  22
HETATM   22  O2  UNK     1      17.623   2.705  32.881  1.00  0.00    -0.355 OA
HETATM   23  C17 UNK     1      18.158   2.578  34.196  1.00  0.00     0.210 C 
ENDBRANCH   2  22
BRANCH   1  24
HETATM   24  C2  UNK     1      18.911   2.373  30.344  1.00  0.00     0.053 A 
HETATM   25  C10 UNK     1      18.525   2.071  28.938  1.00  0.00     0.299 A 
HETATM   26  O1  UNK     1      18.863   0.811  28.448  1.00  0.00    -0.274 OA
HETATM   27  O3  UNK     1      17.931   2.883  28.236  1.00  0.00    -0.259 OA
HETATM   28  C6  UNK     1      19.523  -0.145  29.241  1.00  0.00     0.089 A 
HETATM   29  C13 UNK     1      19.808  -1.381  28.664  1.00  0.00     0.038 A 
HETATM   30  C3  UNK     1      19.870   0.147  30.554  1.00  0.00    -0.001 A 
HETATM   31  C15 UNK     1      20.459  -2.349  29.426  1.00  0.00     0.003 A 
HETATM   32  C14 UNK     1      20.816  -2.073  30.748  1.00  0.00     0.001 A 
HETATM   33  C12 UNK     1      20.524  -0.828  31.313  1.00  0.00     0.014 A 
HETATM   34  C5  UNK     1      19.545   1.458  31.092  1.00  0.00     0.032 A 
ENDBRANCH   1  24
TORSDOF 6
ENDMDL
MODEL 7
REMARK VINA RESULT:      -9.5      6.085     12.108
REMARK  6 active torsions:
REMARK  status: ('A' for Active; 'I' for Inactive)
REMARK    1  A    between atoms: C4_12  and  O2_4 
REMARK    2  A    between atoms: C16_24  and  N1_7 
REMARK    3  A    between atoms: C8_16  and  N1_7 
REMARK    4  A    between atoms: C16_24  and  N2_8 
REMARK       I    between atoms: C19_27  and  N2_8 
REMARK    5  A    between atoms: C1_9  and  C2_10 
REMARK    6  A    between atoms: C18_26  and  C19_27 
ROOT
HETATM    1  C1  UNK     1      19.466  -4.887  36.681  1.00  0.00     0.014 A 
HETATM    2  C4  UNK     1      20.535  -4.024  36.931  1.00  0.00     0.081 A 
HETATM    3  C7  UNK     1      18.185  -4.370  36.491  1.00  0.00     0.017 A 
HETATM    4  C8  UNK     1      19.040  -2.131  36.801  1.00  0.00     0.036 A 
HETATM    5  C9  UNK     1      20.321  -2.647  36.991  1.00  0.00     0.067 A 
HETATM    6  C11 UNK     1      17.971  -2.993  36.551  1.00  0.00     0.030 A 
ENDROOT
BRANCH   4   7
HETATM    7  N1  UNK     1      18.826  -0.754  36.861  1.00  0.00    -0.333 N 
HETATM    8  H7  UNK     1      18.604  -0.435  37.802  1.00  0.00     0.168 HD
BRANCH   7   9
HETATM    9  C16 UNK     1      18.583   0.222  35.880  1.00  0.00     0.179 C 
HETATM   10  S1  UNK     1      17.862   1.726  36.064  1.00  0.00    -0.040 SA
BRANCH   9  11
HETATM   11  N2  UNK     1      19.045  -0.109  34.590  1.00  0.00    -0.299 N 
HETATM   12  C19 UNK     1      18.356  -0.643  33.488  1.00  0.00     0.259 C 
HETATM   13  O4  UNK     1      17.163  -0.929  33.461  1.00  0.00    -0.267 OA
HETATM   14  H13 UNK     1      20.038   0.067  34.453  1.00  0.00     0.171 HD
BRANCH  12  15
HETATM   15  C18 UNK     1      19.167  -0.823  32.258  1.00  0.00     0.054 A 
HETATM   16  C20 UNK     1      19.346   0.216  31.367  1.00  0.00     0.049 A 
HETATM   17 Cl1  UNK     1      18.650   1.777  31.612  1.00  0.00    -0.083 Cl
HETATM   18  C22 UNK     1      20.115   0.001  30.223  1.00  0.00     0.025 A 
HETATM   19  C24 UNK     1      20.692  -1.248  29.993  1.00  0.00     0.002 A 
HETATM   20  C23 UNK     1      20.498  -2.284  30.908  1.00  0.00     0.001 A 
HETATM   21  C21 UNK     1      19.728  -2.069  32.051  1.00  0.00     0.019 A 
ENDBRANCH  12  15
ENDBRANCH   9  11
ENDBRANCH   7   9
ENDBRANCH   4   7
BRANCH   2  22
HETATM   22  O2  UNK     1      21.798  -4.502  37.119  1.00  0.00    -0.355 OA
HETATM   23  C17 UNK     1      22.066  -5.152  38.360  1.00  0.00     0.210 C 
ENDBRANCH   2  22
BRANCH   1  24
HETATM   24  C2  UNK     1      19.666  -6.347  36.612  1.00  0.00     0.053 A 
HETATM   25  C10 UNK     1      20.264  -6.968  35.399  1.00  0.00     0.299 A 
HETATM   26  O1  UNK     1      20.447  -8.348  35.421  1.00  0.00    -0.274 OA
HETATM   27  O3  UNK     1      20.577  -6.305  34.415  1.00  0.00    -0.259 OA
HETATM   28  C6  UNK     1      20.074  -9.133  36.528  1.00  0.00     0.089 A 
HETATM   29  C13 UNK     1      20.288 -10.508  36.451  1.00  0.00     0.038 A 
HETATM   30  C3  UNK     1      19.510  -8.542  37.652  1.00  0.00    -0.001 A 
HETATM   31  C15 UNK     1      19.926 -11.310  37.530  1.00  0.00     0.003 A 
HETATM   32  C14 UNK     1      19.358 -10.733  38.668  1.00  0.00     0.001 A 
HETATM   33  C12 UNK     1      19.149  -9.353  38.732  1.00  0.00     0.014 A 
HETATM   34  C5  UNK     1      19.318  -7.101  37.666  1.00  0.00     0.032 A 
ENDBRANCH   1  24
TORSDOF 6
ENDMDL
MODEL 8
REMARK VINA RESULT:      -9.4      2.767      3.995
REMARK  6 active torsions:
REMARK  status: ('A' for Active; 'I' for Inactive)
REMARK    1  A    between atoms: C4_12  and  O2_4 
REMARK    2  A    between atoms: C16_24  and  N1_7 
REMARK    3  A    between atoms: C8_16  and  N1_7 
REMARK    4  A    between atoms: C16_24  and  N2_8 
REMARK       I    between atoms: C19_27  and  N2_8 
REMARK    5  A    between atoms: C1_9  and  C2_10 
REMARK    6  A    between atoms: C18_26  and  C19_27 
ROOT
HETATM    1  C1  UNK     1      17.781   8.249  33.329  1.00  0.00     0.014 A 
HETATM    2  C4  UNK     1      17.157   7.693  32.210  1.00  0.00     0.081 A 
HETATM    3  C7  UNK     1      18.831   7.570  33.948  1.00  0.00     0.017 A 
HETATM    4  C8  UNK     1      18.632   5.784  32.332  1.00  0.00     0.036 A 
HETATM    5  C9  UNK     1      17.583   6.462  31.713  1.00  0.00     0.067 A 
HETATM    6  C11 UNK     1      19.257   6.339  33.450  1.00  0.00     0.030 A 
ENDROOT
BRANCH   4   7
HETATM    7  N1  UNK     1      19.059   4.553  31.835  1.00  0.00    -0.333 N 
HETATM    8  H7  UNK     1      19.943   4.620  31.335  1.00  0.00     0.168 HD
BRANCH   7   9
HETATM    9  C16 UNK     1      18.412   3.322  31.641  1.00  0.00     0.179 C 
HETATM   10  S1  UNK     1      18.186   2.479  30.208  1.00  0.00    -0.040 SA
BRANCH   9  11
HETATM   11  N2  UNK     1      17.929   2.715  32.818  1.00  0.00    -0.299 N 
HETATM   12  C19 UNK     1      18.235   1.468  33.388  1.00  0.00     0.259 C 
HETATM   13  O4  UNK     1      19.024   0.647  32.931  1.00  0.00    -0.267 OA
HETATM   14  H13 UNK     1      17.245   3.278  33.319  1.00  0.00     0.171 HD
BRANCH  12  15
HETATM   15  C18 UNK     1      17.556   1.174  34.675  1.00  0.00     0.054 A 
HETATM   16  C20 UNK     1      18.095   1.594  35.875  1.00  0.00     0.049 A 
HETATM   17 Cl1  UNK     1      19.576   2.477  35.966  1.00  0.00    -0.083 Cl
HETATM   18  C22 UNK     1      17.424   1.294  37.061  1.00  0.00     0.025 A 
HETATM   19  C24 UNK     1      16.226   0.582  37.023  1.00  0.00     0.002 A 
HETATM   20  C23 UNK     1      15.699   0.167  35.800  1.00  0.00     0.001 A 
HETATM   21  C21 UNK     1      16.371   0.466  34.614  1.00  0.00     0.019 A 
ENDBRANCH  12  15
ENDBRANCH   9  11
ENDBRANCH   7   9
ENDBRANCH   4   7
BRANCH   2  22
HETATM   22  O2  UNK     1      16.129   8.336  31.585  1.00  0.00    -0.355 OA
HETATM   23  C17 UNK     1      14.829   7.769  31.728  1.00  0.00     0.210 C 
ENDBRANCH   2  22
BRANCH   1  24
HETATM   24  C2  UNK     1      17.349   9.550  33.875  1.00  0.00     0.053 A 
HETATM   25  C10 UNK     1      16.150   9.636  34.751  1.00  0.00     0.299 A 
HETATM   26  O1  UNK     1      15.822  10.894  35.251  1.00  0.00    -0.274 OA
HETATM   27  O3  UNK     1      15.468   8.652  35.022  1.00  0.00    -0.259 OA
HETATM   28  C6  UNK     1      16.574  12.041  34.935  1.00  0.00     0.089 A 
HETATM   29  C13 UNK     1      16.160  13.257  35.476  1.00  0.00     0.038 A 
HETATM   30  C3  UNK     1      17.687  11.948  34.109  1.00  0.00    -0.001 A 
HETATM   31  C15 UNK     1      16.883  14.410  35.179  1.00  0.00     0.003 A 
HETATM   32  C14 UNK     1      18.005  14.336  34.351  1.00  0.00     0.001 A 
HETATM   33  C12 UNK     1      18.409  13.109  33.816  1.00  0.00     0.014 A 
HETATM   34  C5  UNK     1      18.065  10.647  33.583  1.00  0.00     0.032 A 
ENDBRANCH   1  24
TORSDOF 6
ENDMDL
MODEL 9
REMARK VINA RESULT:      -9.3      2.978     10.400
REMARK  6 active torsions:
REMARK  status: ('A' for Active; 'I' for Inactive)
REMARK    1  A    between atoms: C4_12  and  O2_4 
REMARK    2  A    between atoms: C16_24  and  N1_7 
REMARK    3  A    between atoms: C8_16  and  N1_7 
REMARK    4  A    between atoms: C16_24  and  N2_8 
REMARK       I    between atoms: C19_27  and  N2_8 
REMARK    5  A    between atoms: C1_9  and  C2_10 
REMARK    6  A    between atoms: C18_26  and  C19_27 
ROOT
HETATM    1  C1  UNK     1      19.680  -2.831  34.673  1.00  0.00     0.014 A 
HETATM    2  C4  UNK     1      18.666  -1.878  34.797  1.00  0.00     0.081 A 
HETATM    3  C7  UNK     1      20.376  -2.952  33.470  1.00  0.00     0.017 A 
HETATM    4  C8  UNK     1      19.046  -1.172  32.519  1.00  0.00     0.036 A 
HETATM    5  C9  UNK     1      18.350  -1.050  33.721  1.00  0.00     0.067 A 
HETATM    6  C11 UNK     1      20.059  -2.124  32.393  1.00  0.00     0.030 A 
ENDROOT
BRANCH   4   7
HETATM    7  N1  UNK     1      18.731  -0.344  31.442  1.00  0.00    -0.333 N 
HETATM    8  H7  UNK     1      17.780  -0.484  31.108  1.00  0.00     0.168 HD
BRANCH   7   9
HETATM    9  C16 UNK     1      19.512   0.426  30.564  1.00  0.00     0.179 C 
HETATM   10  S1  UNK     1      20.438  -0.096  29.265  1.00  0.00    -0.040 SA
BRANCH   9  11
HETATM   11  N2  UNK     1      19.471   1.815  30.797  1.00  0.00    -0.299 N 
HETATM   12  C19 UNK     1      18.389   2.709  30.764  1.00  0.00     0.259 C 
HETATM   13  O4  UNK     1      17.224   2.415  30.513  1.00  0.00    -0.267 OA
HETATM   14  H13 UNK     1      20.379   2.221  31.015  1.00  0.00     0.171 HD
BRANCH  12  15
HETATM   15  C18 UNK     1      18.715   4.116  31.109  1.00  0.00     0.054 A 
HETATM   16  C20 UNK     1      18.625   4.568  32.411  1.00  0.00     0.049 A 
HETATM   17 Cl1  UNK     1      18.132   3.547  33.713  1.00  0.00    -0.083 Cl
HETATM   18  C22 UNK     1      18.941   5.898  32.689  1.00  0.00     0.025 A 
HETATM   19  C24 UNK     1      19.342   6.750  31.661  1.00  0.00     0.002 A 
HETATM   20  C23 UNK     1      19.427   6.272  30.353  1.00  0.00     0.001 A 
HETATM   21  C21 UNK     1      19.110   4.942  30.074  1.00  0.00     0.019 A 
ENDBRANCH  12  15
ENDBRANCH   9  11
ENDBRANCH   7   9
ENDBRANCH   4   7
BRANCH   2  22
HETATM   22  O2  UNK     1      17.970  -1.737  35.962  1.00  0.00    -0.355 OA
HETATM   23  C17 UNK     1      18.079  -0.485  36.634  1.00  0.00     0.210 C 
ENDBRANCH   2  22
BRANCH   1  24
HETATM   24  C2  UNK     1      20.032  -3.719  35.797  1.00  0.00     0.053 A 
HETATM   25  C10 UNK     1      20.823  -3.199  36.946  1.00  0.00     0.299 A 
HETATM   26  O1  UNK     1      21.091  -4.090  37.982  1.00  0.00    -0.274 OA
HETATM   27  O3  UNK     1      21.230  -2.042  36.987  1.00  0.00    -0.259 OA
HETATM   28  C6  UNK     1      20.655  -5.428  37.947  1.00  0.00     0.089 A 
HETATM   29  C13 UNK     1      20.984  -6.245  39.027  1.00  0.00     0.038 A 
HETATM   30  C3  UNK     1      19.926  -5.903  36.865  1.00  0.00    -0.001 A 
HETATM   31  C15 UNK     1      20.568  -7.574  39.020  1.00  0.00     0.003 A 
HETATM   32  C14 UNK     1      19.832  -8.069  37.940  1.00  0.00     0.001 A 
HETATM   33  C12 UNK     1      19.510  -7.237  36.864  1.00  0.00     0.014 A 
HETATM   34  C5  UNK     1      19.615  -4.994  35.774  1.00  0.00     0.032 A 
ENDBRANCH   1  24
TORSDOF 6
ENDMDL
MODEL 10
REMARK VINA RESULT:      -9.3      7.005     11.063
REMARK  6 active torsions:
REMARK  status: ('A' for Active; 'I' for Inactive)
REMARK    1  A    between atoms: C4_12  and  O2_4 
REMARK    2  A    between atoms: C16_24  and  N1_7 
REMARK    3  A    between atoms: C8_16  and  N1_7 
REMARK    4  A    between atoms: C16_24  and  N2_8 
REMARK       I    between atoms: C19_27  and  N2_8 
REMARK    5  A    between atoms: C1_9  and  C2_10 
REMARK    6  A    between atoms: C18_26  and  C19_27 
ROOT
HETATM    1  C1  UNK     1      20.407  -4.186  37.009  1.00  0.00     0.014 A 
HETATM    2  C4  UNK     1      19.780  -5.405  36.738  1.00  0.00     0.081 A 
HETATM    3  C7  UNK     1      21.636  -4.168  37.669  1.00  0.00     0.017 A 
HETATM    4  C8  UNK     1      21.611  -6.582  37.787  1.00  0.00     0.036 A 
HETATM    5  C9  UNK     1      20.382  -6.601  37.127  1.00  0.00     0.067 A 
HETATM    6  C11 UNK     1      22.237  -5.365  38.058  1.00  0.00     0.030 A 
ENDROOT
BRANCH   4   7
HETATM    7  N1  UNK     1      22.214  -7.778  38.175  1.00  0.00    -0.333 N 
HETATM    8  H7  UNK     1      22.398  -7.814  39.176  1.00  0.00     0.168 HD
BRANCH   7   9
HETATM    9  C16 UNK     1      22.856  -8.803  37.462  1.00  0.00     0.179 C 
HETATM   10  S1  UNK     1      22.237  -9.760  36.230  1.00  0.00    -0.040 SA
BRANCH   9  11
HETATM   11  N2  UNK     1      24.204  -9.017  37.816  1.00  0.00    -0.299 N 
HETATM   12  C19 UNK     1      25.140  -8.143  38.392  1.00  0.00     0.259 C 
HETATM   13  O4  UNK     1      24.931  -6.975  38.705  1.00  0.00    -0.267 OA
HETATM   14  H13 UNK     1      24.538  -9.956  37.608  1.00  0.00     0.171 HD
BRANCH  12  15
HETATM   15  C18 UNK     1      26.474  -8.733  38.668  1.00  0.00     0.054 A 
HETATM   16  C20 UNK     1      27.541  -8.503  37.822  1.00  0.00     0.049 A 
HETATM   17 Cl1  UNK     1      27.405  -7.529  36.403  1.00  0.00    -0.083 Cl
HETATM   18  C22 UNK     1      28.777  -9.078  38.120  1.00  0.00     0.025 A 
HETATM   19  C24 UNK     1      28.922  -9.870  39.259  1.00  0.00     0.002 A 
HETATM   20  C23 UNK     1      27.830 -10.089  40.099  1.00  0.00     0.001 A 
HETATM   21  C21 UNK     1      26.595  -9.515  39.801  1.00  0.00     0.019 A 
ENDBRANCH  12  15
ENDBRANCH   9  11
ENDBRANCH   7   9
ENDBRANCH   4   7
BRANCH   2  22
HETATM   22  O2  UNK     1      18.579  -5.452  36.094  1.00  0.00    -0.355 OA
HETATM   23  C17 UNK     1      17.652  -6.445  36.524  1.00  0.00     0.210 C 
ENDBRANCH   2  22
BRANCH   1  24
HETATM   24  C2  UNK     1      19.790  -2.907  36.608  1.00  0.00     0.053 A 
HETATM   25  C10 UNK     1      19.963  -2.391  35.224  1.00  0.00     0.299 A 
HETATM   26  O1  UNK     1      19.327  -1.191  34.913  1.00  0.00    -0.274 OA
HETATM   27  O3  UNK     1      20.639  -2.982  34.387  1.00  0.00    -0.259 OA
HETATM   28  C6  UNK     1      18.567  -0.483  35.861  1.00  0.00     0.089 A 
HETATM   29  C13 UNK     1      17.978   0.714  35.457  1.00  0.00     0.038 A 
HETATM   30  C3  UNK     1      18.420  -0.971  37.153  1.00  0.00    -0.001 A 
HETATM   31  C15 UNK     1      17.222   1.439  36.375  1.00  0.00     0.003 A 
HETATM   32  C14 UNK     1      17.063   0.963  37.679  1.00  0.00     0.001 A 
HETATM   33  C12 UNK     1      17.659  -0.240  38.069  1.00  0.00     0.014 A 
HETATM   34  C5  UNK     1      19.059  -2.228  37.506  1.00  0.00     0.032 A 
ENDBRANCH   1  24
TORSDOF 6
ENDMDL
