MODEL 1
REMARK VINA RESULT:      -9.1      0.000      0.000
REMARK  4 active torsions:
REMARK  status: ('A' for Active; 'I' for Inactive)
REMARK    1  A    between atoms: C5_11  and  O2_2 
REMARK       I    between atoms: C7_13  and  N1_5 
REMARK    2  A    between atoms: C8_14  and  N1_5 
REMARK    3  A    between atoms: C3_9  and  C7_13 
REMARK    4  A    between atoms: C12_18  and  C8_14 
ROOT
HETATM    1  O1  UNK     1      18.881   0.453  32.267  1.00  0.00    -0.271 OA
HETATM    2  O4  UNK     1      17.975   2.544  32.436  1.00  0.00    -0.259 OA
HETATM    3  C1  UNK     1      19.902  -0.247  30.175  1.00  0.00     0.002 A 
HETATM    4  C2  UNK     1      19.547  -0.516  31.493  1.00  0.00     0.123 A 
HETATM    5  C3  UNK     1      18.940   1.969  30.349  1.00  0.00     0.108 A 
HETATM    6  C4  UNK     1      19.572   1.051  29.609  1.00  0.00     0.037 A 
HETATM    7  C5  UNK     1      19.833  -1.741  32.095  1.00  0.00     0.102 A 
HETATM    8  C6  UNK     1      20.562  -1.235  29.440  1.00  0.00     0.014 A 
HETATM    9  C9  UNK     1      18.554   1.705  31.754  1.00  0.00     0.304 A 
HETATM   10  C10 UNK     1      20.491  -2.720  31.355  1.00  0.00     0.040 A 
HETATM   11  C11 UNK     1      20.855  -2.468  30.030  1.00  0.00     0.004 A 
ENDROOT
BRANCH   5  12
HETATM   12  C7  UNK     1      18.652   3.248  29.689  1.00  0.00     0.258 C 
HETATM   13  O3  UNK     1      18.018   3.287  28.637  1.00  0.00    -0.267 OA
HETATM   14  N1  UNK     1      19.165   4.335  30.376  1.00  0.00    -0.351 N 
HETATM   15  H5  UNK     1      19.690   4.196  31.233  1.00  0.00     0.163 HD
BRANCH  14  16
HETATM   16  C8  UNK     1      19.012   5.698  29.920  1.00  0.00     0.182 C 
BRANCH  16  17
HETATM   17  C12 UNK     1      18.393   6.575  30.970  1.00  0.00     0.051 A 
HETATM   18  N2  UNK     1      17.215   7.147  30.651  1.00  0.00    -0.264 NA
HETATM   19  C15 UNK     1      16.663   7.935  31.601  1.00  0.00     0.117 A 
HETATM   20  C16 UNK     1      17.233   8.172  32.840  1.00  0.00     0.019 A 
HETATM   21  C14 UNK     1      18.450   7.561  33.125  1.00  0.00     0.003 A 
HETATM   22  C13 UNK     1      19.049   6.743  32.174  1.00  0.00     0.029 A 
ENDBRANCH  16  17
ENDBRANCH  14  16
ENDBRANCH   5  12
BRANCH   7  23
HETATM   23  O2  UNK     1      19.481  -1.990  33.384  1.00  0.00    -0.353 OA
HETATM   24  C17 UNK     1      20.454  -2.622  34.215  1.00  0.00     0.210 C 
ENDBRANCH   7  23
TORSDOF 4
ENDMDL
MODEL 2
REMARK VINA RESULT:      -8.7      4.469      8.824
REMARK  4 active torsions:
REMARK  status: ('A' for Active; 'I' for Inactive)
REMARK    1  A    between atoms: C5_11  and  O2_2 
REMARK       I    between atoms: C7_13  and  N1_5 
REMARK    2  A    between atoms: C8_14  and  N1_5 
REMARK    3  A    between atoms: C3_9  and  C7_13 
REMARK    4  A    between atoms: C12_18  and  C8_14 
ROOT
HETATM    1  O1  UNK     1      18.682   0.766  32.354  1.00  0.00    -0.271 OA
HETATM    2  O4  UNK     1      17.964   0.903  34.518  1.00  0.00    -0.259 OA
HETATM    3  C1  UNK     1      19.774  -1.262  31.578  1.00  0.00     0.002 A 
HETATM    4  C2  UNK     1      19.306   0.024  31.332  1.00  0.00     0.123 A 
HETATM    5  C3  UNK     1      19.016  -1.120  33.874  1.00  0.00     0.108 A 
HETATM    6  C4  UNK     1      19.611  -1.829  32.907  1.00  0.00     0.037 A 
HETATM    7  C5  UNK     1      19.433   0.625  30.081  1.00  0.00     0.102 A 
HETATM    8  C6  UNK     1      20.387  -1.966  30.539  1.00  0.00     0.014 A 
HETATM    9  C9  UNK     1      18.510   0.250  33.635  1.00  0.00     0.304 A 
HETATM   10  C10 UNK     1      20.045  -0.084  29.050  1.00  0.00     0.040 A 
HETATM   11  C11 UNK     1      20.522  -1.377  29.278  1.00  0.00     0.004 A 
ENDROOT
BRANCH   5  12
HETATM   12  C7  UNK     1      18.898  -1.778  35.181  1.00  0.00     0.258 C 
HETATM   13  O3  UNK     1      18.071  -1.396  36.007  1.00  0.00    -0.267 OA
HETATM   14  N1  UNK     1      19.792  -2.820  35.341  1.00  0.00    -0.351 N 
HETATM   15  H5  UNK     1      20.449  -3.049  34.602  1.00  0.00     0.163 HD
BRANCH  14  16
HETATM   16  C8  UNK     1      19.866  -3.617  36.545  1.00  0.00     0.182 C 
BRANCH  16  17
HETATM   17  C12 UNK     1      19.854  -5.088  36.247  1.00  0.00     0.051 A 
HETATM   18  N2  UNK     1      20.198  -5.446  34.994  1.00  0.00    -0.264 NA
HETATM   19  C15 UNK     1      20.186  -6.772  34.731  1.00  0.00     0.117 A 
HETATM   20  C16 UNK     1      19.848  -7.743  35.659  1.00  0.00     0.019 A 
HETATM   21  C14 UNK     1      19.499  -7.327  36.940  1.00  0.00     0.003 A 
HETATM   22  C13 UNK     1      19.500  -5.972  37.249  1.00  0.00     0.029 A 
ENDBRANCH  16  17
ENDBRANCH  14  16
ENDBRANCH   5  12
BRANCH   7  23
HETATM   23  O2  UNK     1      18.970   1.883  29.854  1.00  0.00    -0.353 OA
HETATM   24  C17 UNK     1      17.955   2.035  28.862  1.00  0.00     0.210 C 
ENDBRANCH   7  23
TORSDOF 4
ENDMDL
MODEL 3
REMARK VINA RESULT:      -8.6     15.203     17.264
REMARK  4 active torsions:
REMARK  status: ('A' for Active; 'I' for Inactive)
REMARK    1  A    between atoms: C5_11  and  O2_2 
REMARK       I    between atoms: C7_13  and  N1_5 
REMARK    2  A    between atoms: C8_14  and  N1_5 
REMARK    3  A    between atoms: C3_9  and  C7_13 
REMARK    4  A    between atoms: C12_18  and  C8_14 
ROOT
HETATM    1  O1  UNK     1      19.401  -2.890  13.060  1.00  0.00    -0.271 OA
HETATM    2  O4  UNK     1      19.461  -0.919  14.215  1.00  0.00    -0.259 OA
HETATM    3  C1  UNK     1      18.270  -4.813  14.025  1.00  0.00     0.002 A 
HETATM    4  C2  UNK     1      18.992  -4.235  12.986  1.00  0.00     0.123 A 
HETATM    5  C3  UNK     1      18.333  -2.726  15.254  1.00  0.00     0.108 A 
HETATM    6  C4  UNK     1      17.943  -4.005  15.189  1.00  0.00     0.037 A 
HETATM    7  C5  UNK     1      19.338  -4.956  11.844  1.00  0.00     0.102 A 
HETATM    8  C6  UNK     1      17.882  -6.150  13.915  1.00  0.00     0.014 A 
HETATM    9  C9  UNK     1      19.102  -2.091  14.160  1.00  0.00     0.304 A 
HETATM   10  C10 UNK     1      18.948  -6.288  11.742  1.00  0.00     0.040 A 
HETATM   11  C11 UNK     1      18.222  -6.886  12.775  1.00  0.00     0.004 A 
ENDROOT
BRANCH   5  12
HETATM   12  C7  UNK     1      17.955  -1.993  16.468  1.00  0.00     0.258 C 
HETATM   13  O3  UNK     1      16.803  -2.031  16.896  1.00  0.00    -0.267 OA
HETATM   14  N1  UNK     1      19.011  -1.297  17.027  1.00  0.00    -0.351 N 
HETATM   15  H5  UNK     1      19.927  -1.316  16.587  1.00  0.00     0.163 HD
BRANCH  14  16
HETATM   16  C8  UNK     1      18.884  -0.499  18.225  1.00  0.00     0.182 C 
BRANCH  16  17
HETATM   17  C12 UNK     1      19.127   0.958  17.959  1.00  0.00     0.051 A 
HETATM   18  N2  UNK     1      19.212   1.321  16.664  1.00  0.00    -0.264 NA
HETATM   19  C15 UNK     1      19.431   2.635  16.430  1.00  0.00     0.117 A 
HETATM   20  C16 UNK     1      19.566   3.588  17.425  1.00  0.00     0.019 A 
HETATM   21  C14 UNK     1      19.472   3.167  18.748  1.00  0.00     0.003 A 
HETATM   22  C13 UNK     1      19.247   1.824  19.029  1.00  0.00     0.029 A 
ENDBRANCH  16  17
ENDBRANCH  14  16
ENDBRANCH   5  12
BRANCH   7  23
HETATM   23  O2  UNK     1      20.045  -4.379  10.836  1.00  0.00    -0.353 OA
HETATM   24  C17 UNK     1      19.299  -3.811   9.760  1.00  0.00     0.210 C 
ENDBRANCH   7  23
TORSDOF 4
ENDMDL
MODEL 4
REMARK VINA RESULT:      -8.5      2.704      7.902
REMARK  4 active torsions:
REMARK  status: ('A' for Active; 'I' for Inactive)
REMARK    1  A    between atoms: C5_11  and  O2_2 
REMARK       I    between atoms: C7_13  and  N1_5 
REMARK    2  A    between atoms: C8_14  and  N1_5 
REMARK    3  A    between atoms: C3_9  and  C7_13 
REMARK    4  A    between atoms: C12_18  and  C8_14 
ROOT
HETATM    1  O1  UNK     1      20.139   6.770  32.496  1.00  0.00    -0.271 OA
HETATM    2  O4  UNK     1      21.192   5.721  30.761  1.00  0.00    -0.259 OA
HETATM    3  C1  UNK     1      17.825   6.224  33.002  1.00  0.00     0.002 A 
HETATM    4  C2  UNK     1      18.980   6.949  33.275  1.00  0.00     0.123 A 
HETATM    5  C3  UNK     1      18.938   5.111  31.160  1.00  0.00     0.108 A 
HETATM    6  C4  UNK     1      17.833   5.278  31.898  1.00  0.00     0.037 A 
HETATM    7  C5  UNK     1      19.037   7.873  34.318  1.00  0.00     0.102 A 
HETATM    8  C6  UNK     1      16.696   6.430  33.798  1.00  0.00     0.014 A 
HETATM    9  C9  UNK     1      20.178   5.871  31.434  1.00  0.00     0.304 A 
HETATM   10  C10 UNK     1      17.907   8.072  35.107  1.00  0.00     0.040 A 
HETATM   11  C11 UNK     1      16.738   7.352  34.848  1.00  0.00     0.004 A 
ENDROOT
BRANCH   5  12
HETATM   12  C7  UNK     1      18.848   4.133  30.069  1.00  0.00     0.258 C 
HETATM   13  O3  UNK     1      18.596   4.491  28.920  1.00  0.00    -0.267 OA
HETATM   14  N1  UNK     1      19.070   2.835  30.491  1.00  0.00    -0.351 N 
HETATM   15  H5  UNK     1      19.256   2.639  31.470  1.00  0.00     0.163 HD
BRANCH  14  16
HETATM   16  C8  UNK     1      19.031   1.699  29.598  1.00  0.00     0.182 C 
BRANCH  16  17
HETATM   17  C12 UNK     1      19.406   0.423  30.295  1.00  0.00     0.051 A 
HETATM   18  N2  UNK     1      18.839   0.214  31.500  1.00  0.00    -0.264 NA
HETATM   19  C15 UNK     1      19.180  -0.937  32.123  1.00  0.00     0.117 A 
HETATM   20  C16 UNK     1      20.052  -1.875  31.597  1.00  0.00     0.019 A 
HETATM   21  C14 UNK     1      20.613  -1.616  30.351  1.00  0.00     0.003 A 
HETATM   22  C13 UNK     1      20.287  -0.444  29.679  1.00  0.00     0.029 A 
ENDBRANCH  16  17
ENDBRANCH  14  16
ENDBRANCH   5  12
BRANCH   7  23
HETATM   23  O2  UNK     1      20.173   8.575  34.574  1.00  0.00    -0.353 OA
HETATM   24  C17 UNK     1      20.102   9.995  34.454  1.00  0.00     0.210 C 
ENDBRANCH   7  23
TORSDOF 4
ENDMDL
MODEL 5
REMARK VINA RESULT:      -8.3     14.016     16.948
REMARK  4 active torsions:
REMARK  status: ('A' for Active; 'I' for Inactive)
REMARK    1  A    between atoms: C5_11  and  O2_2 
REMARK       I    between atoms: C7_13  and  N1_5 
REMARK    2  A    between atoms: C8_14  and  N1_5 
REMARK    3  A    between atoms: C3_9  and  C7_13 
REMARK    4  A    between atoms: C12_18  and  C8_14 
ROOT
HETATM    1  O1  UNK     1      19.304   1.656  17.048  1.00  0.00    -0.271 OA
HETATM    2  O4  UNK     1      19.184   0.772  14.944  1.00  0.00    -0.259 OA
HETATM    3  C1  UNK     1      19.174   0.184  18.977  1.00  0.00     0.002 A 
HETATM    4  C2  UNK     1      19.302   1.461  18.442  1.00  0.00     0.123 A 
HETATM    5  C3  UNK     1      19.044  -0.757  16.749  1.00  0.00     0.108 A 
HETATM    6  C4  UNK     1      19.041  -0.948  18.074  1.00  0.00     0.037 A 
HETATM    7  C5  UNK     1      19.432   2.587  19.254  1.00  0.00     0.102 A 
HETATM    8  C6  UNK     1      19.177   0.032  20.366  1.00  0.00     0.014 A 
HETATM    9  C9  UNK     1      19.180   0.593  16.157  1.00  0.00     0.304 A 
HETATM   10  C10 UNK     1      19.434   2.427  20.636  1.00  0.00     0.040 A 
HETATM   11  C11 UNK     1      19.306   1.152  21.193  1.00  0.00     0.004 A 
ENDROOT
BRANCH   5  12
HETATM   12  C7  UNK     1      18.905  -1.961  15.920  1.00  0.00     0.258 C 
HETATM   13  O3  UNK     1      17.823  -2.534  15.817  1.00  0.00    -0.267 OA
HETATM   14  N1  UNK     1      20.090  -2.335  15.312  1.00  0.00    -0.351 N 
HETATM   15  H5  UNK     1      20.939  -1.801  15.474  1.00  0.00     0.163 HD
BRANCH  14  16
HETATM   16  C8  UNK     1      20.203  -3.490  14.450  1.00  0.00     0.182 C 
BRANCH  16  17
HETATM   17  C12 UNK     1      20.428  -3.101  13.018  1.00  0.00     0.051 A 
HETATM   18  N2  UNK     1      20.230  -4.068  12.100  1.00  0.00    -0.264 NA
HETATM   19  C15 UNK     1      20.433  -3.712  10.811  1.00  0.00     0.117 A 
HETATM   20  C16 UNK     1      20.822  -2.446  10.408  1.00  0.00     0.019 A 
HETATM   21  C14 UNK     1      21.016  -1.480  11.391  1.00  0.00     0.003 A 
HETATM   22  C13 UNK     1      20.816  -1.807  12.727  1.00  0.00     0.029 A 
ENDBRANCH  16  17
ENDBRANCH  14  16
ENDBRANCH   5  12
BRANCH   7  23
HETATM   23  O2  UNK     1      19.557   3.830  18.717  1.00  0.00    -0.353 OA
HETATM   24  C17 UNK     1      20.881   4.316  18.500  1.00  0.00     0.210 C 
ENDBRANCH   7  23
TORSDOF 4
ENDMDL
MODEL 6
REMARK VINA RESULT:      -8.3      3.837      8.687
REMARK  4 active torsions:
REMARK  status: ('A' for Active; 'I' for Inactive)
REMARK    1  A    between atoms: C5_11  and  O2_2 
REMARK       I    between atoms: C7_13  and  N1_5 
REMARK    2  A    between atoms: C8_14  and  N1_5 
REMARK    3  A    between atoms: C3_9  and  C7_13 
REMARK    4  A    between atoms: C12_18  and  C8_14 
ROOT
HETATM    1  O1  UNK     1      16.889   7.944  32.945  1.00  0.00    -0.271 OA
HETATM    2  O4  UNK     1      15.815   6.105  32.117  1.00  0.00    -0.259 OA
HETATM    3  C1  UNK     1      19.222   7.775  33.608  1.00  0.00     0.002 A 
HETATM    4  C2  UNK     1      18.062   8.528  33.460  1.00  0.00     0.123 A 
HETATM    5  C3  UNK     1      18.086   5.822  32.733  1.00  0.00     0.108 A 
HETATM    6  C4  UNK     1      19.203   6.372  33.222  1.00  0.00     0.037 A 
HETATM    7  C5  UNK     1      18.013   9.876  33.812  1.00  0.00     0.102 A 
HETATM    8  C6  UNK     1      20.365   8.390  34.122  1.00  0.00     0.014 A 
HETATM    9  C9  UNK     1      16.841   6.605  32.566  1.00  0.00     0.304 A 
HETATM   10  C10 UNK     1      19.157  10.483  34.323  1.00  0.00     0.040 A 
HETATM   11  C11 UNK     1      20.331   9.742  34.479  1.00  0.00     0.004 A 
ENDROOT
BRANCH   5  12
HETATM   12  C7  UNK     1      18.167   4.401  32.372  1.00  0.00     0.258 C 
HETATM   13  O3  UNK     1      18.275   4.053  31.198  1.00  0.00    -0.267 OA
HETATM   14  N1  UNK     1      18.106   3.563  33.471  1.00  0.00    -0.351 N 
HETATM   15  H5  UNK     1      18.000   3.950  34.404  1.00  0.00     0.163 HD
BRANCH  14  16
HETATM   16  C8  UNK     1      18.164   2.123  33.367  1.00  0.00     0.182 C 
BRANCH  16  17
HETATM   17  C12 UNK     1      17.563   1.449  34.566  1.00  0.00     0.051 A 
HETATM   18  N2  UNK     1      16.495   0.661  34.335  1.00  0.00    -0.264 NA
HETATM   19  C15 UNK     1      15.958   0.056  35.418  1.00  0.00     0.117 A 
HETATM   20  C16 UNK     1      16.440   0.205  36.708  1.00  0.00     0.019 A 
HETATM   21  C14 UNK     1      17.545   1.028  36.899  1.00  0.00     0.003 A 
HETATM   22  C13 UNK     1      18.125   1.667  35.810  1.00  0.00     0.029 A 
ENDBRANCH  16  17
ENDBRANCH  14  16
ENDBRANCH   5  12
BRANCH   7  23
HETATM   23  O2  UNK     1      16.873  10.602  33.662  1.00  0.00    -0.353 OA
HETATM   24  C17 UNK     1      16.895  11.952  34.122  1.00  0.00     0.210 C 
ENDBRANCH   7  23
TORSDOF 4
ENDMDL
MODEL 7
REMARK VINA RESULT:      -8.2      2.587      4.031
REMARK  4 active torsions:
REMARK  status: ('A' for Active; 'I' for Inactive)
REMARK    1  A    between atoms: C5_11  and  O2_2 
REMARK       I    between atoms: C7_13  and  N1_5 
REMARK    2  A    between atoms: C8_14  and  N1_5 
REMARK    3  A    between atoms: C3_9  and  C7_13 
REMARK    4  A    between atoms: C12_18  and  C8_14 
ROOT
HETATM    1  O1  UNK     1      18.229   1.772  32.206  1.00  0.00    -0.271 OA
HETATM    2  O4  UNK     1      18.200   3.475  30.683  1.00  0.00    -0.259 OA
HETATM    3  C1  UNK     1      18.326   2.286  34.580  1.00  0.00     0.002 A 
HETATM    4  C2  UNK     1      18.271   1.353  33.549  1.00  0.00     0.123 A 
HETATM    5  C3  UNK     1      18.298   4.094  32.968  1.00  0.00     0.108 A 
HETATM    6  C4  UNK     1      18.339   3.701  34.247  1.00  0.00     0.037 A 
HETATM    7  C5  UNK     1      18.257  -0.018  33.801  1.00  0.00     0.102 A 
HETATM    8  C6  UNK     1      18.367   1.830  35.900  1.00  0.00     0.014 A 
HETATM    9  C9  UNK     1      18.238   3.120  31.856  1.00  0.00     0.304 A 
HETATM   10  C10 UNK     1      18.298  -0.464  35.119  1.00  0.00     0.040 A 
HETATM   11  C11 UNK     1      18.353   0.458  36.168  1.00  0.00     0.004 A 
ENDROOT
BRANCH   5  12
HETATM   12  C7  UNK     1      18.315   5.543  32.735  1.00  0.00     0.258 C 
HETATM   13  O3  UNK     1      19.179   6.255  33.243  1.00  0.00    -0.267 OA
HETATM   14  N1  UNK     1      17.285   5.968  31.915  1.00  0.00    -0.351 N 
HETATM   15  H5  UNK     1      16.608   5.301  31.556  1.00  0.00     0.163 HD
BRANCH  14  16
HETATM   16  C8  UNK     1      17.092   7.351  31.543  1.00  0.00     0.182 C 
BRANCH  16  17
HETATM   17  C12 UNK     1      16.275   8.097  32.558  1.00  0.00     0.051 A 
HETATM   18  N2  UNK     1      16.725   9.320  32.904  1.00  0.00    -0.264 NA
HETATM   19  C15 UNK     1      15.985   9.987  33.818  1.00  0.00     0.117 A 
HETATM   20  C16 UNK     1      14.828   9.488  34.393  1.00  0.00     0.019 A 
HETATM   21  C14 UNK     1      14.402   8.222  34.006  1.00  0.00     0.003 A 
HETATM   22  C13 UNK     1      15.136   7.505  33.068  1.00  0.00     0.029 A 
ENDBRANCH  16  17
ENDBRANCH  14  16
ENDBRANCH   5  12
BRANCH   7  23
HETATM   23  O2  UNK     1      18.203  -0.919  32.784  1.00  0.00    -0.353 OA
HETATM   24  C17 UNK     1      19.404  -1.626  32.475  1.00  0.00     0.210 C 
ENDBRANCH   7  23
TORSDOF 4
ENDMDL
MODEL 8
REMARK VINA RESULT:      -8.2     22.390     24.785
REMARK  4 active torsions:
REMARK  status: ('A' for Active; 'I' for Inactive)
REMARK    1  A    between atoms: C5_11  and  O2_2 
REMARK       I    between atoms: C7_13  and  N1_5 
REMARK    2  A    between atoms: C8_14  and  N1_5 
REMARK    3  A    between atoms: C3_9  and  C7_13 
REMARK    4  A    between atoms: C12_18  and  C8_14 
ROOT
HETATM    1  O1  UNK     1      16.946   8.825   9.975  1.00  0.00    -0.271 OA
HETATM    2  O4  UNK     1      16.214   6.835  10.828  1.00  0.00    -0.259 OA
HETATM    3  C1  UNK     1      15.503  10.097   8.489  1.00  0.00     0.002 A 
HETATM    4  C2  UNK     1      16.708   9.955   9.170  1.00  0.00     0.123 A 
HETATM    5  C3  UNK     1      14.724   7.987   9.390  1.00  0.00     0.108 A 
HETATM    6  C4  UNK     1      14.493   9.059   8.622  1.00  0.00     0.037 A 
HETATM    7  C5  UNK     1      17.717  10.913   9.083  1.00  0.00     0.102 A 
HETATM    8  C6  UNK     1      15.304  11.233   7.701  1.00  0.00     0.014 A 
HETATM    9  C9  UNK     1      15.998   7.816  10.123  1.00  0.00     0.304 A 
HETATM   10  C10 UNK     1      17.510  12.042   8.295  1.00  0.00     0.040 A 
HETATM   11  C11 UNK     1      16.307  12.202   7.604  1.00  0.00     0.004 A 
ENDROOT
BRANCH   5  12
HETATM   12  C7  UNK     1      13.644   6.996   9.461  1.00  0.00     0.258 C 
HETATM   13  O3  UNK     1      12.883   6.960  10.426  1.00  0.00    -0.267 OA
HETATM   14  N1  UNK     1      13.608   6.160   8.359  1.00  0.00    -0.351 N 
HETATM   15  H5  UNK     1      14.295   6.261   7.618  1.00  0.00     0.163 HD
BRANCH  14  16
HETATM   16  C8  UNK     1      12.635   5.102   8.204  1.00  0.00     0.182 C 
BRANCH  16  17
HETATM   17  C12 UNK     1      11.369   5.593   7.563  1.00  0.00     0.051 A 
HETATM   18  N2  UNK     1      10.249   5.501   8.307  1.00  0.00    -0.264 NA
HETATM   19  C15 UNK     1       9.113   5.945   7.724  1.00  0.00     0.117 A 
HETATM   20  C16 UNK     1       9.051   6.471   6.445  1.00  0.00     0.019 A 
HETATM   21  C14 UNK     1      10.233   6.547   5.714  1.00  0.00     0.003 A 
HETATM   22  C13 UNK     1      11.422   6.101   6.279  1.00  0.00     0.029 A 
ENDBRANCH  16  17
ENDBRANCH  14  16
ENDBRANCH   5  12
BRANCH   7  23
HETATM   23  O2  UNK     1      18.890  10.761   9.754  1.00  0.00    -0.353 OA
HETATM   24  C17 UNK     1      19.756  11.894   9.815  1.00  0.00     0.210 C 
ENDBRANCH   7  23
TORSDOF 4
ENDMDL
MODEL 9
REMARK VINA RESULT:      -8.1     15.891     17.943
REMARK  4 active torsions:
REMARK  status: ('A' for Active; 'I' for Inactive)
REMARK    1  A    between atoms: C5_11  and  O2_2 
REMARK       I    between atoms: C7_13  and  N1_5 
REMARK    2  A    between atoms: C8_14  and  N1_5 
REMARK    3  A    between atoms: C3_9  and  C7_13 
REMARK    4  A    between atoms: C12_18  and  C8_14 
ROOT
HETATM    1  O1  UNK     1      18.769  -4.301  12.658  1.00  0.00    -0.271 OA
HETATM    2  O4  UNK     1      17.521  -4.724  14.525  1.00  0.00    -0.259 OA
HETATM    3  C1  UNK     1      20.005  -2.215  12.488  1.00  0.00     0.002 A 
HETATM    4  C2  UNK     1      19.627  -3.440  11.948  1.00  0.00     0.123 A 
HETATM    5  C3  UNK     1      18.682  -2.659  14.468  1.00  0.00     0.108 A 
HETATM    6  C4  UNK     1      19.497  -1.836  13.797  1.00  0.00     0.037 A 
HETATM    7  C5  UNK     1      20.078  -3.861  10.698  1.00  0.00     0.102 A 
HETATM    8  C6  UNK     1      20.858  -1.389  11.753  1.00  0.00     0.014 A 
HETATM    9  C9  UNK     1      18.268  -3.967  13.914  1.00  0.00     0.304 A 
HETATM   10  C10 UNK     1      20.928  -3.032   9.972  1.00  0.00     0.040 A 
HETATM   11  C11 UNK     1      21.318  -1.798  10.497  1.00  0.00     0.004 A 
ENDROOT
BRANCH   5  12
HETATM   12  C7  UNK     1      18.223  -2.189  15.781  1.00  0.00     0.258 C 
HETATM   13  O3  UNK     1      17.112  -2.496  16.209  1.00  0.00    -0.267 OA
HETATM   14  N1  UNK     1      19.158  -1.400  16.426  1.00  0.00    -0.351 N 
HETATM   15  H5  UNK     1      20.046  -1.189  15.979  1.00  0.00     0.163 HD
BRANCH  14  16
HETATM   16  C8  UNK     1      18.934  -0.818  17.730  1.00  0.00     0.182 C 
BRANCH  16  17
HETATM   17  C12 UNK     1      19.080   0.676  17.712  1.00  0.00     0.051 A 
HETATM   18  N2  UNK     1      19.267   1.242  16.503  1.00  0.00    -0.264 NA
HETATM   19  C15 UNK     1      19.397   2.588  16.493  1.00  0.00     0.117 A 
HETATM   20  C16 UNK     1      19.349   3.381  17.627  1.00  0.00     0.019 A 
HETATM   21  C14 UNK     1      19.154   2.752  18.853  1.00  0.00     0.003 A 
HETATM   22  C13 UNK     1      19.016   1.370  18.905  1.00  0.00     0.029 A 
ENDBRANCH  16  17
ENDBRANCH  14  16
ENDBRANCH   5  12
BRANCH   7  23
HETATM   23  O2  UNK     1      19.701  -5.062  10.183  1.00  0.00    -0.353 OA
HETATM   24  C17 UNK     1      18.668  -5.053   9.198  1.00  0.00     0.210 C 
ENDBRANCH   7  23
TORSDOF 4
ENDMDL
MODEL 10
REMARK VINA RESULT:      -8.1      6.327     10.172
REMARK  4 active torsions:
REMARK  status: ('A' for Active; 'I' for Inactive)
REMARK    1  A    between atoms: C5_11  and  O2_2 
REMARK       I    between atoms: C7_13  and  N1_5 
REMARK    2  A    between atoms: C8_14  and  N1_5 
REMARK    3  A    between atoms: C3_9  and  C7_13 
REMARK    4  A    between atoms: C12_18  and  C8_14 
ROOT
HETATM    1  O1  UNK     1      20.616  -8.246  35.329  1.00  0.00    -0.271 OA
HETATM    2  O4  UNK     1      20.645  -6.242  34.231  1.00  0.00    -0.259 OA
HETATM    3  C1  UNK     1      19.497  -8.420  37.479  1.00  0.00     0.002 A 
HETATM    4  C2  UNK     1      20.222  -9.005  36.447  1.00  0.00     0.123 A 
HETATM    5  C3  UNK     1      19.527  -6.293  36.320  1.00  0.00     0.108 A 
HETATM    6  C4  UNK     1      19.151  -7.011  37.386  1.00  0.00     0.037 A 
HETATM    7  C5  UNK     1      20.586 -10.351  36.477  1.00  0.00     0.102 A 
HETATM    8  C6  UNK     1      19.125  -9.207  38.572  1.00  0.00     0.014 A 
HETATM    9  C9  UNK     1      20.299  -6.895  35.210  1.00  0.00     0.304 A 
HETATM   10  C10 UNK     1      20.211 -11.128  37.569  1.00  0.00     0.040 A 
HETATM   11  C11 UNK     1      19.482 -10.558  38.616  1.00  0.00     0.004 A 
ENDROOT
BRANCH   5  12
HETATM   12  C7  UNK     1      19.131  -4.880  36.317  1.00  0.00     0.258 C 
HETATM   13  O3  UNK     1      18.023  -4.534  36.724  1.00  0.00    -0.267 OA
HETATM   14  N1  UNK     1      20.117  -4.046  35.821  1.00  0.00    -0.351 N 
HETATM   15  H5  UNK     1      20.997  -4.433  35.493  1.00  0.00     0.163 HD
BRANCH  14  16
HETATM   16  C8  UNK     1      19.958  -2.613  35.716  1.00  0.00     0.182 C 
BRANCH  16  17
HETATM   17  C12 UNK     1      19.896  -2.157  34.287  1.00  0.00     0.051 A 
HETATM   18  N2  UNK     1      20.868  -2.616  33.473  1.00  0.00    -0.264 NA
HETATM   19  C15 UNK     1      20.807  -2.202  32.187  1.00  0.00     0.117 A 
HETATM   20  C16 UNK     1      19.827  -1.360  31.688  1.00  0.00     0.019 A 
HETATM   21  C14 UNK     1      18.845  -0.912  32.566  1.00  0.00     0.003 A 
HETATM   22  C13 UNK     1      18.873  -1.315  33.896  1.00  0.00     0.029 A 
ENDBRANCH  16  17
ENDBRANCH  14  16
ENDBRANCH   5  12
BRANCH   7  23
HETATM   23  O2  UNK     1      21.295 -10.910  35.461  1.00  0.00    -0.353 OA
HETATM   24  C17 UNK     1      22.671 -11.199  35.708  1.00  0.00     0.210 C 
ENDBRANCH   7  23
TORSDOF 4
ENDMDL
