MODEL 1
REMARK VINA RESULT:     -11.6      0.000      0.000
REMARK  3 active torsions:
REMARK  status: ('A' for Active; 'I' for Inactive)
REMARK       I    between atoms: C10_16  and  N1_4 
REMARK    1  A    between atoms: C7_13  and  N1_4 
REMARK    2  A    between atoms: C10_16  and  C2_8 
REMARK    3  A    between atoms: C18_24  and  C8_14 
ROOT
HETATM    1  N2  UNK     1      18.706   0.130  33.104  1.00  0.00    -0.246 NA
HETATM    2  C1  UNK     1      18.948  -0.883  35.277  1.00  0.00     0.009 A 
HETATM    3  C2  UNK     1      19.682  -1.916  34.694  1.00  0.00     0.047 A 
HETATM    4  C3  UNK     1      18.469   0.138  34.429  1.00  0.00     0.069 A 
HETATM    5  C5  UNK     1      18.682  -0.843  36.656  1.00  0.00     0.021 A 
HETATM    6  C6  UNK     1      19.931  -1.937  33.337  1.00  0.00     0.052 A 
HETATM    7  C8  UNK     1      19.424  -0.895  32.588  1.00  0.00     0.087 A 
HETATM    8  C9  UNK     1      17.946   0.205  37.201  1.00  0.00    -0.061 A 
HETATM    9  C12 UNK     1      17.736   1.173  35.001  1.00  0.00     0.033 A 
HETATM   10  C16 UNK     1      17.471   1.214  36.372  1.00  0.00     0.009 A 
HETATM   11  C19 UNK     1      17.666   0.244  38.665  1.00  0.00     0.048 C 
ENDROOT
BRANCH   3  12
HETATM   12  C10 UNK     1      20.228  -3.033  35.485  1.00  0.00     0.257 C 
HETATM   13  O2  UNK     1      21.144  -2.853  36.285  1.00  0.00    -0.267 OA
HETATM   14  N1  UNK     1      19.598  -4.277  35.278  1.00  0.00    -0.323 N 
HETATM   15  H5  UNK     1      18.846  -4.294  34.591  1.00  0.00     0.169 HD
BRANCH  14  16
HETATM   16  C7  UNK     1      19.863  -5.497  35.899  1.00  0.00     0.037 A 
HETATM   17  C13 UNK     1      20.404  -6.550  35.168  1.00  0.00     0.067 A 
HETATM   18  C11 UNK     1      20.661  -7.763  35.809  1.00  0.00     0.092 A 
HETATM   19  O1  UNK     1      21.209  -8.791  35.017  1.00  0.00    -0.275 OA
HETATM   20  C4  UNK     1      20.397  -7.961  37.166  1.00  0.00     0.004 A 
HETATM   21  C22 UNK     1      21.506 -10.037  35.549  1.00  0.00     0.288 A 
HETATM   22  C20 UNK     1      21.220 -10.230  36.980  1.00  0.00     0.090 A 
HETATM   23  O3  UNK     1      21.982 -10.939  34.868  1.00  0.00    -0.260 OA
HETATM   24  C14 UNK     1      20.700  -9.270  37.758  1.00  0.00    -0.043 A 
HETATM   25  C21 UNK     1      20.426  -9.514  39.214  1.00  0.00     0.049 C 
HETATM   26  C15 UNK     1      19.852  -6.888  37.884  1.00  0.00     0.017 A 
HETATM   27  C17 UNK     1      19.587  -5.666  37.255  1.00  0.00     0.030 A 
ENDBRANCH  14  16
ENDBRANCH   3  12
BRANCH   7  28
HETATM   28  C18 UNK     1      19.634  -0.831  31.162  1.00  0.00     0.085 A 
HETATM   29  C23 UNK     1      20.126  -1.923  30.464  1.00  0.00     0.034 A 
HETATM   30  C24 UNK     1      20.303  -1.792  29.091  1.00  0.00     0.004 A 
HETATM   31  C26 UNK     1      19.987  -0.590  28.467  1.00  0.00     0.019 A 
HETATM   32  C25 UNK     1      19.502   0.442  29.253  1.00  0.00     0.117 A 
HETATM   33  N3  UNK     1      19.315   0.352  30.590  1.00  0.00    -0.259 NA
ENDBRANCH   7  28
TORSDOF 3
ENDMDL
MODEL 2
REMARK VINA RESULT:     -11.0      1.700      1.962
REMARK  3 active torsions:
REMARK  status: ('A' for Active; 'I' for Inactive)
REMARK       I    between atoms: C10_16  and  N1_4 
REMARK    1  A    between atoms: C7_13  and  N1_4 
REMARK    2  A    between atoms: C10_16  and  C2_8 
REMARK    3  A    between atoms: C18_24  and  C8_14 
ROOT
HETATM    1  N2  UNK     1      18.672   0.322  33.125  1.00  0.00    -0.246 NA
HETATM    2  C1  UNK     1      18.912  -0.668  35.309  1.00  0.00     0.009 A 
HETATM    3  C2  UNK     1      19.630  -1.716  34.735  1.00  0.00     0.047 A 
HETATM    4  C3  UNK     1      18.441   0.349  34.451  1.00  0.00     0.069 A 
HETATM    5  C5  UNK     1      18.653  -0.609  36.689  1.00  0.00     0.021 A 
HETATM    6  C6  UNK     1      19.873  -1.757  33.377  1.00  0.00     0.052 A 
HETATM    7  C8  UNK     1      19.375  -0.717  32.619  1.00  0.00     0.087 A 
HETATM    8  C9  UNK     1      17.931   0.455  37.225  1.00  0.00    -0.061 A 
HETATM    9  C12 UNK     1      17.723   1.399  35.014  1.00  0.00     0.033 A 
HETATM   10  C16 UNK     1      17.465   1.459  36.386  1.00  0.00     0.009 A 
HETATM   11  C19 UNK     1      17.658   0.514  38.690  1.00  0.00     0.048 C 
ENDROOT
BRANCH   3  12
HETATM   12  C10 UNK     1      20.166  -2.831  35.537  1.00  0.00     0.257 C 
HETATM   13  O2  UNK     1      21.297  -2.778  36.017  1.00  0.00    -0.267 OA
HETATM   14  N1  UNK     1      19.280  -3.909  35.730  1.00  0.00    -0.323 N 
HETATM   15  H5  UNK     1      18.368  -3.830  35.284  1.00  0.00     0.169 HD
BRANCH  14  16
HETATM   16  C7  UNK     1      19.483  -5.078  36.463  1.00  0.00     0.037 A 
HETATM   17  C13 UNK     1      20.700  -5.304  37.096  1.00  0.00     0.067 A 
HETATM   18  C11 UNK     1      20.882  -6.480  37.825  1.00  0.00     0.092 A 
HETATM   19  O1  UNK     1      22.136  -6.652  38.444  1.00  0.00    -0.275 OA
HETATM   20  C4  UNK     1      19.881  -7.445  37.945  1.00  0.00     0.004 A 
HETATM   21  C22 UNK     1      22.427  -7.781  39.194  1.00  0.00     0.288 A 
HETATM   22  C20 UNK     1      21.361  -8.790  39.310  1.00  0.00     0.090 A 
HETATM   23  O3  UNK     1      23.515  -7.941  39.736  1.00  0.00    -0.260 OA
HETATM   24  C14 UNK     1      20.159  -8.653  38.733  1.00  0.00    -0.043 A 
HETATM   25  C21 UNK     1      19.102  -9.710  38.880  1.00  0.00     0.049 C 
HETATM   26  C15 UNK     1      18.662  -7.200  37.300  1.00  0.00     0.017 A 
HETATM   27  C17 UNK     1      18.465  -6.025  36.565  1.00  0.00     0.030 A 
ENDBRANCH  14  16
ENDBRANCH   3  12
BRANCH   7  28
HETATM   28  C18 UNK     1      19.579  -0.672  31.190  1.00  0.00     0.085 A 
HETATM   29  C23 UNK     1      19.346   0.490  30.472  1.00  0.00     0.034 A 
HETATM   30  C24 UNK     1      19.564   0.462  29.100  1.00  0.00     0.004 A 
HETATM   31  C26 UNK     1      20.000  -0.712  28.495  1.00  0.00     0.019 A 
HETATM   32  C25 UNK     1      20.203  -1.820  29.300  1.00  0.00     0.117 A 
HETATM   33  N3  UNK     1      20.004  -1.831  30.638  1.00  0.00    -0.259 NA
ENDBRANCH   7  28
TORSDOF 3
ENDMDL
MODEL 3
REMARK VINA RESULT:      -9.9      1.451      4.598
REMARK  3 active torsions:
REMARK  status: ('A' for Active; 'I' for Inactive)
REMARK       I    between atoms: C10_16  and  N1_4 
REMARK    1  A    between atoms: C7_13  and  N1_4 
REMARK    2  A    between atoms: C10_16  and  C2_8 
REMARK    3  A    between atoms: C18_24  and  C8_14 
ROOT
HETATM    1  N2  UNK     1      18.562  -0.343  34.182  1.00  0.00    -0.246 NA
HETATM    2  C1  UNK     1      19.831  -2.369  33.878  1.00  0.00     0.009 A 
HETATM    3  C2  UNK     1      19.609  -2.688  35.217  1.00  0.00     0.047 A 
HETATM    4  C3  UNK     1      19.280  -1.164  33.393  1.00  0.00     0.069 A 
HETATM    5  C5  UNK     1      20.575  -3.203  33.026  1.00  0.00     0.021 A 
HETATM    6  C6  UNK     1      18.875  -1.855  36.038  1.00  0.00     0.052 A 
HETATM    7  C8  UNK     1      18.375  -0.699  35.474  1.00  0.00     0.087 A 
HETATM    8  C9  UNK     1      20.775  -2.850  31.694  1.00  0.00    -0.061 A 
HETATM    9  C12 UNK     1      19.496  -0.837  32.058  1.00  0.00     0.033 A 
HETATM   10  C16 UNK     1      20.235  -1.665  31.210  1.00  0.00     0.009 A 
HETATM   11  C19 UNK     1      21.565  -3.737  30.793  1.00  0.00     0.048 C 
ENDROOT
BRANCH   3  12
HETATM   12  C10 UNK     1      20.138  -3.921  35.827  1.00  0.00     0.257 C 
HETATM   13  O2  UNK     1      21.155  -3.897  36.518  1.00  0.00    -0.267 OA
HETATM   14  N1  UNK     1      19.376  -5.082  35.590  1.00  0.00    -0.323 N 
HETATM   15  H5  UNK     1      18.550  -4.968  35.005  1.00  0.00     0.169 HD
BRANCH  14  16
HETATM   16  C7  UNK     1      19.598  -6.377  36.058  1.00  0.00     0.037 A 
HETATM   17  C13 UNK     1      20.554  -7.185  35.452  1.00  0.00     0.067 A 
HETATM   18  C11 UNK     1      20.760  -8.478  35.938  1.00  0.00     0.092 A 
HETATM   19  O1  UNK     1      21.741  -9.248  35.283  1.00  0.00    -0.275 OA
HETATM   20  C4  UNK     1      20.040  -8.993  37.017  1.00  0.00     0.004 A 
HETATM   21  C22 UNK     1      22.030 -10.544  35.680  1.00  0.00     0.288 A 
HETATM   22  C20 UNK     1      21.262 -11.074  36.820  1.00  0.00     0.090 A 
HETATM   23  O3  UNK     1      22.881 -11.225  35.117  1.00  0.00    -0.260 OA
HETATM   24  C14 UNK     1      20.323 -10.363  37.462  1.00  0.00    -0.043 A 
HETATM   25  C21 UNK     1      19.565 -10.946  38.619  1.00  0.00     0.049 C 
HETATM   26  C15 UNK     1      19.082  -8.163  37.614  1.00  0.00     0.017 A 
HETATM   27  C17 UNK     1      18.863  -6.865  37.138  1.00  0.00     0.030 A 
ENDBRANCH  14  16
ENDBRANCH   3  12
BRANCH   7  28
HETATM   28  C18 UNK     1      17.597   0.233  36.253  1.00  0.00     0.085 A 
HETATM   29  C23 UNK     1      16.255   0.448  35.978  1.00  0.00     0.034 A 
HETATM   30  C24 UNK     1      15.566   1.360  36.769  1.00  0.00     0.004 A 
HETATM   31  C26 UNK     1      16.230   2.020  37.798  1.00  0.00     0.019 A 
HETATM   32  C25 UNK     1      17.571   1.736  37.992  1.00  0.00     0.117 A 
HETATM   33  N3  UNK     1      18.275   0.855  37.244  1.00  0.00    -0.259 NA
ENDBRANCH   7  28
TORSDOF 3
ENDMDL
MODEL 4
REMARK VINA RESULT:      -9.8      6.196     11.720
REMARK  3 active torsions:
REMARK  status: ('A' for Active; 'I' for Inactive)
REMARK       I    between atoms: C10_16  and  N1_4 
REMARK    1  A    between atoms: C7_13  and  N1_4 
REMARK    2  A    between atoms: C10_16  and  C2_8 
REMARK    3  A    between atoms: C18_24  and  C8_14 
ROOT
HETATM    1  N2  UNK     1      18.445   0.077  33.016  1.00  0.00    -0.246 NA
HETATM    2  C1  UNK     1      18.307   1.730  34.764  1.00  0.00     0.009 A 
HETATM    3  C2  UNK     1      18.629   2.716  33.833  1.00  0.00     0.047 A 
HETATM    4  C3  UNK     1      18.225   0.398  34.305  1.00  0.00     0.069 A 
HETATM    5  C5  UNK     1      18.071   2.030  36.117  1.00  0.00     0.021 A 
HETATM    6  C6  UNK     1      18.858   2.401  32.509  1.00  0.00     0.052 A 
HETATM    7  C8  UNK     1      18.754   1.071  32.153  1.00  0.00     0.087 A 
HETATM    8  C9  UNK     1      17.751   1.017  37.017  1.00  0.00    -0.061 A 
HETATM    9  C12 UNK     1      17.904  -0.593  35.227  1.00  0.00     0.033 A 
HETATM   10  C16 UNK     1      17.669  -0.296  36.571  1.00  0.00     0.009 A 
HETATM   11  C19 UNK     1      17.502   1.339  38.452  1.00  0.00     0.048 C 
ENDROOT
BRANCH   3  12
HETATM   12  C10 UNK     1      18.743   4.138  34.204  1.00  0.00     0.257 C 
HETATM   13  O2  UNK     1      19.631   4.525  34.960  1.00  0.00    -0.267 OA
HETATM   14  N1  UNK     1      17.797   4.991  33.601  1.00  0.00    -0.323 N 
HETATM   15  H5  UNK     1      17.115   4.548  32.988  1.00  0.00     0.169 HD
BRANCH  14  16
HETATM   16  C7  UNK     1      17.674   6.375  33.725  1.00  0.00     0.037 A 
HETATM   17  C13 UNK     1      16.436   6.944  34.003  1.00  0.00     0.067 A 
HETATM   18  C11 UNK     1      16.335   8.331  34.123  1.00  0.00     0.092 A 
HETATM   19  O1  UNK     1      15.055   8.848  34.406  1.00  0.00    -0.275 OA
HETATM   20  C4  UNK     1      17.437   9.175  33.975  1.00  0.00     0.004 A 
HETATM   21  C22 UNK     1      14.838  10.210  34.547  1.00  0.00     0.288 A 
HETATM   22  C20 UNK     1      16.010  11.087  34.388  1.00  0.00     0.090 A 
HETATM   23  O3  UNK     1      13.728  10.671  34.793  1.00  0.00    -0.260 OA
HETATM   24  C14 UNK     1      17.239  10.623  34.119  1.00  0.00    -0.043 A 
HETATM   25  C21 UNK     1      18.405  11.556  33.964  1.00  0.00     0.049 C 
HETATM   26  C15 UNK     1      18.675   8.582  33.694  1.00  0.00     0.017 A 
HETATM   27  C17 UNK     1      18.792   7.193  33.570  1.00  0.00     0.030 A 
ENDBRANCH  14  16
ENDBRANCH   3  12
BRANCH   7  28
HETATM   28  C18 UNK     1      18.975   0.645  30.792  1.00  0.00     0.085 A 
HETATM   29  C23 UNK     1      19.912  -0.331  30.493  1.00  0.00     0.034 A 
HETATM   30  C24 UNK     1      20.074  -0.694  29.161  1.00  0.00     0.004 A 
HETATM   31  C26 UNK     1      19.304  -0.076  28.181  1.00  0.00     0.019 A 
HETATM   32  C25 UNK     1      18.395   0.889  28.581  1.00  0.00     0.117 A 
HETATM   33  N3  UNK     1      18.209   1.267  29.867  1.00  0.00    -0.259 NA
ENDBRANCH   7  28
TORSDOF 3
ENDMDL
MODEL 5
REMARK VINA RESULT:      -9.4      1.385      4.645
REMARK  3 active torsions:
REMARK  status: ('A' for Active; 'I' for Inactive)
REMARK       I    between atoms: C10_16  and  N1_4 
REMARK    1  A    between atoms: C7_13  and  N1_4 
REMARK    2  A    between atoms: C10_16  and  C2_8 
REMARK    3  A    between atoms: C18_24  and  C8_14 
ROOT
HETATM    1  N2  UNK     1      18.078   0.670  33.433  1.00  0.00    -0.246 NA
HETATM    2  C1  UNK     1      19.547  -1.051  32.605  1.00  0.00     0.009 A 
HETATM    3  C2  UNK     1      19.472  -1.686  33.843  1.00  0.00     0.047 A 
HETATM    4  C3  UNK     1      18.822   0.148  32.439  1.00  0.00     0.069 A 
HETATM    5  C5  UNK     1      20.313  -1.568  31.546  1.00  0.00     0.021 A 
HETATM    6  C6  UNK     1      18.714  -1.161  34.871  1.00  0.00     0.052 A 
HETATM    7  C8  UNK     1      18.038   0.015  34.615  1.00  0.00     0.087 A 
HETATM    8  C9  UNK     1      20.362  -0.905  30.323  1.00  0.00    -0.061 A 
HETATM    9  C12 UNK     1      18.889   0.789  31.207  1.00  0.00     0.033 A 
HETATM   10  C16 UNK     1      19.651   0.276  30.154  1.00  0.00     0.009 A 
HETATM   11  C19 UNK     1      21.177  -1.457  29.202  1.00  0.00     0.048 C 
ENDROOT
BRANCH   3  12
HETATM   12  C10 UNK     1      20.190  -2.942  34.125  1.00  0.00     0.257 C 
HETATM   13  O2  UNK     1      21.180  -3.265  33.472  1.00  0.00    -0.267 OA
HETATM   14  N1  UNK     1      19.679  -3.694  35.202  1.00  0.00    -0.323 N 
HETATM   15  H5  UNK     1      18.856  -3.316  35.667  1.00  0.00     0.169 HD
BRANCH  14  16
HETATM   16  C7  UNK     1      20.159  -4.894  35.727  1.00  0.00     0.037 A 
HETATM   17  C13 UNK     1      20.362  -5.989  34.894  1.00  0.00     0.067 A 
HETATM   18  C11 UNK     1      20.843  -7.181  35.440  1.00  0.00     0.092 A 
HETATM   19  O1  UNK     1      21.029  -8.254  34.547  1.00  0.00    -0.275 OA
HETATM   20  C4  UNK     1      21.131  -7.315  36.800  1.00  0.00     0.004 A 
HETATM   21  C22 UNK     1      21.503  -9.483  34.979  1.00  0.00     0.288 A 
HETATM   22  C20 UNK     1      21.801  -9.610  36.415  1.00  0.00     0.090 A 
HETATM   23  O3  UNK     1      21.667 -10.425  34.210  1.00  0.00    -0.260 OA
HETATM   24  C14 UNK     1      21.634  -8.606  37.287  1.00  0.00    -0.043 A 
HETATM   25  C21 UNK     1      21.952  -8.782  38.744  1.00  0.00     0.049 C 
HETATM   26  C15 UNK     1      20.919  -6.201  37.622  1.00  0.00     0.017 A 
HETATM   27  C17 UNK     1      20.436  -5.000  37.089  1.00  0.00     0.030 A 
ENDBRANCH  14  16
ENDBRANCH   3  12
BRANCH   7  28
HETATM   28  C18 UNK     1      17.221   0.639  35.628  1.00  0.00     0.085 A 
HETATM   29  C23 UNK     1      17.787   1.435  36.611  1.00  0.00     0.034 A 
HETATM   30  C24 UNK     1      16.941   2.006  37.554  1.00  0.00     0.004 A 
HETATM   31  C26 UNK     1      15.572   1.765  37.488  1.00  0.00     0.019 A 
HETATM   32  C25 UNK     1      15.105   0.954  36.467  1.00  0.00     0.117 A 
HETATM   33  N3  UNK     1      15.897   0.383  35.531  1.00  0.00    -0.259 NA
ENDBRANCH   7  28
TORSDOF 3
ENDMDL
MODEL 6
REMARK VINA RESULT:      -9.3     26.715     29.444
REMARK  3 active torsions:
REMARK  status: ('A' for Active; 'I' for Inactive)
REMARK       I    between atoms: C10_16  and  N1_4 
REMARK    1  A    between atoms: C7_13  and  N1_4 
REMARK    2  A    between atoms: C10_16  and  C2_8 
REMARK    3  A    between atoms: C18_24  and  C8_14 
ROOT
HETATM    1  N2  UNK     1      22.464  13.298   9.713  1.00  0.00    -0.246 NA
HETATM    2  C1  UNK     1      20.326  12.694   8.780  1.00  0.00     0.009 A 
HETATM    3  C2  UNK     1      19.950  12.181  10.021  1.00  0.00     0.047 A 
HETATM    4  C3  UNK     1      21.617  13.253   8.668  1.00  0.00     0.069 A 
HETATM    5  C5  UNK     1      19.467  12.663   7.669  1.00  0.00     0.021 A 
HETATM    6  C6  UNK     1      20.809  12.220  11.101  1.00  0.00     0.052 A 
HETATM    7  C8  UNK     1      22.050  12.788  10.895  1.00  0.00     0.087 A 
HETATM    8  C9  UNK     1      19.879  13.186   6.446  1.00  0.00    -0.061 A 
HETATM    9  C12 UNK     1      22.002  13.768   7.434  1.00  0.00     0.033 A 
HETATM   10  C16 UNK     1      21.148  13.738   6.329  1.00  0.00     0.009 A 
HETATM   11  C19 UNK     1      18.964  13.152   5.268  1.00  0.00     0.048 C 
ENDROOT
BRANCH   3  12
HETATM   12  C10 UNK     1      18.627  11.573  10.250  1.00  0.00     0.257 C 
HETATM   13  O2  UNK     1      17.821  12.086  11.023  1.00  0.00    -0.267 OA
HETATM   14  N1  UNK     1      18.364  10.412   9.496  1.00  0.00    -0.323 N 
HETATM   15  H5  UNK     1      19.113  10.090   8.885  1.00  0.00     0.169 HD
BRANCH  14  16
HETATM   16  C7  UNK     1      17.202   9.641   9.467  1.00  0.00     0.037 A 
HETATM   17  C13 UNK     1      17.251   8.290   9.791  1.00  0.00     0.067 A 
HETATM   18  C11 UNK     1      16.076   7.537   9.756  1.00  0.00     0.092 A 
HETATM   19  O1  UNK     1      16.189   6.174  10.094  1.00  0.00    -0.275 OA
HETATM   20  C4  UNK     1      14.844   8.093   9.407  1.00  0.00     0.004 A 
HETATM   21  C22 UNK     1      15.087   5.333  10.094  1.00  0.00     0.288 A 
HETATM   22  C20 UNK     1      13.795   5.934   9.723  1.00  0.00     0.090 A 
HETATM   23  O3  UNK     1      15.175   4.144  10.386  1.00  0.00    -0.260 OA
HETATM   24  C14 UNK     1      13.658   7.227   9.397  1.00  0.00    -0.043 A 
HETATM   25  C21 UNK     1      12.319   7.796   9.026  1.00  0.00     0.049 C 
HETATM   26  C15 UNK     1      14.815   9.456   9.084  1.00  0.00     0.017 A 
HETATM   27  C17 UNK     1      15.985  10.224   9.114  1.00  0.00     0.030 A 
ENDBRANCH  14  16
ENDBRANCH   3  12
BRANCH   7  28
HETATM   28  C18 UNK     1      23.016  12.873  11.965  1.00  0.00     0.085 A 
HETATM   29  C23 UNK     1      24.297  13.348  11.733  1.00  0.00     0.034 A 
HETATM   30  C24 UNK     1      25.176  13.404  12.808  1.00  0.00     0.004 A 
HETATM   31  C26 UNK     1      24.752  12.988  14.066  1.00  0.00     0.019 A 
HETATM   32  C25 UNK     1      23.452  12.530  14.194  1.00  0.00     0.117 A 
HETATM   33  N3  UNK     1      22.568  12.462  13.173  1.00  0.00    -0.259 NA
ENDBRANCH   7  28
TORSDOF 3
ENDMDL
MODEL 7
REMARK VINA RESULT:      -9.2      7.367     13.532
REMARK  3 active torsions:
REMARK  status: ('A' for Active; 'I' for Inactive)
REMARK       I    between atoms: C10_16  and  N1_4 
REMARK    1  A    between atoms: C7_13  and  N1_4 
REMARK    2  A    between atoms: C10_16  and  C2_8 
REMARK    3  A    between atoms: C18_24  and  C8_14 
ROOT
HETATM    1  N2  UNK     1      18.317   1.770  33.024  1.00  0.00    -0.246 NA
HETATM    2  C1  UNK     1      18.474   4.080  32.357  1.00  0.00     0.009 A 
HETATM    3  C2  UNK     1      18.327   4.457  33.691  1.00  0.00     0.047 A 
HETATM    4  C3  UNK     1      18.463   2.701  32.062  1.00  0.00     0.069 A 
HETATM    5  C5  UNK     1      18.629   5.024  31.327  1.00  0.00     0.021 A 
HETATM    6  C6  UNK     1      18.177   3.514  34.687  1.00  0.00     0.052 A 
HETATM    7  C8  UNK     1      18.179   2.189  34.303  1.00  0.00     0.087 A 
HETATM    8  C9  UNK     1      18.773   4.609  30.006  1.00  0.00    -0.061 A 
HETATM    9  C12 UNK     1      18.609   2.314  30.733  1.00  0.00     0.033 A 
HETATM   10  C16 UNK     1      18.762   3.252  29.709  1.00  0.00     0.009 A 
HETATM   11  C19 UNK     1      18.936   5.614  28.917  1.00  0.00     0.048 C 
ENDROOT
BRANCH   3  12
HETATM   12  C10 UNK     1      18.324   5.870  34.111  1.00  0.00     0.257 C 
HETATM   13  O2  UNK     1      19.318   6.379  34.625  1.00  0.00    -0.267 OA
HETATM   14  N1  UNK     1      17.132   6.571  33.841  1.00  0.00    -0.323 N 
HETATM   15  H5  UNK     1      16.382   6.037  33.406  1.00  0.00     0.169 HD
BRANCH  14  16
HETATM   16  C7  UNK     1      16.841   7.913  34.086  1.00  0.00     0.037 A 
HETATM   17  C13 UNK     1      17.726   8.906  33.680  1.00  0.00     0.067 A 
HETATM   18  C11 UNK     1      17.415  10.243  33.934  1.00  0.00     0.092 A 
HETATM   19  O1  UNK     1      18.351  11.202  33.499  1.00  0.00    -0.275 OA
HETATM   20  C4  UNK     1      16.240  10.624  34.584  1.00  0.00     0.004 A 
HETATM   21  C22 UNK     1      18.145  12.558  33.698  1.00  0.00     0.288 A 
HETATM   22  C20 UNK     1      16.901  12.945  34.386  1.00  0.00     0.090 A 
HETATM   23  O3  UNK     1      18.953  13.402  33.324  1.00  0.00    -0.260 OA
HETATM   24  C14 UNK     1      15.994  12.055  34.810  1.00  0.00    -0.043 A 
HETATM   25  C21 UNK     1      14.739  12.496  35.507  1.00  0.00     0.049 C 
HETATM   26  C15 UNK     1      15.361   9.610  34.986  1.00  0.00     0.017 A 
HETATM   27  C17 UNK     1      15.660   8.265  34.738  1.00  0.00     0.030 A 
ENDBRANCH  14  16
ENDBRANCH   3  12
BRANCH   7  28
HETATM   28  C18 UNK     1      18.027   1.132  35.274  1.00  0.00     0.085 A 
HETATM   29  C23 UNK     1      17.261   1.315  36.414  1.00  0.00     0.034 A 
HETATM   30  C24 UNK     1      17.158   0.254  37.307  1.00  0.00     0.004 A 
HETATM   31  C26 UNK     1      17.816  -0.941  37.036  1.00  0.00     0.019 A 
HETATM   32  C25 UNK     1      18.557  -1.024  35.870  1.00  0.00     0.117 A 
HETATM   33  N3  UNK     1      18.680  -0.015  34.977  1.00  0.00    -0.259 NA
ENDBRANCH   7  28
TORSDOF 3
ENDMDL
MODEL 8
REMARK VINA RESULT:      -9.1      9.272     12.260
REMARK  3 active torsions:
REMARK  status: ('A' for Active; 'I' for Inactive)
REMARK       I    between atoms: C10_16  and  N1_4 
REMARK    1  A    between atoms: C7_13  and  N1_4 
REMARK    2  A    between atoms: C10_16  and  C2_8 
REMARK    3  A    between atoms: C18_24  and  C8_14 
ROOT
HETATM    1  N2  UNK     1      27.901  -5.824  38.552  1.00  0.00    -0.246 NA
HETATM    2  C1  UNK     1      29.652  -6.323  36.974  1.00  0.00     0.009 A 
HETATM    3  C2  UNK     1      28.790  -7.202  36.321  1.00  0.00     0.047 A 
HETATM    4  C3  UNK     1      29.159  -5.642  38.107  1.00  0.00     0.069 A 
HETATM    5  C5  UNK     1      30.971  -6.108  36.537  1.00  0.00     0.021 A 
HETATM    6  C6  UNK     1      27.498  -7.400  36.767  1.00  0.00     0.052 A 
HETATM    7  C8  UNK     1      27.104  -6.688  37.883  1.00  0.00     0.087 A 
HETATM    8  C9  UNK     1      31.802  -5.221  37.215  1.00  0.00    -0.061 A 
HETATM    9  C12 UNK     1      30.011  -4.762  38.765  1.00  0.00     0.033 A 
HETATM   10  C16 UNK     1      31.322  -4.548  38.331  1.00  0.00     0.009 A 
HETATM   11  C19 UNK     1      33.201  -4.997  36.748  1.00  0.00     0.048 C 
ENDROOT
BRANCH   3  12
HETATM   12  C10 UNK     1      29.202  -7.966  35.130  1.00  0.00     0.257 C 
HETATM   13  O2  UNK     1      29.748  -9.062  35.239  1.00  0.00    -0.267 OA
HETATM   14  N1  UNK     1      28.887  -7.364  33.895  1.00  0.00    -0.323 N 
HETATM   15  H5  UNK     1      28.429  -6.455  33.939  1.00  0.00     0.169 HD
BRANCH  14  16
HETATM   16  C7  UNK     1      29.114  -7.853  32.609  1.00  0.00     0.037 A 
HETATM   17  C13 UNK     1      30.386  -7.787  32.050  1.00  0.00     0.067 A 
HETATM   18  C11 UNK     1      30.590  -8.283  30.761  1.00  0.00     0.092 A 
HETATM   19  O1  UNK     1      31.900  -8.189  30.250  1.00  0.00    -0.275 OA
HETATM   20  C4  UNK     1      29.560  -8.847  30.007  1.00  0.00     0.004 A 
HETATM   21  C22 UNK     1      32.218  -8.649  28.982  1.00  0.00     0.288 A 
HETATM   22  C20 UNK     1      31.121  -9.241  28.198  1.00  0.00     0.090 A 
HETATM   23  O3  UNK     1      33.354  -8.572  28.526  1.00  0.00    -0.260 OA
HETATM   24  C14 UNK     1      29.866  -9.344  28.659  1.00  0.00    -0.043 A 
HETATM   25  C21 UNK     1      28.779  -9.955  27.823  1.00  0.00     0.049 C 
HETATM   26  C15 UNK     1      28.286  -8.903  30.587  1.00  0.00     0.017 A 
HETATM   27  C17 UNK     1      28.065  -8.410  31.878  1.00  0.00     0.030 A 
ENDBRANCH  14  16
ENDBRANCH   3  12
BRANCH   7  28
HETATM   28  C18 UNK     1      25.773  -6.829  38.423  1.00  0.00     0.085 A 
HETATM   29  C23 UNK     1      25.215  -8.080  38.630  1.00  0.00     0.034 A 
HETATM   30  C24 UNK     1      23.929  -8.142  39.153  1.00  0.00     0.004 A 
HETATM   31  C26 UNK     1      23.248  -6.965  39.449  1.00  0.00     0.019 A 
HETATM   32  C25 UNK     1      23.893  -5.764  39.205  1.00  0.00     0.117 A 
HETATM   33  N3  UNK     1      25.143  -5.664  38.698  1.00  0.00    -0.259 NA
ENDBRANCH   7  28
TORSDOF 3
ENDMDL
MODEL 9
REMARK VINA RESULT:      -9.1      1.850      4.988
REMARK  3 active torsions:
REMARK  status: ('A' for Active; 'I' for Inactive)
REMARK       I    between atoms: C10_16  and  N1_4 
REMARK    1  A    between atoms: C7_13  and  N1_4 
REMARK    2  A    between atoms: C10_16  and  C2_8 
REMARK    3  A    between atoms: C18_24  and  C8_14 
ROOT
HETATM    1  N2  UNK     1      18.279   0.679  33.476  1.00  0.00    -0.246 NA
HETATM    2  C1  UNK     1      19.636  -1.069  32.523  1.00  0.00     0.009 A 
HETATM    3  C2  UNK     1      19.569  -1.756  33.734  1.00  0.00     0.047 A 
HETATM    4  C3  UNK     1      18.964   0.169  32.436  1.00  0.00     0.069 A 
HETATM    5  C5  UNK     1      20.342  -1.572  31.417  1.00  0.00     0.021 A 
HETATM    6  C6  UNK     1      18.871  -1.244  34.809  1.00  0.00     0.052 A 
HETATM    7  C8  UNK     1      18.244  -0.027  34.628  1.00  0.00     0.087 A 
HETATM    8  C9  UNK     1      20.385  -0.857  30.224  1.00  0.00    -0.061 A 
HETATM    9  C12 UNK     1      19.024   0.862  31.231  1.00  0.00     0.033 A 
HETATM   10  C16 UNK     1      19.726   0.363  30.132  1.00  0.00     0.009 A 
HETATM   11  C19 UNK     1      21.136  -1.394  29.053  1.00  0.00     0.048 C 
ENDROOT
BRANCH   3  12
HETATM   12  C10 UNK     1      20.234  -3.056  33.936  1.00  0.00     0.257 C 
HETATM   13  O2  UNK     1      21.176  -3.402  33.225  1.00  0.00    -0.267 OA
HETATM   14  N1  UNK     1      19.735  -3.823  35.008  1.00  0.00    -0.323 N 
HETATM   15  H5  UNK     1      18.955  -3.423  35.525  1.00  0.00     0.169 HD
BRANCH  14  16
HETATM   16  C7  UNK     1      20.177  -5.065  35.465  1.00  0.00     0.037 A 
HETATM   17  C13 UNK     1      20.672  -5.198  36.757  1.00  0.00     0.067 A 
HETATM   18  C11 UNK     1      21.109  -6.450  37.194  1.00  0.00     0.092 A 
HETATM   19  O1  UNK     1      21.599  -6.522  38.513  1.00  0.00    -0.275 OA
HETATM   20  C4  UNK     1      21.065  -7.582  36.378  1.00  0.00     0.004 A 
HETATM   21  C22 UNK     1      22.058  -7.714  39.052  1.00  0.00     0.288 A 
HETATM   22  C20 UNK     1      22.007  -8.899  38.179  1.00  0.00     0.090 A 
HETATM   23  O3  UNK     1      22.489  -7.788  40.198  1.00  0.00    -0.260 OA
HETATM   24  C14 UNK     1      21.544  -8.860  36.921  1.00  0.00    -0.043 A 
HETATM   25  C21 UNK     1      21.511 -10.094  36.067  1.00  0.00     0.049 C 
HETATM   26  C15 UNK     1      20.563  -7.427  35.079  1.00  0.00     0.017 A 
HETATM   27  C17 UNK     1      20.122  -6.178  34.627  1.00  0.00     0.030 A 
ENDBRANCH  14  16
ENDBRANCH   3  12
BRANCH   7  28
HETATM   28  C18 UNK     1      17.490   0.587  35.695  1.00  0.00     0.085 A 
HETATM   29  C23 UNK     1      18.129   1.255  36.728  1.00  0.00     0.034 A 
HETATM   30  C24 UNK     1      17.341   1.824  37.721  1.00  0.00     0.004 A 
HETATM   31  C26 UNK     1      15.957   1.708  37.654  1.00  0.00     0.019 A 
HETATM   32  C25 UNK     1      15.415   1.020  36.581  1.00  0.00     0.117 A 
HETATM   33  N3  UNK     1      16.148   0.455  35.595  1.00  0.00    -0.259 NA
ENDBRANCH   7  28
TORSDOF 3
ENDMDL
MODEL 10
REMARK VINA RESULT:      -9.1      9.474     12.885
REMARK  3 active torsions:
REMARK  status: ('A' for Active; 'I' for Inactive)
REMARK       I    between atoms: C10_16  and  N1_4 
REMARK    1  A    between atoms: C7_13  and  N1_4 
REMARK    2  A    between atoms: C10_16  and  C2_8 
REMARK    3  A    between atoms: C18_24  and  C8_14 
ROOT
HETATM    1  N2  UNK     1      26.364  -8.703  37.678  1.00  0.00    -0.246 NA
HETATM    2  C1  UNK     1      28.597  -7.945  37.179  1.00  0.00     0.009 A 
HETATM    3  C2  UNK     1      28.638  -8.830  36.103  1.00  0.00     0.047 A 
HETATM    4  C3  UNK     1      27.419  -7.914  37.956  1.00  0.00     0.069 A 
HETATM    5  C5  UNK     1      29.679  -7.108  37.499  1.00  0.00     0.021 A 
HETATM    6  C6  UNK     1      27.564  -9.645  35.806  1.00  0.00     0.052 A 
HETATM    7  C8  UNK     1      26.454  -9.543  36.621  1.00  0.00     0.087 A 
HETATM    8  C9  UNK     1      29.600  -6.237  38.582  1.00  0.00    -0.061 A 
HETATM    9  C12 UNK     1      27.368  -7.034  39.032  1.00  0.00     0.033 A 
HETATM   10  C16 UNK     1      28.444  -6.201  39.350  1.00  0.00     0.009 A 
HETATM   11  C19 UNK     1      30.751  -5.350  38.917  1.00  0.00     0.048 C 
ENDROOT
BRANCH   3  12
HETATM   12  C10 UNK     1      29.817  -8.945  35.227  1.00  0.00     0.257 C 
HETATM   13  O2  UNK     1      30.671  -9.807  35.427  1.00  0.00    -0.267 OA
HETATM   14  N1  UNK     1      29.856  -8.035  34.152  1.00  0.00    -0.323 N 
HETATM   15  H5  UNK     1      29.084  -7.373  34.092  1.00  0.00     0.169 HD
BRANCH  14  16
HETATM   16  C7  UNK     1      30.814  -7.923  33.144  1.00  0.00     0.037 A 
HETATM   17  C13 UNK     1      30.532  -8.375  31.859  1.00  0.00     0.067 A 
HETATM   18  C11 UNK     1      31.506  -8.253  30.866  1.00  0.00     0.092 A 
HETATM   19  O1  UNK     1      31.162  -8.728  29.584  1.00  0.00    -0.275 OA
HETATM   20  C4  UNK     1      32.759  -7.691  31.114  1.00  0.00     0.004 A 
HETATM   21  C22 UNK     1      32.050  -8.657  28.523  1.00  0.00     0.288 A 
HETATM   22  C20 UNK     1      33.368  -8.062  28.800  1.00  0.00     0.090 A 
HETATM   23  O3  UNK     1      31.762  -9.068  27.403  1.00  0.00    -0.260 OA
HETATM   24  C14 UNK     1      33.721  -7.602  30.008  1.00  0.00    -0.043 A 
HETATM   25  C21 UNK     1      35.078  -7.002  30.244  1.00  0.00     0.049 C 
HETATM   26  C15 UNK     1      33.023  -7.242  32.415  1.00  0.00     0.017 A 
HETATM   27  C17 UNK     1      32.057  -7.358  33.422  1.00  0.00     0.030 A 
ENDBRANCH  14  16
ENDBRANCH   3  12
BRANCH   7  28
HETATM   28  C18 UNK     1      25.283 -10.354  36.390  1.00  0.00     0.085 A 
HETATM   29  C23 UNK     1      25.394 -11.715  36.149  1.00  0.00     0.034 A 
HETATM   30  C24 UNK     1      24.225 -12.436  35.935  1.00  0.00     0.004 A 
HETATM   31  C26 UNK     1      22.997 -11.783  35.967  1.00  0.00     0.019 A 
HETATM   32  C25 UNK     1      22.993 -10.421  36.215  1.00  0.00     0.117 A 
HETATM   33  N3  UNK     1      24.108  -9.686  36.429  1.00  0.00    -0.259 NA
ENDBRANCH   7  28
TORSDOF 3
ENDMDL
