MODEL 1
REMARK VINA RESULT:      -8.4      0.000      0.000
REMARK  4 active torsions:
REMARK  status: ('A' for Active; 'I' for Inactive)
REMARK    1  A    between atoms: C9_14  and  O3_3 
REMARK    2  A    between atoms: C10_15  and  O4_4 
REMARK    3  A    between atoms: C13_18  and  O5_5 
REMARK    4  A    between atoms: C3_8  and  C4_9 
ROOT
HETATM    1  O1  UNK     1      20.483  -1.935  17.488  1.00  0.00    -0.309 OA
HETATM    2  O2  UNK     1      17.789  -3.261  14.734  1.00  0.00    -0.287 OA
HETATM    3  C1  UNK     1      19.862  -3.589  15.821  1.00  0.00     0.051 A 
HETATM    4  C2  UNK     1      20.741  -3.079  16.776  1.00  0.00     0.093 A 
HETATM    5  C3  UNK     1      19.293  -1.264  17.253  1.00  0.00     0.090 A 
HETATM    6  C5  UNK     1      18.603  -2.873  15.561  1.00  0.00     0.187 A 
HETATM    7  C6  UNK     1      18.373  -1.650  16.356  1.00  0.00     0.093 A 
HETATM    8  C7  UNK     1      20.177  -4.758  15.123  1.00  0.00     0.057 A 
HETATM    9  C8  UNK     1      21.942  -3.737  17.040  1.00  0.00     0.077 A 
HETATM   10  C9  UNK     1      21.379  -5.413  15.389  1.00  0.00     0.099 A 
HETATM   11  C10 UNK     1      22.259  -4.905  16.345  1.00  0.00     0.101 A 
ENDROOT
BRANCH   5  12
HETATM   12  C4  UNK     1      19.121  -0.045  18.069  1.00  0.00     0.001 A 
HETATM   13  C11 UNK     1      19.087   1.210  17.457  1.00  0.00     0.050 A 
HETATM   14  C13 UNK     1      18.924   2.361  18.228  1.00  0.00     0.066 A 
HETATM   15  C15 UNK     1      18.795   2.260  19.614  1.00  0.00     0.036 A 
HETATM   16  C14 UNK     1      18.829   1.008  20.228  1.00  0.00     0.004 A 
HETATM   17  C12 UNK     1      18.991  -0.143  19.457  1.00  0.00     0.014 A 
BRANCH  14  18
HETATM   18  O5  UNK     1      18.894   3.584  17.631  1.00  0.00    -0.361 OA
HETATM   19  H10 UNK     1      19.758   3.755  17.220  1.00  0.00     0.217 HD
ENDBRANCH  14  18
ENDBRANCH   5  12
BRANCH  11  20
HETATM   20  O4  UNK     1      23.435  -5.541  16.610  1.00  0.00    -0.358 OA
HETATM   21  H9  UNK     1      24.145  -5.123  16.091  1.00  0.00     0.217 HD
ENDBRANCH  11  20
BRANCH  10  22
HETATM   22  O3  UNK     1      21.683  -6.554  14.708  1.00  0.00    -0.358 OA
HETATM   23  H8  UNK     1      22.375  -6.346  14.056  1.00  0.00     0.217 HD
ENDBRANCH  10  22
TORSDOF 4
ENDMDL
MODEL 2
REMARK VINA RESULT:      -8.4     14.146     16.828
REMARK  4 active torsions:
REMARK  status: ('A' for Active; 'I' for Inactive)
REMARK    1  A    between atoms: C9_14  and  O3_3 
REMARK    2  A    between atoms: C10_15  and  O4_4 
REMARK    3  A    between atoms: C13_18  and  O5_5 
REMARK    4  A    between atoms: C3_8  and  C4_9 
ROOT
HETATM    1  O1  UNK     1      19.013  -0.433  33.456  1.00  0.00    -0.309 OA
HETATM    2  O2  UNK     1      18.370   2.892  31.191  1.00  0.00    -0.287 OA
HETATM    3  C1  UNK     1      19.134   0.658  31.289  1.00  0.00     0.051 A 
HETATM    4  C2  UNK     1      19.330  -0.443  32.120  1.00  0.00     0.093 A 
HETATM    5  C3  UNK     1      18.468   0.721  33.996  1.00  0.00     0.090 A 
HETATM    6  C5  UNK     1      18.565   1.888  31.861  1.00  0.00     0.187 A 
HETATM    7  C6  UNK     1      18.239   1.846  33.301  1.00  0.00     0.093 A 
HETATM    8  C7  UNK     1      19.476   0.592  29.935  1.00  0.00     0.057 A 
HETATM    9  C8  UNK     1      19.870  -1.620  31.603  1.00  0.00     0.077 A 
HETATM   10  C9  UNK     1      20.016  -0.587  29.421  1.00  0.00     0.099 A 
HETATM   11  C10 UNK     1      20.213  -1.690  30.252  1.00  0.00     0.101 A 
ENDROOT
BRANCH   5  12
HETATM   12  C4  UNK     1      18.170   0.625  35.439  1.00  0.00     0.001 A 
HETATM   13  C11 UNK     1      18.243  -0.609  36.091  1.00  0.00     0.050 A 
HETATM   14  C13 UNK     1      17.962  -0.699  37.454  1.00  0.00     0.066 A 
HETATM   15  C15 UNK     1      17.606   0.444  38.170  1.00  0.00     0.036 A 
HETATM   16  C14 UNK     1      17.531   1.677  37.522  1.00  0.00     0.004 A 
HETATM   17  C12 UNK     1      17.813   1.768  36.160  1.00  0.00     0.014 A 
BRANCH  14  18
HETATM   18  O5  UNK     1      18.032  -1.902  38.086  1.00  0.00    -0.361 OA
HETATM   19  H10 UNK     1      17.197  -2.059  38.560  1.00  0.00     0.217 HD
ENDBRANCH  14  18
ENDBRANCH   5  12
BRANCH  11  20
HETATM   20  O4  UNK     1      20.740  -2.844  29.756  1.00  0.00    -0.358 OA
HETATM   21  H9  UNK     1      20.015  -3.454  29.530  1.00  0.00     0.217 HD
ENDBRANCH  11  20
BRANCH  10  22
HETATM   22  O3  UNK     1      20.349  -0.649  28.101  1.00  0.00    -0.358 OA
HETATM   23  H8  UNK     1      21.319  -0.674  28.031  1.00  0.00     0.217 HD
ENDBRANCH  10  22
TORSDOF 4
ENDMDL
MODEL 3
REMARK VINA RESULT:      -8.3      2.756      6.649
REMARK  4 active torsions:
REMARK  status: ('A' for Active; 'I' for Inactive)
REMARK    1  A    between atoms: C9_14  and  O3_3 
REMARK    2  A    between atoms: C10_15  and  O4_4 
REMARK    3  A    between atoms: C13_18  and  O5_5 
REMARK    4  A    between atoms: C3_8  and  C4_9 
ROOT
HETATM    1  O1  UNK     1      19.275  -0.926  16.723  1.00  0.00    -0.309 OA
HETATM    2  O2  UNK     1      19.219   3.094  16.065  1.00  0.00    -0.287 OA
HETATM    3  C1  UNK     1      19.206   1.326  17.632  1.00  0.00     0.051 A 
HETATM    4  C2  UNK     1      19.225  -0.060  17.787  1.00  0.00     0.093 A 
HETATM    5  C3  UNK     1      19.315  -0.398  15.442  1.00  0.00     0.090 A 
HETATM    6  C5  UNK     1      19.238   1.889  16.274  1.00  0.00     0.187 A 
HETATM    7  C6  UNK     1      19.294   0.915  15.165  1.00  0.00     0.093 A 
HETATM    8  C7  UNK     1      19.154   2.161  18.752  1.00  0.00     0.057 A 
HETATM    9  C8  UNK     1      19.194  -0.620  19.064  1.00  0.00     0.077 A 
HETATM   10  C9  UNK     1      19.122   1.597  20.027  1.00  0.00     0.099 A 
HETATM   11  C10 UNK     1      19.142   0.211  20.184  1.00  0.00     0.101 A 
ENDROOT
BRANCH   5  12
HETATM   12  C4  UNK     1      19.361  -1.417  14.375  1.00  0.00     0.001 A 
HETATM   13  C11 UNK     1      19.055  -1.069  13.057  1.00  0.00     0.050 A 
HETATM   14  C13 UNK     1      19.098  -2.032  12.049  1.00  0.00     0.066 A 
HETATM   15  C15 UNK     1      19.447  -3.347  12.356  1.00  0.00     0.036 A 
HETATM   16  C14 UNK     1      19.753  -3.699  13.671  1.00  0.00     0.004 A 
HETATM   17  C12 UNK     1      19.711  -2.736  14.678  1.00  0.00     0.014 A 
BRANCH  14  18
HETATM   18  O5  UNK     1      18.797  -1.690  10.767  1.00  0.00    -0.361 OA
HETATM   19  H10 UNK     1      18.838  -0.722  10.681  1.00  0.00     0.217 HD
ENDBRANCH  14  18
ENDBRANCH   5  12
BRANCH  11  20
HETATM   20  O4  UNK     1      19.111  -0.345  21.427  1.00  0.00    -0.358 OA
HETATM   21  H9  UNK     1      19.654  -1.153  21.427  1.00  0.00     0.217 HD
ENDBRANCH  11  20
BRANCH  10  22
HETATM   22  O3  UNK     1      19.072   2.414  21.117  1.00  0.00    -0.358 OA
HETATM   23  H8  UNK     1      19.701   2.079  21.779  1.00  0.00     0.217 HD
ENDBRANCH  10  22
TORSDOF 4
ENDMDL
MODEL 4
REMARK VINA RESULT:      -8.1     12.589     15.005
REMARK  4 active torsions:
REMARK  status: ('A' for Active; 'I' for Inactive)
REMARK    1  A    between atoms: C9_14  and  O3_3 
REMARK    2  A    between atoms: C10_15  and  O4_4 
REMARK    3  A    between atoms: C13_18  and  O5_5 
REMARK    4  A    between atoms: C3_8  and  C4_9 
ROOT
HETATM    1  O1  UNK     1      12.794   6.492   8.453  1.00  0.00    -0.309 OA
HETATM    2  O2  UNK     1      13.700  10.117  10.078  1.00  0.00    -0.287 OA
HETATM    3  C1  UNK     1      14.419   7.929   9.547  1.00  0.00     0.051 A 
HETATM    4  C2  UNK     1      14.042   6.713   8.978  1.00  0.00     0.093 A 
HETATM    5  C3  UNK     1      11.872   7.527   8.483  1.00  0.00     0.090 A 
HETATM    6  C5  UNK     1      13.440   9.026   9.590  1.00  0.00     0.187 A 
HETATM    7  C6  UNK     1      12.112   8.738   9.009  1.00  0.00     0.093 A 
HETATM    8  C7  UNK     1      15.704   8.098  10.069  1.00  0.00     0.057 A 
HETATM    9  C8  UNK     1      14.951   5.656   8.927  1.00  0.00     0.077 A 
HETATM   10  C9  UNK     1      16.610   7.039  10.016  1.00  0.00     0.099 A 
HETATM   11  C10 UNK     1      16.236   5.821   9.446  1.00  0.00     0.101 A 
ENDROOT
BRANCH   5  12
HETATM   12  C4  UNK     1      10.562   7.180   7.897  1.00  0.00     0.001 A 
HETATM   13  C11 UNK     1       9.384   7.477   8.586  1.00  0.00     0.050 A 
HETATM   14  C13 UNK     1       8.146   7.148   8.032  1.00  0.00     0.066 A 
HETATM   15  C15 UNK     1       8.083   6.521   6.788  1.00  0.00     0.036 A 
HETATM   16  C14 UNK     1       9.258   6.222   6.098  1.00  0.00     0.004 A 
HETATM   17  C12 UNK     1      10.495   6.551   6.650  1.00  0.00     0.014 A 
BRANCH  14  18
HETATM   18  O5  UNK     1       6.999   7.437   8.706  1.00  0.00    -0.361 OA
HETATM   19  H10 UNK     1       6.448   8.019   8.155  1.00  0.00     0.217 HD
ENDBRANCH  14  18
ENDBRANCH   5  12
BRANCH  11  20
HETATM   20  O4  UNK     1      17.117   4.783   9.392  1.00  0.00    -0.358 OA
HETATM   21  H9  UNK     1      17.744   4.937   8.665  1.00  0.00     0.217 HD
ENDBRANCH  11  20
BRANCH  10  22
HETATM   22  O3  UNK     1      17.863   7.206  10.525  1.00  0.00    -0.358 OA
HETATM   23  H8  UNK     1      18.380   7.739   9.896  1.00  0.00     0.217 HD
ENDBRANCH  10  22
TORSDOF 4
ENDMDL
MODEL 5
REMARK VINA RESULT:      -8.1     14.500     17.810
REMARK  4 active torsions:
REMARK  status: ('A' for Active; 'I' for Inactive)
REMARK    1  A    between atoms: C9_14  and  O3_3 
REMARK    2  A    between atoms: C10_15  and  O4_4 
REMARK    3  A    between atoms: C13_18  and  O5_5 
REMARK    4  A    between atoms: C3_8  and  C4_9 
ROOT
HETATM    1  O1  UNK     1      18.973  -0.429  33.573  1.00  0.00    -0.309 OA
HETATM    2  O2  UNK     1      17.823   3.445  34.090  1.00  0.00    -0.287 OA
HETATM    3  C1  UNK     1      18.176   1.319  35.059  1.00  0.00     0.051 A 
HETATM    4  C2  UNK     1      18.579   0.008  34.813  1.00  0.00     0.093 A 
HETATM    5  C3  UNK     1      18.978   0.477  32.524  1.00  0.00     0.090 A 
HETATM    6  C5  UNK     1      18.169   2.281  33.947  1.00  0.00     0.187 A 
HETATM    7  C6  UNK     1      18.605   1.762  32.634  1.00  0.00     0.093 A 
HETATM    8  C7  UNK     1      17.782   1.709  36.343  1.00  0.00     0.057 A 
HETATM    9  C8  UNK     1      18.592  -0.924  35.851  1.00  0.00     0.077 A 
HETATM   10  C9  UNK     1      17.797   0.774  37.378  1.00  0.00     0.099 A 
HETATM   11  C10 UNK     1      18.201  -0.539  37.134  1.00  0.00     0.101 A 
ENDROOT
BRANCH   5  12
HETATM   12  C4  UNK     1      19.413  -0.099  31.236  1.00  0.00     0.001 A 
HETATM   13  C11 UNK     1      19.957  -1.385  31.190  1.00  0.00     0.050 A 
HETATM   14  C13 UNK     1      20.368  -1.928  29.973  1.00  0.00     0.066 A 
HETATM   15  C15 UNK     1      20.238  -1.187  28.798  1.00  0.00     0.036 A 
HETATM   16  C14 UNK     1      19.696   0.098  28.841  1.00  0.00     0.004 A 
HETATM   17  C12 UNK     1      19.284   0.641  30.058  1.00  0.00     0.014 A 
BRANCH  14  18
HETATM   18  O5  UNK     1      20.899  -3.181  29.930  1.00  0.00    -0.361 OA
HETATM   19  H10 UNK     1      21.643  -3.229  30.555  1.00  0.00     0.217 HD
ENDBRANCH  14  18
ENDBRANCH   5  12
BRANCH  11  20
HETATM   20  O4  UNK     1      18.216  -1.456  38.141  1.00  0.00    -0.358 OA
HETATM   21  H9  UNK     1      18.837  -2.170  37.910  1.00  0.00     0.217 HD
ENDBRANCH  11  20
BRANCH  10  22
HETATM   22  O3  UNK     1      17.414   1.157  38.629  1.00  0.00    -0.358 OA
HETATM   23  H8  UNK     1      16.964   0.406  39.054  1.00  0.00     0.217 HD
ENDBRANCH  10  22
TORSDOF 4
ENDMDL
MODEL 6
REMARK VINA RESULT:      -8.1     13.215     16.376
REMARK  4 active torsions:
REMARK  status: ('A' for Active; 'I' for Inactive)
REMARK    1  A    between atoms: C9_14  and  O3_3 
REMARK    2  A    between atoms: C10_15  and  O4_4 
REMARK    3  A    between atoms: C13_18  and  O5_5 
REMARK    4  A    between atoms: C3_8  and  C4_9 
ROOT
HETATM    1  O1  UNK     1      18.046   4.155  31.480  1.00  0.00    -0.309 OA
HETATM    2  O2  UNK     1      18.722   1.619  34.597  1.00  0.00    -0.287 OA
HETATM    3  C1  UNK     1      18.644   1.932  32.256  1.00  0.00     0.051 A 
HETATM    4  C2  UNK     1      18.397   2.851  31.237  1.00  0.00     0.093 A 
HETATM    5  C3  UNK     1      17.941   4.576  32.797  1.00  0.00     0.090 A 
HETATM    6  C5  UNK     1      18.525   2.373  33.654  1.00  0.00     0.187 A 
HETATM    7  C6  UNK     1      18.147   3.786  33.862  1.00  0.00     0.093 A 
HETATM    8  C7  UNK     1      18.997   0.615  31.950  1.00  0.00     0.057 A 
HETATM    9  C8  UNK     1      18.502   2.457  29.903  1.00  0.00     0.077 A 
HETATM   10  C9  UNK     1      19.101   0.225  30.615  1.00  0.00     0.099 A 
HETATM   11  C10 UNK     1      18.855   1.143  29.594  1.00  0.00     0.101 A 
ENDROOT
BRANCH   5  12
HETATM   12  C4  UNK     1      17.553   5.993  32.944  1.00  0.00     0.001 A 
HETATM   13  C11 UNK     1      16.855   6.640  31.921  1.00  0.00     0.050 A 
HETATM   14  C13 UNK     1      16.490   7.979  32.060  1.00  0.00     0.066 A 
HETATM   15  C15 UNK     1      16.821   8.675  33.223  1.00  0.00     0.036 A 
HETATM   16  C14 UNK     1      17.519   8.033  34.246  1.00  0.00     0.004 A 
HETATM   17  C12 UNK     1      17.884   6.694  34.107  1.00  0.00     0.014 A 
BRANCH  14  18
HETATM   18  O5  UNK     1      15.811   8.608  31.062  1.00  0.00    -0.361 OA
HETATM   19  H10 UNK     1      15.649   7.973  30.343  1.00  0.00     0.217 HD
ENDBRANCH  14  18
ENDBRANCH   5  12
BRANCH  11  20
HETATM   20  O4  UNK     1      18.954   0.768  28.287  1.00  0.00    -0.358 OA
HETATM   21  H9  UNK     1      18.214   1.156  27.789  1.00  0.00     0.217 HD
ENDBRANCH  11  20
BRANCH  10  22
HETATM   22  O3  UNK     1      19.446  -1.060  30.319  1.00  0.00    -0.358 OA
HETATM   23  H8  UNK     1      19.483  -1.566  31.149  1.00  0.00     0.217 HD
ENDBRANCH  10  22
TORSDOF 4
ENDMDL
MODEL 7
REMARK VINA RESULT:      -8.1     14.718     17.883
REMARK  4 active torsions:
REMARK  status: ('A' for Active; 'I' for Inactive)
REMARK    1  A    between atoms: C9_14  and  O3_3 
REMARK    2  A    between atoms: C10_15  and  O4_4 
REMARK    3  A    between atoms: C13_18  and  O5_5 
REMARK    4  A    between atoms: C3_8  and  C4_9 
ROOT
HETATM    1  O1  UNK     1      17.968   3.036  33.685  1.00  0.00    -0.309 OA
HETATM    2  O2  UNK     1      19.223   1.362  30.189  1.00  0.00    -0.287 OA
HETATM    3  C1  UNK     1      18.636   3.324  31.367  1.00  0.00     0.051 A 
HETATM    4  C2  UNK     1      18.204   3.831  32.592  1.00  0.00     0.093 A 
HETATM    5  C3  UNK     1      18.177   1.671  33.566  1.00  0.00     0.090 A 
HETATM    6  C5  UNK     1      18.849   1.875  31.234  1.00  0.00     0.187 A 
HETATM    7  C6  UNK     1      18.584   1.064  32.440  1.00  0.00     0.093 A 
HETATM    8  C7  UNK     1      18.859   4.182  30.287  1.00  0.00     0.057 A 
HETATM    9  C8  UNK     1      17.993   5.202  32.744  1.00  0.00     0.077 A 
HETATM   10  C9  UNK     1      18.647   5.552  30.442  1.00  0.00     0.099 A 
HETATM   11  C10 UNK     1      18.215   6.061  31.667  1.00  0.00     0.101 A 
ENDROOT
BRANCH   5  12
HETATM   12  C4  UNK     1      17.889   0.910  34.798  1.00  0.00     0.001 A 
HETATM   13  C11 UNK     1      18.069   1.505  36.049  1.00  0.00     0.050 A 
HETATM   14  C13 UNK     1      17.796   0.785  37.213  1.00  0.00     0.066 A 
HETATM   15  C15 UNK     1      17.343  -0.531  37.129  1.00  0.00     0.036 A 
HETATM   16  C14 UNK     1      17.162  -1.128  35.881  1.00  0.00     0.004 A 
HETATM   17  C12 UNK     1      17.434  -0.409  34.718  1.00  0.00     0.014 A 
BRANCH  14  18
HETATM   18  O5  UNK     1      17.975   1.366  38.431  1.00  0.00    -0.361 OA
HETATM   19  H10 UNK     1      17.147   1.298  38.937  1.00  0.00     0.217 HD
ENDBRANCH  14  18
ENDBRANCH   5  12
BRANCH  11  20
HETATM   20  O4  UNK     1      18.005   7.398  31.825  1.00  0.00    -0.358 OA
HETATM   21  H9  UNK     1      17.214   7.532  32.375  1.00  0.00     0.217 HD
ENDBRANCH  11  20
BRANCH  10  22
HETATM   22  O3  UNK     1      18.866   6.385  29.387  1.00  0.00    -0.358 OA
HETATM   23  H8  UNK     1      19.203   5.856  28.643  1.00  0.00     0.217 HD
ENDBRANCH  10  22
TORSDOF 4
ENDMDL
MODEL 8
REMARK VINA RESULT:      -7.9     15.603     17.775
REMARK  4 active torsions:
REMARK  status: ('A' for Active; 'I' for Inactive)
REMARK    1  A    between atoms: C9_14  and  O3_3 
REMARK    2  A    between atoms: C10_15  and  O4_4 
REMARK    3  A    between atoms: C13_18  and  O5_5 
REMARK    4  A    between atoms: C3_8  and  C4_9 
ROOT
HETATM    1  O1  UNK     1      18.150   3.145  34.202  1.00  0.00    -0.309 OA
HETATM    2  O2  UNK     1      18.653  -0.364  32.194  1.00  0.00    -0.287 OA
HETATM    3  C1  UNK     1      18.343   0.725  34.268  1.00  0.00     0.051 A 
HETATM    4  C2  UNK     1      18.177   1.960  34.893  1.00  0.00     0.093 A 
HETATM    5  C3  UNK     1      18.287   3.110  32.823  1.00  0.00     0.090 A 
HETATM    6  C5  UNK     1      18.498   0.684  32.806  1.00  0.00     0.187 A 
HETATM    7  C6  UNK     1      18.460   1.986  32.109  1.00  0.00     0.093 A 
HETATM    8  C7  UNK     1      18.364  -0.452  35.022  1.00  0.00     0.057 A 
HETATM    9  C8  UNK     1      18.029   2.027  36.278  1.00  0.00     0.077 A 
HETATM   10  C9  UNK     1      18.216  -0.381  36.407  1.00  0.00     0.099 A 
HETATM   11  C10 UNK     1      18.048   0.854  37.034  1.00  0.00     0.101 A 
ENDROOT
BRANCH   5  12
HETATM   12  C4  UNK     1      18.250   4.439  32.182  1.00  0.00     0.001 A 
HETATM   13  C11 UNK     1      19.022   4.693  31.046  1.00  0.00     0.050 A 
HETATM   14  C13 UNK     1      18.987   5.950  30.441  1.00  0.00     0.066 A 
HETATM   15  C15 UNK     1      18.179   6.956  30.970  1.00  0.00     0.036 A 
HETATM   16  C14 UNK     1      17.407   6.706  32.105  1.00  0.00     0.004 A 
HETATM   17  C12 UNK     1      17.441   5.450  32.709  1.00  0.00     0.014 A 
BRANCH  14  18
HETATM   18  O5  UNK     1      19.742   6.195  29.336  1.00  0.00    -0.361 OA
HETATM   19  H10 UNK     1      19.948   7.146  29.299  1.00  0.00     0.217 HD
ENDBRANCH  14  18
ENDBRANCH   5  12
BRANCH  11  20
HETATM   20  O4  UNK     1      17.904   0.929  38.387  1.00  0.00    -0.358 OA
HETATM   21  H9  UNK     1      18.626   1.469  38.754  1.00  0.00     0.217 HD
ENDBRANCH  11  20
BRANCH  10  22
HETATM   22  O3  UNK     1      18.236  -1.530  37.140  1.00  0.00    -0.358 OA
HETATM   23  H8  UNK     1      17.393  -1.996  37.001  1.00  0.00     0.217 HD
ENDBRANCH  10  22
TORSDOF 4
ENDMDL
MODEL 9
REMARK VINA RESULT:      -7.8     14.267     16.910
REMARK  4 active torsions:
REMARK  status: ('A' for Active; 'I' for Inactive)
REMARK    1  A    between atoms: C9_14  and  O3_3 
REMARK    2  A    between atoms: C10_15  and  O4_4 
REMARK    3  A    between atoms: C13_18  and  O5_5 
REMARK    4  A    between atoms: C3_8  and  C4_9 
ROOT
HETATM    1  O1  UNK     1      18.270   0.355  33.039  1.00  0.00    -0.309 OA
HETATM    2  O2  UNK     1      20.726  -2.893  33.168  1.00  0.00    -0.287 OA
HETATM    3  C1  UNK     1      19.855  -1.096  31.905  1.00  0.00     0.051 A 
HETATM    4  C2  UNK     1      18.996   0.002  31.929  1.00  0.00     0.093 A 
HETATM    5  C3  UNK     1      18.406  -0.409  34.187  1.00  0.00     0.090 A 
HETATM    6  C5  UNK     1      19.994  -1.915  33.119  1.00  0.00     0.187 A 
HETATM    7  C6  UNK     1      19.194  -1.491  34.287  1.00  0.00     0.093 A 
HETATM    8  C7  UNK     1      20.568  -1.410  30.745  1.00  0.00     0.057 A 
HETATM    9  C8  UNK     1      18.844   0.793  30.790  1.00  0.00     0.077 A 
HETATM   10  C9  UNK     1      20.415  -0.617  29.609  1.00  0.00     0.099 A 
HETATM   11  C10 UNK     1      19.556   0.483  29.631  1.00  0.00     0.101 A 
ENDROOT
BRANCH   5  12
HETATM   12  C4  UNK     1      17.578   0.056  35.318  1.00  0.00     0.001 A 
HETATM   13  C11 UNK     1      18.179   0.420  36.526  1.00  0.00     0.050 A 
HETATM   14  C13 UNK     1      17.396   0.858  37.594  1.00  0.00     0.066 A 
HETATM   15  C15 UNK     1      16.010   0.933  37.458  1.00  0.00     0.036 A 
HETATM   16  C14 UNK     1      15.406   0.570  36.253  1.00  0.00     0.004 A 
HETATM   17  C12 UNK     1      16.189   0.132  35.186  1.00  0.00     0.014 A 
BRANCH  14  18
HETATM   18  O5  UNK     1      17.983   1.211  38.770  1.00  0.00    -0.361 OA
HETATM   19  H10 UNK     1      17.289   1.426  39.417  1.00  0.00     0.217 HD
ENDBRANCH  14  18
ENDBRANCH   5  12
BRANCH  11  20
HETATM   20  O4  UNK     1      19.401   1.262  28.524  1.00  0.00    -0.358 OA
HETATM   21  H9  UNK     1      18.474   1.551  28.466  1.00  0.00     0.217 HD
ENDBRANCH  11  20
BRANCH  10  22
HETATM   22  O3  UNK     1      21.112  -0.925  28.480  1.00  0.00    -0.358 OA
HETATM   23  H8  UNK     1      20.707  -1.712  28.075  1.00  0.00     0.217 HD
ENDBRANCH  10  22
TORSDOF 4
ENDMDL
MODEL 10
REMARK VINA RESULT:      -7.8     14.658     17.584
REMARK  4 active torsions:
REMARK  status: ('A' for Active; 'I' for Inactive)
REMARK    1  A    between atoms: C9_14  and  O3_3 
REMARK    2  A    between atoms: C10_15  and  O4_4 
REMARK    3  A    between atoms: C13_18  and  O5_5 
REMARK    4  A    between atoms: C3_8  and  C4_9 
ROOT
HETATM    1  O1  UNK     1      18.923  -0.277  33.516  1.00  0.00    -0.309 OA
HETATM    2  O2  UNK     1      20.511  -3.772  34.881  1.00  0.00    -0.287 OA
HETATM    3  C1  UNK     1      19.328  -1.787  35.375  1.00  0.00     0.051 A 
HETATM    4  C2  UNK     1      18.810  -0.607  34.843  1.00  0.00     0.093 A 
HETATM    5  C3  UNK     1      19.573  -1.160  32.668  1.00  0.00     0.090 A 
HETATM    6  C5  UNK     1      20.028  -2.722  34.481  1.00  0.00     0.187 A 
HETATM    7  C6  UNK     1      20.120  -2.322  33.062  1.00  0.00     0.093 A 
HETATM    8  C7  UNK     1      19.186  -2.071  36.736  1.00  0.00     0.057 A 
HETATM    9  C8  UNK     1      18.144   0.297  35.670  1.00  0.00     0.077 A 
HETATM   10  C9  UNK     1      18.519  -1.165  37.560  1.00  0.00     0.099 A 
HETATM   11  C10 UNK     1      17.999   0.016  37.030  1.00  0.00     0.101 A 
ENDROOT
BRANCH   5  12
HETATM   12  C4  UNK     1      19.642  -0.705  31.266  1.00  0.00     0.001 A 
HETATM   13  C11 UNK     1      19.173   0.563  30.915  1.00  0.00     0.050 A 
HETATM   14  C13 UNK     1      19.237   0.993  29.589  1.00  0.00     0.066 A 
HETATM   15  C15 UNK     1      19.771   0.155  28.610  1.00  0.00     0.036 A 
HETATM   16  C14 UNK     1      20.240  -1.113  28.957  1.00  0.00     0.004 A 
HETATM   17  C12 UNK     1      20.176  -1.542  30.282  1.00  0.00     0.014 A 
BRANCH  14  18
HETATM   18  O5  UNK     1      18.778   2.228  29.250  1.00  0.00    -0.361 OA
HETATM   19  H10 UNK     1      18.690   2.277  28.282  1.00  0.00     0.217 HD
ENDBRANCH  14  18
ENDBRANCH   5  12
BRANCH  11  20
HETATM   20  O4  UNK     1      17.348   0.906  37.830  1.00  0.00    -0.358 OA
HETATM   21  H9  UNK     1      16.395   0.710  37.812  1.00  0.00     0.217 HD
ENDBRANCH  11  20
BRANCH  10  22
HETATM   22  O3  UNK     1      18.381  -1.445  38.887  1.00  0.00    -0.358 OA
HETATM   23  H8  UNK     1      18.427  -2.409  39.002  1.00  0.00     0.217 HD
ENDBRANCH  10  22
TORSDOF 4
ENDMDL
