MODEL 1
REMARK VINA RESULT:      -8.4      0.000      0.000
REMARK  8 active torsions:
REMARK  status: ('A' for Active; 'I' for Inactive)
REMARK    1  A    between atoms: C1_8  and  O1_2 
REMARK    2  A    between atoms: C3_10  and  O1_2 
REMARK    3  A    between atoms: C14_21  and  O3_4 
REMARK    4  A    between atoms: C9_16  and  O3_4 
REMARK    5  A    between atoms: C12_19  and  O4_5 
REMARK    6  A    between atoms: C15_22  and  O4_5 
REMARK    7  A    between atoms: C1_8  and  C2_9 
REMARK    8  A    between atoms: C1_8  and  C9_16 
ROOT
HETATM    1  O2  UNK     1      18.925   4.534  30.042  1.00  0.00    -0.319 OA
HETATM    2  O6  UNK     1      17.645   2.038  33.010  1.00  0.00    -0.284 OA
HETATM    3  C3  UNK     1      18.850   6.916  32.800  1.00  0.00     0.072 A 
HETATM    4  C4  UNK     1      18.309   4.216  32.374  1.00  0.00     0.051 A 
HETATM    5  C5  UNK     1      18.744   5.017  31.315  1.00  0.00     0.092 A 
HETATM    6  C6  UNK     1      19.016   6.368  31.528  1.00  0.00     0.075 A 
HETATM    7  C7  UNK     1      18.416   6.116  33.858  1.00  0.00     0.038 A 
HETATM    8  C10 UNK     1      18.144   4.763  33.649  1.00  0.00     0.021 A 
HETATM    9  C11 UNK     1      18.029   2.790  32.125  1.00  0.00     0.220 A 
HETATM   10  C12 UNK     1      18.238   2.322  30.737  1.00  0.00     0.149 A 
HETATM   11  C13 UNK     1      18.658   3.204  29.825  1.00  0.00     0.184 A 
ENDROOT
BRANCH   3  12
HETATM   12  O1  UNK     1      19.115   8.235  33.012  1.00  0.00    -0.336 OA
BRANCH  12  13
HETATM   13  C1  UNK     1      18.633   8.806  34.227  1.00  0.00     0.228 C 
BRANCH  13  14
HETATM   14  C2  UNK     1      19.445  10.062  34.544  1.00  0.00     0.038 C 
HETATM   15  C8  UNK     1      20.942   9.787  34.583  1.00  0.00     0.008 C 
ENDBRANCH  13  14
BRANCH  13  16
HETATM   16  C9  UNK     1      17.166   9.139  34.041  1.00  0.00     0.288 C 
HETATM   17  O5  UNK     1      16.369   9.303  34.958  1.00  0.00    -0.262 OA
BRANCH  16  18
HETATM   18  O3  UNK     1      16.872   9.199  32.709  1.00  0.00    -0.320 OA
BRANCH  18  19
HETATM   19  C14 UNK     1      15.511   8.923  32.363  1.00  0.00     0.174 C 
HETATM   20  C16 UNK     1      15.393   7.474  31.944  1.00  0.00     0.034 C 
ENDBRANCH  18  19
ENDBRANCH  16  18
ENDBRANCH  13  16
ENDBRANCH  12  13
ENDBRANCH   3  12
BRANCH  10  21
HETATM   21  O4  UNK     1      17.997   1.005  30.422  1.00  0.00    -0.303 OA
BRANCH  21  22
HETATM   22  C15 UNK     1      19.087   0.199  30.238  1.00  0.00     0.098 A 
HETATM   23  C17 UNK     1      19.533  -0.649  31.248  1.00  0.00     0.067 A 
HETATM   24 Cl1  UNK     1      18.732  -0.719  32.773  1.00  0.00    -0.081 Cl
HETATM   25  C19 UNK     1      20.647  -1.460  31.031  1.00  0.00     0.026 A 
HETATM   26  C21 UNK     1      21.312  -1.420  29.805  1.00  0.00     0.002 A 
HETATM   27  C20 UNK     1      20.862  -0.569  28.796  1.00  0.00     0.003 A 
HETATM   28  C18 UNK     1      19.748   0.243  29.012  1.00  0.00     0.039 A 
ENDBRANCH  21  22
ENDBRANCH  10  21
TORSDOF 8
ENDMDL
MODEL 2
REMARK VINA RESULT:      -8.4      1.771      2.933
REMARK  8 active torsions:
REMARK  status: ('A' for Active; 'I' for Inactive)
REMARK    1  A    between atoms: C1_8  and  O1_2 
REMARK    2  A    between atoms: C3_10  and  O1_2 
REMARK    3  A    between atoms: C14_21  and  O3_4 
REMARK    4  A    between atoms: C9_16  and  O3_4 
REMARK    5  A    between atoms: C12_19  and  O4_5 
REMARK    6  A    between atoms: C15_22  and  O4_5 
REMARK    7  A    between atoms: C1_8  and  C2_9 
REMARK    8  A    between atoms: C1_8  and  C9_16 
ROOT
HETATM    1  O2  UNK     1      18.041   2.919  33.163  1.00  0.00    -0.319 OA
HETATM    2  O6  UNK     1      19.136   1.682  29.429  1.00  0.00    -0.284 OA
HETATM    3  C3  UNK     1      18.543   6.176  31.606  1.00  0.00     0.072 A 
HETATM    4  C4  UNK     1      18.721   3.487  30.898  1.00  0.00     0.051 A 
HETATM    5  C5  UNK     1      18.340   3.845  32.194  1.00  0.00     0.092 A 
HETATM    6  C6  UNK     1      18.250   5.190  32.549  1.00  0.00     0.075 A 
HETATM    7  C7  UNK     1      18.923   5.819  30.312  1.00  0.00     0.038 A 
HETATM    8  C10 UNK     1      19.013   4.473  29.953  1.00  0.00     0.021 A 
HETATM    9  C11 UNK     1      18.808   2.058  30.546  1.00  0.00     0.220 A 
HETATM   10  C12 UNK     1      18.476   1.104  31.627  1.00  0.00     0.149 A 
HETATM   11  C13 UNK     1      18.128   1.591  32.822  1.00  0.00     0.184 A 
ENDROOT
BRANCH   3  12
HETATM   12  O1  UNK     1      18.456   7.492  31.949  1.00  0.00    -0.336 OA
BRANCH  12  13
HETATM   13  C1  UNK     1      17.480   7.844  32.927  1.00  0.00     0.228 C 
BRANCH  13  14
HETATM   14  C2  UNK     1      18.083   8.869  33.888  1.00  0.00     0.038 C 
HETATM   15  C8  UNK     1      19.291   8.318  34.634  1.00  0.00     0.008 C 
ENDBRANCH  13  14
BRANCH  13  16
HETATM   16  C9  UNK     1      16.276   8.417  32.205  1.00  0.00     0.288 C 
HETATM   17  O5  UNK     1      16.214   8.598  30.995  1.00  0.00    -0.262 OA
BRANCH  16  18
HETATM   18  O3  UNK     1      15.297   8.719  33.108  1.00  0.00    -0.320 OA
BRANCH  18  19
HETATM   19  C14 UNK     1      14.523   7.609  33.574  1.00  0.00     0.174 C 
HETATM   20  C16 UNK     1      13.606   7.146  32.463  1.00  0.00     0.034 C 
ENDBRANCH  18  19
ENDBRANCH  16  18
ENDBRANCH  13  16
ENDBRANCH  12  13
ENDBRANCH   3  12
BRANCH  10  21
HETATM   21  O4  UNK     1      18.535  -0.248  31.380  1.00  0.00    -0.303 OA
BRANCH  21  22
HETATM   22  C15 UNK     1      19.167  -1.025  32.312  1.00  0.00     0.098 A 
HETATM   23  C17 UNK     1      20.219  -1.864  31.955  1.00  0.00     0.067 A 
HETATM   24 Cl1  UNK     1      20.769  -1.961  30.323  1.00  0.00    -0.081 Cl
HETATM   25  C19 UNK     1      20.844  -2.644  32.927  1.00  0.00     0.026 A 
HETATM   26  C21 UNK     1      20.416  -2.584  34.253  1.00  0.00     0.002 A 
HETATM   27  C20 UNK     1      19.361  -1.742  34.607  1.00  0.00     0.003 A 
HETATM   28  C18 UNK     1      18.735  -0.961  33.634  1.00  0.00     0.039 A 
ENDBRANCH  21  22
ENDBRANCH  10  21
TORSDOF 8
ENDMDL
MODEL 3
REMARK VINA RESULT:      -8.4     22.826     24.640
REMARK  8 active torsions:
REMARK  status: ('A' for Active; 'I' for Inactive)
REMARK    1  A    between atoms: C1_8  and  O1_2 
REMARK    2  A    between atoms: C3_10  and  O1_2 
REMARK    3  A    between atoms: C14_21  and  O3_4 
REMARK    4  A    between atoms: C9_16  and  O3_4 
REMARK    5  A    between atoms: C12_19  and  O4_5 
REMARK    6  A    between atoms: C15_22  and  O4_5 
REMARK    7  A    between atoms: C1_8  and  C2_9 
REMARK    8  A    between atoms: C1_8  and  C9_16 
ROOT
HETATM    1  O2  UNK     1      13.581   9.429   9.101  1.00  0.00    -0.319 OA
HETATM    2  O6  UNK     1      13.707   5.506  10.226  1.00  0.00    -0.284 OA
HETATM    3  C3  UNK     1      17.154   9.138   9.758  1.00  0.00     0.072 A 
HETATM    4  C4  UNK     1      14.888   7.519   9.849  1.00  0.00     0.051 A 
HETATM    5  C5  UNK     1      14.777   8.855   9.455  1.00  0.00     0.092 A 
HETATM    6  C6  UNK     1      15.911   9.666   9.409  1.00  0.00     0.075 A 
HETATM    7  C7  UNK     1      17.264   7.803  10.150  1.00  0.00     0.038 A 
HETATM    8  C10 UNK     1      16.132   6.989  10.198  1.00  0.00     0.021 A 
HETATM    9  C11 UNK     1      13.675   6.682   9.889  1.00  0.00     0.220 A 
HETATM   10  C12 UNK     1      12.414   7.350   9.499  1.00  0.00     0.149 A 
HETATM   11  C13 UNK     1      12.459   8.638   9.145  1.00  0.00     0.184 A 
ENDROOT
BRANCH   3  12
HETATM   12  O1  UNK     1      18.264   9.926   9.714  1.00  0.00    -0.336 OA
BRANCH  12  13
HETATM   13  C1  UNK     1      18.086  11.272   9.278  1.00  0.00     0.228 C 
BRANCH  13  14
HETATM   14  C2  UNK     1      18.507  12.221  10.401  1.00  0.00     0.038 C 
HETATM   15  C8  UNK     1      17.333  12.632  11.279  1.00  0.00     0.008 C 
ENDBRANCH  13  14
BRANCH  13  16
HETATM   16  C9  UNK     1      18.937  11.482   8.040  1.00  0.00     0.288 C 
HETATM   17  O5  UNK     1      20.130  11.211   7.964  1.00  0.00    -0.262 OA
BRANCH  16  18
HETATM   18  O3  UNK     1      18.180  12.036   7.048  1.00  0.00    -0.320 OA
BRANCH  18  19
HETATM   19  C14 UNK     1      18.668  13.270   6.514  1.00  0.00     0.174 C 
HETATM   20  C16 UNK     1      19.146  13.040   5.098  1.00  0.00     0.034 C 
ENDBRANCH  18  19
ENDBRANCH  16  18
ENDBRANCH  13  16
ENDBRANCH  12  13
ENDBRANCH   3  12
BRANCH  10  21
HETATM   21  O4  UNK     1      11.237   6.637   9.513  1.00  0.00    -0.303 OA
BRANCH  21  22
HETATM   22  C15 UNK     1      10.563   6.527   8.328  1.00  0.00     0.098 A 
HETATM   23  C17 UNK     1       9.201   6.808   8.247  1.00  0.00     0.067 A 
HETATM   24 Cl1  UNK     1       8.308   7.305   9.636  1.00  0.00    -0.081 Cl
HETATM   25  C19 UNK     1       8.540   6.687   7.024  1.00  0.00     0.026 A 
HETATM   26  C21 UNK     1       9.242   6.287   5.887  1.00  0.00     0.002 A 
HETATM   27  C20 UNK     1      10.606   6.006   5.973  1.00  0.00     0.003 A 
HETATM   28  C18 UNK     1      11.268   6.126   7.195  1.00  0.00     0.039 A 
ENDBRANCH  21  22
ENDBRANCH  10  21
TORSDOF 8
ENDMDL
MODEL 4
REMARK VINA RESULT:      -8.3      2.724      3.779
REMARK  8 active torsions:
REMARK  status: ('A' for Active; 'I' for Inactive)
REMARK    1  A    between atoms: C1_8  and  O1_2 
REMARK    2  A    between atoms: C3_10  and  O1_2 
REMARK    3  A    between atoms: C14_21  and  O3_4 
REMARK    4  A    between atoms: C9_16  and  O3_4 
REMARK    5  A    between atoms: C12_19  and  O4_5 
REMARK    6  A    between atoms: C15_22  and  O4_5 
REMARK    7  A    between atoms: C1_8  and  C2_9 
REMARK    8  A    between atoms: C1_8  and  C9_16 
ROOT
HETATM    1  O2  UNK     1      18.130   3.119  34.423  1.00  0.00    -0.319 OA
HETATM    2  O6  UNK     1      18.565   1.005  30.956  1.00  0.00    -0.284 OA
HETATM    3  C3  UNK     1      18.520   5.901  32.101  1.00  0.00     0.072 A 
HETATM    4  C4  UNK     1      18.466   3.117  32.014  1.00  0.00     0.051 A 
HETATM    5  C5  UNK     1      18.311   3.781  33.233  1.00  0.00     0.092 A 
HETATM    6  C6  UNK     1      18.338   5.174  33.278  1.00  0.00     0.075 A 
HETATM    7  C7  UNK     1      18.674   5.238  30.883  1.00  0.00     0.038 A 
HETATM    8  C10 UNK     1      18.648   3.844  30.835  1.00  0.00     0.021 A 
HETATM    9  C11 UNK     1      18.435   1.643  31.992  1.00  0.00     0.220 A 
HETATM   10  C12 UNK     1      18.237   0.980  33.300  1.00  0.00     0.149 A 
HETATM   11  C13 UNK     1      18.104   1.745  34.387  1.00  0.00     0.184 A 
ENDROOT
BRANCH   3  12
HETATM   12  O1  UNK     1      18.545   7.263  32.140  1.00  0.00    -0.336 OA
BRANCH  12  13
HETATM   13  C1  UNK     1      17.571   7.907  32.958  1.00  0.00     0.228 C 
BRANCH  13  14
HETATM   14  C2  UNK     1      18.229   9.074  33.694  1.00  0.00     0.038 C 
HETATM   15  C8  UNK     1      19.505   8.656  34.413  1.00  0.00     0.008 C 
ENDBRANCH  13  14
BRANCH  13  16
HETATM   16  C9  UNK     1      16.450   8.392  32.060  1.00  0.00     0.288 C 
HETATM   17  O5  UNK     1      16.480   8.366  30.835  1.00  0.00    -0.262 OA
BRANCH  16  18
HETATM   18  O3  UNK     1      15.426   8.879  32.822  1.00  0.00    -0.320 OA
BRANCH  18  19
HETATM   19  C14 UNK     1      14.633   7.896  33.493  1.00  0.00     0.174 C 
HETATM   20  C16 UNK     1      13.764   7.187  32.477  1.00  0.00     0.034 C 
ENDBRANCH  18  19
ENDBRANCH  16  18
ENDBRANCH  13  16
ENDBRANCH  12  13
ENDBRANCH   3  12
BRANCH  10  21
HETATM   21  O4  UNK     1      18.198  -0.393  33.365  1.00  0.00    -0.303 OA
BRANCH  21  22
HETATM   22  C15 UNK     1      18.417  -0.966  34.587  1.00  0.00     0.098 A 
HETATM   23  C17 UNK     1      17.391  -1.084  35.520  1.00  0.00     0.067 A 
HETATM   24 Cl1  UNK     1      15.800  -0.514  35.175  1.00  0.00    -0.081 Cl
HETATM   25  C19 UNK     1      17.644  -1.674  36.759  1.00  0.00     0.026 A 
HETATM   26  C21 UNK     1      18.922  -2.142  37.061  1.00  0.00     0.002 A 
HETATM   27  C20 UNK     1      19.949  -2.021  36.124  1.00  0.00     0.003 A 
HETATM   28  C18 UNK     1      19.696  -1.431  34.884  1.00  0.00     0.039 A 
ENDBRANCH  21  22
ENDBRANCH  10  21
TORSDOF 8
ENDMDL
MODEL 5
REMARK VINA RESULT:      -8.0      3.938      9.061
REMARK  8 active torsions:
REMARK  status: ('A' for Active; 'I' for Inactive)
REMARK    1  A    between atoms: C1_8  and  O1_2 
REMARK    2  A    between atoms: C3_10  and  O1_2 
REMARK    3  A    between atoms: C14_21  and  O3_4 
REMARK    4  A    between atoms: C9_16  and  O3_4 
REMARK    5  A    between atoms: C12_19  and  O4_5 
REMARK    6  A    between atoms: C15_22  and  O4_5 
REMARK    7  A    between atoms: C1_8  and  C2_9 
REMARK    8  A    between atoms: C1_8  and  C9_16 
ROOT
HETATM    1  O2  UNK     1      17.945   3.249  34.140  1.00  0.00    -0.319 OA
HETATM    2  O6  UNK     1      18.875   3.539  30.174  1.00  0.00    -0.284 OA
HETATM    3  C3  UNK     1      18.618  -0.267  33.451  1.00  0.00     0.072 A 
HETATM    4  C4  UNK     1      18.609   2.154  32.072  1.00  0.00     0.051 A 
HETATM    5  C5  UNK     1      18.281   2.122  33.429  1.00  0.00     0.092 A 
HETATM    6  C6  UNK     1      18.285   0.911  34.121  1.00  0.00     0.075 A 
HETATM    7  C7  UNK     1      18.946  -0.235  32.095  1.00  0.00     0.038 A 
HETATM    8  C10 UNK     1      18.943   0.975  31.400  1.00  0.00     0.021 A 
HETATM    9  C11 UNK     1      18.598   3.446  31.362  1.00  0.00     0.220 A 
HETATM   10  C12 UNK     1      18.228   4.627  32.174  1.00  0.00     0.149 A 
HETATM   11  C13 UNK     1      17.937   4.445  33.465  1.00  0.00     0.184 A 
ENDROOT
BRANCH   3  12
HETATM   12  O1  UNK     1      18.624  -1.452  34.123  1.00  0.00    -0.336 OA
BRANCH  12  13
HETATM   13  C1  UNK     1      19.080  -1.430  35.474  1.00  0.00     0.228 C 
BRANCH  13  14
HETATM   14  C2  UNK     1      17.946  -1.888  36.392  1.00  0.00     0.038 C 
HETATM   15  C8  UNK     1      17.942  -1.143  37.719  1.00  0.00     0.008 C 
ENDBRANCH  13  14
BRANCH  13  16
HETATM   16  C9  UNK     1      20.276  -2.355  35.581  1.00  0.00     0.288 C 
HETATM   17  O5  UNK     1      21.410  -2.070  35.214  1.00  0.00    -0.262 OA
BRANCH  16  18
HETATM   18  O3  UNK     1      19.889  -3.548  36.122  1.00  0.00    -0.320 OA
BRANCH  18  19
HETATM   19  C14 UNK     1      20.656  -3.995  37.244  1.00  0.00     0.174 C 
HETATM   20  C16 UNK     1      20.261  -5.418  37.576  1.00  0.00     0.034 C 
ENDBRANCH  18  19
ENDBRANCH  16  18
ENDBRANCH  13  16
ENDBRANCH  12  13
ENDBRANCH   3  12
BRANCH  10  21
HETATM   21  O4  UNK     1      18.193   5.870  31.585  1.00  0.00    -0.303 OA
BRANCH  21  22
HETATM   22  C15 UNK     1      18.391   6.951  32.400  1.00  0.00     0.098 A 
HETATM   23  C17 UNK     1      17.410   7.927  32.550  1.00  0.00     0.067 A 
HETATM   24 Cl1  UNK     1      15.905   7.816  31.714  1.00  0.00    -0.081 Cl
HETATM   25  C19 UNK     1      17.640   9.018  33.388  1.00  0.00     0.026 A 
HETATM   26  C21 UNK     1      18.849   9.129  34.074  1.00  0.00     0.002 A 
HETATM   27  C20 UNK     1      19.830   8.149  33.921  1.00  0.00     0.003 A 
HETATM   28  C18 UNK     1      19.600   7.057  33.082  1.00  0.00     0.039 A 
ENDBRANCH  21  22
ENDBRANCH  10  21
TORSDOF 8
ENDMDL
MODEL 6
REMARK VINA RESULT:      -8.0      7.365     10.757
REMARK  8 active torsions:
REMARK  status: ('A' for Active; 'I' for Inactive)
REMARK    1  A    between atoms: C1_8  and  O1_2 
REMARK    2  A    between atoms: C3_10  and  O1_2 
REMARK    3  A    between atoms: C14_21  and  O3_4 
REMARK    4  A    between atoms: C9_16  and  O3_4 
REMARK    5  A    between atoms: C12_19  and  O4_5 
REMARK    6  A    between atoms: C15_22  and  O4_5 
REMARK    7  A    between atoms: C1_8  and  C2_9 
REMARK    8  A    between atoms: C1_8  and  C9_16 
ROOT
HETATM    1  O2  UNK     1      20.242  -5.783  34.840  1.00  0.00    -0.319 OA
HETATM    2  O6  UNK     1      20.311  -5.927  38.921  1.00  0.00    -0.284 OA
HETATM    3  C3  UNK     1      19.841  -2.229  35.545  1.00  0.00     0.072 A 
HETATM    4  C4  UNK     1      20.134  -4.607  36.967  1.00  0.00     0.051 A 
HETATM    5  C5  UNK     1      20.118  -4.626  35.570  1.00  0.00     0.092 A 
HETATM    6  C6  UNK     1      19.972  -3.436  34.857  1.00  0.00     0.075 A 
HETATM    7  C7  UNK     1      19.858  -2.211  36.940  1.00  0.00     0.038 A 
HETATM    8  C10 UNK     1      20.004  -3.399  37.656  1.00  0.00     0.021 A 
HETATM    9  C11 UNK     1      20.291  -5.878  37.698  1.00  0.00     0.220 A 
HETATM   10  C12 UNK     1      20.419  -7.093  36.864  1.00  0.00     0.149 A 
HETATM   11  C13 UNK     1      20.385  -6.959  35.535  1.00  0.00     0.184 A 
ENDROOT
BRANCH   3  12
HETATM   12  O1  UNK     1      19.698  -1.065  34.853  1.00  0.00    -0.336 OA
BRANCH  12  13
HETATM   13  C1  UNK     1      18.499  -0.902  34.098  1.00  0.00     0.228 C 
BRANCH  13  14
HETATM   14  C2  UNK     1      17.665   0.218  34.721  1.00  0.00     0.038 C 
HETATM   15  C8  UNK     1      16.309  -0.275  35.207  1.00  0.00     0.008 C 
ENDBRANCH  13  14
BRANCH  13  16
HETATM   16  C9  UNK     1      18.884  -0.565  32.671  1.00  0.00     0.288 C 
HETATM   17  O5  UNK     1      18.948   0.572  32.219  1.00  0.00    -0.262 OA
BRANCH  16  18
HETATM   18  O3  UNK     1      19.120  -1.715  31.973  1.00  0.00    -0.320 OA
BRANCH  18  19
HETATM   19  C14 UNK     1      20.447  -1.864  31.458  1.00  0.00     0.174 C 
HETATM   20  C16 UNK     1      20.391  -1.873  29.946  1.00  0.00     0.034 C 
ENDBRANCH  18  19
ENDBRANCH  16  18
ENDBRANCH  13  16
ENDBRANCH  12  13
ENDBRANCH   3  12
BRANCH  10  21
HETATM   21  O4  UNK     1      20.567  -8.319  37.470  1.00  0.00    -0.303 OA
BRANCH  21  22
HETATM   22  C15 UNK     1      21.420  -9.208  36.877  1.00  0.00     0.098 A 
HETATM   23  C17 UNK     1      22.792  -9.150  37.107  1.00  0.00     0.067 A 
HETATM   24 Cl1  UNK     1      23.473  -7.955  38.147  1.00  0.00    -0.081 Cl
HETATM   25  C19 UNK     1      23.638 -10.071  36.489  1.00  0.00     0.026 A 
HETATM   26  C21 UNK     1      23.110 -11.047  35.644  1.00  0.00     0.002 A 
HETATM   27  C20 UNK     1      21.735 -11.102  35.416  1.00  0.00     0.003 A 
HETATM   28  C18 UNK     1      20.888 -10.180  36.034  1.00  0.00     0.039 A 
ENDBRANCH  21  22
ENDBRANCH  10  21
TORSDOF 8
ENDMDL
MODEL 7
REMARK VINA RESULT:      -8.0      5.293      7.361
REMARK  8 active torsions:
REMARK  status: ('A' for Active; 'I' for Inactive)
REMARK    1  A    between atoms: C1_8  and  O1_2 
REMARK    2  A    between atoms: C3_10  and  O1_2 
REMARK    3  A    between atoms: C14_21  and  O3_4 
REMARK    4  A    between atoms: C9_16  and  O3_4 
REMARK    5  A    between atoms: C12_19  and  O4_5 
REMARK    6  A    between atoms: C15_22  and  O4_5 
REMARK    7  A    between atoms: C1_8  and  C2_9 
REMARK    8  A    between atoms: C1_8  and  C9_16 
ROOT
HETATM    1  O2  UNK     1      19.843  -1.990  34.452  1.00  0.00    -0.319 OA
HETATM    2  O6  UNK     1      18.600  -1.730  38.333  1.00  0.00    -0.284 OA
HETATM    3  C3  UNK     1      17.715   0.956  34.174  1.00  0.00     0.072 A 
HETATM    4  C4  UNK     1      18.527  -0.840  36.143  1.00  0.00     0.051 A 
HETATM    5  C5  UNK     1      18.989  -0.985  34.833  1.00  0.00     0.092 A 
HETATM    6  C6  UNK     1      18.583  -0.086  33.847  1.00  0.00     0.075 A 
HETATM    7  C7  UNK     1      17.254   1.100  35.484  1.00  0.00     0.038 A 
HETATM    8  C10 UNK     1      17.658   0.203  36.473  1.00  0.00     0.021 A 
HETATM    9  C11 UNK     1      18.970  -1.803  37.169  1.00  0.00     0.220 A 
HETATM   10  C12 UNK     1      19.889  -2.866  36.705  1.00  0.00     0.149 A 
HETATM   11  C13 UNK     1      20.246  -2.881  35.417  1.00  0.00     0.184 A 
ENDROOT
BRANCH   3  12
HETATM   12  O1  UNK     1      17.316   1.836  33.214  1.00  0.00    -0.336 OA
BRANCH  12  13
HETATM   13  C1  UNK     1      18.333   2.611  32.583  1.00  0.00     0.228 C 
BRANCH  13  14
HETATM   14  C2  UNK     1      18.179   2.496  31.066  1.00  0.00     0.038 C 
HETATM   15  C8  UNK     1      19.146   1.486  30.463  1.00  0.00     0.008 C 
ENDBRANCH  13  14
BRANCH  13  16
HETATM   16  C9  UNK     1      18.180   4.049  33.039  1.00  0.00     0.288 C 
HETATM   17  O5  UNK     1      18.711   4.521  34.036  1.00  0.00    -0.262 OA
BRANCH  16  18
HETATM   18  O3  UNK     1      17.346   4.716  32.187  1.00  0.00    -0.320 OA
BRANCH  18  19
HETATM   19  C14 UNK     1      17.049   6.069  32.546  1.00  0.00     0.174 C 
HETATM   20  C16 UNK     1      17.672   6.998  31.528  1.00  0.00     0.034 C 
ENDBRANCH  18  19
ENDBRANCH  16  18
ENDBRANCH  13  16
ENDBRANCH  12  13
ENDBRANCH   3  12
BRANCH  10  21
HETATM   21  O4  UNK     1      20.347  -3.804  37.600  1.00  0.00    -0.303 OA
BRANCH  21  22
HETATM   22  C15 UNK     1      20.161  -5.119  37.274  1.00  0.00     0.098 A 
HETATM   23  C17 UNK     1      21.109  -6.083  37.606  1.00  0.00     0.067 A 
HETATM   24 Cl1  UNK     1      22.557  -5.660  38.442  1.00  0.00    -0.081 Cl
HETATM   25  C19 UNK     1      20.892  -7.417  37.261  1.00  0.00     0.026 A 
HETATM   26  C21 UNK     1      19.729  -7.783  36.585  1.00  0.00     0.002 A 
HETATM   27  C20 UNK     1      18.782  -6.814  36.253  1.00  0.00     0.003 A 
HETATM   28  C18 UNK     1      18.998  -5.480  36.598  1.00  0.00     0.039 A 
ENDBRANCH  21  22
ENDBRANCH  10  21
TORSDOF 8
ENDMDL
MODEL 8
REMARK VINA RESULT:      -8.0     14.831     16.600
REMARK  8 active torsions:
REMARK  status: ('A' for Active; 'I' for Inactive)
REMARK    1  A    between atoms: C1_8  and  O1_2 
REMARK    2  A    between atoms: C3_10  and  O1_2 
REMARK    3  A    between atoms: C14_21  and  O3_4 
REMARK    4  A    between atoms: C9_16  and  O3_4 
REMARK    5  A    between atoms: C12_19  and  O4_5 
REMARK    6  A    between atoms: C15_22  and  O4_5 
REMARK    7  A    between atoms: C1_8  and  C2_9 
REMARK    8  A    between atoms: C1_8  and  C9_16 
ROOT
HETATM    1  O2  UNK     1      27.998  -6.076  33.408  1.00  0.00    -0.319 OA
HETATM    2  O6  UNK     1      28.800  -9.786  31.902  1.00  0.00    -0.284 OA
HETATM    3  C3  UNK     1      28.728  -7.813  36.528  1.00  0.00     0.072 A 
HETATM    4  C4  UNK     1      28.623  -8.392  33.804  1.00  0.00     0.051 A 
HETATM    5  C5  UNK     1      28.337  -7.101  34.255  1.00  0.00     0.092 A 
HETATM    6  C6  UNK     1      28.389  -6.811  35.618  1.00  0.00     0.075 A 
HETATM    7  C7  UNK     1      29.014  -9.102  36.077  1.00  0.00     0.038 A 
HETATM    8  C10 UNK     1      28.963  -9.397  34.714  1.00  0.00     0.021 A 
HETATM    9  C11 UNK     1      28.561  -8.675  32.359  1.00  0.00     0.220 A 
HETATM   10  C12 UNK     1      28.191  -7.536  31.491  1.00  0.00     0.149 A 
HETATM   11  C13 UNK     1      27.943  -6.354  32.064  1.00  0.00     0.184 A 
ENDROOT
BRANCH   3  12
HETATM   12  O1  UNK     1      28.780  -7.533  37.860  1.00  0.00    -0.336 OA
BRANCH  12  13
HETATM   13  C1  UNK     1      27.540  -7.294  38.522  1.00  0.00     0.228 C 
BRANCH  13  14
HETATM   14  C2  UNK     1      27.428  -8.230  39.726  1.00  0.00     0.038 C 
HETATM   15  C8  UNK     1      26.989  -9.633  39.327  1.00  0.00     0.008 C 
ENDBRANCH  13  14
BRANCH  13  16
HETATM   16  C9  UNK     1      27.511  -5.842  38.956  1.00  0.00     0.288 C 
HETATM   17  O5  UNK     1      26.522  -5.121  38.903  1.00  0.00    -0.262 OA
BRANCH  16  18
HETATM   18  O3  UNK     1      28.751  -5.464  39.386  1.00  0.00    -0.320 OA
BRANCH  18  19
HETATM   19  C14 UNK     1      29.162  -4.147  39.008  1.00  0.00     0.174 C 
HETATM   20  C16 UNK     1      30.075  -4.241  37.805  1.00  0.00     0.034 C 
ENDBRANCH  18  19
ENDBRANCH  16  18
ENDBRANCH  13  16
ENDBRANCH  12  13
ENDBRANCH   3  12
BRANCH  10  21
HETATM   21  O4  UNK     1      28.109  -7.719  30.130  1.00  0.00    -0.303 OA
BRANCH  21  22
HETATM   22  C15 UNK     1      29.278  -7.971  29.465  1.00  0.00     0.098 A 
HETATM   23  C17 UNK     1      29.417  -9.097  28.658  1.00  0.00     0.067 A 
HETATM   24 Cl1  UNK     1      28.124 -10.221  28.464  1.00  0.00    -0.081 Cl
HETATM   25  C19 UNK     1      30.620  -9.328  27.991  1.00  0.00     0.026 A 
HETATM   26  C21 UNK     1      31.680  -8.433  28.133  1.00  0.00     0.002 A 
HETATM   27  C20 UNK     1      31.537  -7.306  28.943  1.00  0.00     0.003 A 
HETATM   28  C18 UNK     1      30.334  -7.074  29.610  1.00  0.00     0.039 A 
ENDBRANCH  21  22
ENDBRANCH  10  21
TORSDOF 8
ENDMDL
MODEL 9
REMARK VINA RESULT:      -7.9     22.599     24.970
REMARK  8 active torsions:
REMARK  status: ('A' for Active; 'I' for Inactive)
REMARK    1  A    between atoms: C1_8  and  O1_2 
REMARK    2  A    between atoms: C3_10  and  O1_2 
REMARK    3  A    between atoms: C14_21  and  O3_4 
REMARK    4  A    between atoms: C9_16  and  O3_4 
REMARK    5  A    between atoms: C12_19  and  O4_5 
REMARK    6  A    between atoms: C15_22  and  O4_5 
REMARK    7  A    between atoms: C1_8  and  C2_9 
REMARK    8  A    between atoms: C1_8  and  C9_16 
ROOT
HETATM    1  O2  UNK     1       9.692   4.621  10.338  1.00  0.00    -0.319 OA
HETATM    2  O6  UNK     1       7.533   6.604   7.495  1.00  0.00    -0.284 OA
HETATM    3  C3  UNK     1      12.407   5.508   8.073  1.00  0.00     0.072 A 
HETATM    4  C4  UNK     1       9.646   5.845   8.237  1.00  0.00     0.051 A 
HETATM    5  C5  UNK     1      10.326   5.156   9.244  1.00  0.00     0.092 A 
HETATM    6  C6  UNK     1      11.708   4.987   9.163  1.00  0.00     0.075 A 
HETATM    7  C7  UNK     1      11.727   6.197   7.068  1.00  0.00     0.038 A 
HETATM    8  C10 UNK     1      10.345   6.368   7.146  1.00  0.00     0.021 A 
HETATM    9  C11 UNK     1       8.185   6.011   8.345  1.00  0.00     0.220 A 
HETATM   10  C12 UNK     1       7.552   5.415   9.542  1.00  0.00     0.149 A 
HETATM   11  C13 UNK     1       8.331   4.782  10.424  1.00  0.00     0.184 A 
ENDROOT
BRANCH   3  12
HETATM   12  O1  UNK     1      13.757   5.346   7.991  1.00  0.00    -0.336 OA
BRANCH  12  13
HETATM   13  C1  UNK     1      14.569   6.355   8.587  1.00  0.00     0.228 C 
BRANCH  13  14
HETATM   14  C2  UNK     1      13.667   7.386   9.266  1.00  0.00     0.038 C 
HETATM   15  C8  UNK     1      13.805   8.771   8.647  1.00  0.00     0.008 C 
ENDBRANCH  13  14
BRANCH  13  16
HETATM   16  C9  UNK     1      15.487   5.688   9.592  1.00  0.00     0.288 C 
HETATM   17  O5  UNK     1      15.712   4.484   9.635  1.00  0.00    -0.262 OA
BRANCH  16  18
HETATM   18  O3  UNK     1      15.994   6.625  10.447  1.00  0.00    -0.320 OA
BRANCH  18  19
HETATM   19  C14 UNK     1      17.259   7.180  10.074  1.00  0.00     0.174 C 
HETATM   20  C16 UNK     1      17.146   8.689  10.046  1.00  0.00     0.034 C 
ENDBRANCH  18  19
ENDBRANCH  16  18
ENDBRANCH  13  16
ENDBRANCH  12  13
ENDBRANCH   3  12
BRANCH  10  21
HETATM   21  O4  UNK     1       6.192   5.525   9.715  1.00  0.00    -0.303 OA
BRANCH  21  22
HETATM   22  C15 UNK     1       5.753   6.451  10.621  1.00  0.00     0.098 A 
HETATM   23  C17 UNK     1       5.266   6.064  11.867  1.00  0.00     0.067 A 
HETATM   24 Cl1  UNK     1       5.195   4.402  12.320  1.00  0.00    -0.081 Cl
HETATM   25  C19 UNK     1       4.825   7.031  12.770  1.00  0.00     0.026 A 
HETATM   26  C21 UNK     1       4.873   8.382  12.426  1.00  0.00     0.002 A 
HETATM   27  C20 UNK     1       5.361   8.766  11.177  1.00  0.00     0.003 A 
HETATM   28  C18 UNK     1       5.802   7.799  10.272  1.00  0.00     0.039 A 
ENDBRANCH  21  22
ENDBRANCH  10  21
TORSDOF 8
ENDMDL
MODEL 10
REMARK VINA RESULT:      -7.9     22.540     24.680
REMARK  8 active torsions:
REMARK  status: ('A' for Active; 'I' for Inactive)
REMARK    1  A    between atoms: C1_8  and  O1_2 
REMARK    2  A    between atoms: C3_10  and  O1_2 
REMARK    3  A    between atoms: C14_21  and  O3_4 
REMARK    4  A    between atoms: C9_16  and  O3_4 
REMARK    5  A    between atoms: C12_19  and  O4_5 
REMARK    6  A    between atoms: C15_22  and  O4_5 
REMARK    7  A    between atoms: C1_8  and  C2_9 
REMARK    8  A    between atoms: C1_8  and  C9_16 
ROOT
HETATM    1  O2  UNK     1      10.072   4.497  10.249  1.00  0.00    -0.319 OA
HETATM    2  O6  UNK     1       7.681   6.456   7.581  1.00  0.00    -0.284 OA
HETATM    3  C3  UNK     1      12.632   5.647   7.924  1.00  0.00     0.072 A 
HETATM    4  C4  UNK     1       9.865   5.802   8.207  1.00  0.00     0.051 A 
HETATM    5  C5  UNK     1      10.627   5.116   9.156  1.00  0.00     0.092 A 
HETATM    6  C6  UNK     1      12.012   5.038   9.015  1.00  0.00     0.075 A 
HETATM    7  C7  UNK     1      11.871   6.333   6.976  1.00  0.00     0.038 A 
HETATM    8  C10 UNK     1      10.485   6.413   7.114  1.00  0.00     0.021 A 
HETATM    9  C11 UNK     1       8.402   5.871   8.378  1.00  0.00     0.220 A 
HETATM   10  C12 UNK     1       7.857   5.187   9.572  1.00  0.00     0.149 A 
HETATM   11  C13 UNK     1       8.708   4.568  10.395  1.00  0.00     0.184 A 
ENDROOT
BRANCH   3  12
HETATM   12  O1  UNK     1      13.985   5.574   7.782  1.00  0.00    -0.336 OA
BRANCH  12  13
HETATM   13  C1  UNK     1      14.766   6.514   8.517  1.00  0.00     0.228 C 
BRANCH  13  14
HETATM   14  C2  UNK     1      13.833   7.530   9.177  1.00  0.00     0.038 C 
HETATM   15  C8  UNK     1      13.994   8.926   8.590  1.00  0.00     0.008 C 
ENDBRANCH  13  14
BRANCH  13  16
HETATM   16  C9  UNK     1      15.564   5.752   9.557  1.00  0.00     0.288 C 
HETATM   17  O5  UNK     1      15.670   4.532   9.594  1.00  0.00    -0.262 OA
BRANCH  16  18
HETATM   18  O3  UNK     1      16.115   6.628  10.448  1.00  0.00    -0.320 OA
BRANCH  18  19
HETATM   19  C14 UNK     1      17.345   7.234  10.038  1.00  0.00     0.174 C 
HETATM   20  C16 UNK     1      17.228   8.735  10.187  1.00  0.00     0.034 C 
ENDBRANCH  18  19
ENDBRANCH  16  18
ENDBRANCH  13  16
ENDBRANCH  12  13
ENDBRANCH   3  12
BRANCH  10  21
HETATM   21  O4  UNK     1       6.501   5.204   9.802  1.00  0.00    -0.303 OA
BRANCH  21  22
HETATM   22  C15 UNK     1       6.018   4.337  10.744  1.00  0.00     0.098 A 
HETATM   23  C17 UNK     1       5.748   4.764  12.041  1.00  0.00     0.067 A 
HETATM   24 Cl1  UNK     1       6.012   6.401  12.516  1.00  0.00    -0.081 Cl
HETATM   25  C19 UNK     1       5.256   3.858  12.980  1.00  0.00     0.026 A 
HETATM   26  C21 UNK     1       5.035   2.529  12.620  1.00  0.00     0.002 A 
HETATM   27  C20 UNK     1       5.307   2.105  11.319  1.00  0.00     0.003 A 
HETATM   28  C18 UNK     1       5.800   3.011  10.379  1.00  0.00     0.039 A 
ENDBRANCH  21  22
ENDBRANCH  10  21
TORSDOF 8
ENDMDL
