MODEL 1
REMARK VINA RESULT:     -10.1      0.000      0.000
REMARK  6 active torsions:
REMARK  status: ('A' for Active; 'I' for Inactive)
REMARK    1  A    between atoms: C11_20  and  O2_5 
REMARK    2  A    between atoms: C22_31  and  O2_5 
REMARK    3  A    between atoms: C3_12  and  N1_9 
REMARK       I    between atoms: C8_17  and  N1_9 
REMARK    4  A    between atoms: C1_10  and  C4_13 
REMARK    5  A    between atoms: C11_20  and  C2_11 
REMARK    6  A    between atoms: C6_15  and  C8_17 
ROOT
HETATM    1  S1  UNK     1      17.877  -0.511  36.952  1.00  0.00    -0.082 SA
HETATM    2  C1  UNK     1      19.324  -2.605  36.604  1.00  0.00    -0.000 A 
HETATM    3  C2  UNK     1      19.614  -1.737  35.512  1.00  0.00     0.085 A 
HETATM    4  C3  UNK     1      18.896  -0.587  35.596  1.00  0.00     0.094 A 
HETATM    5  C5  UNK     1      18.394  -2.061  37.463  1.00  0.00     0.065 A 
ENDROOT
BRANCH   4   6
HETATM    6  N1  UNK     1      18.868   0.529  34.752  1.00  0.00    -0.316 N 
HETATM    7  C8  UNK     1      17.739   1.080  34.163  1.00  0.00     0.262 C 
HETATM    8  O3  UNK     1      16.568   0.715  34.258  1.00  0.00    -0.267 OA
HETATM    9  H2  UNK     1      19.781   0.932  34.562  1.00  0.00     0.169 HD
BRANCH   7  10
HETATM   10  C6  UNK     1      18.068   2.246  33.335  1.00  0.00     0.108 A 
HETATM   11  C14 UNK     1      18.420   2.117  31.902  1.00  0.00     0.304 A 
HETATM   12  O1  UNK     1      18.714   3.296  31.222  1.00  0.00    -0.274 OA
HETATM   13  O5  UNK     1      18.455   1.028  31.339  1.00  0.00    -0.259 OA
HETATM   14  C10 UNK     1      18.677   4.550  31.860  1.00  0.00     0.089 A 
HETATM   15  C7  UNK     1      18.343   4.649  33.207  1.00  0.00     0.001 A 
HETATM   16  C16 UNK     1      18.986   5.674  31.096  1.00  0.00     0.040 A 
HETATM   17  C15 UNK     1      18.318   5.912  33.804  1.00  0.00     0.038 A 
HETATM   18  C9  UNK     1      18.032   3.435  33.945  1.00  0.00     0.037 A 
HETATM   19  C19 UNK     1      18.625   7.049  33.051  1.00  0.00     0.035 A 
HETATM   20 Cl1  UNK     1      18.594   8.603  33.791  1.00  0.00    -0.084 Cl
HETATM   21  C21 UNK     1      18.958   6.930  31.699  1.00  0.00     0.026 A 
ENDBRANCH   7  10
ENDBRANCH   4   6
BRANCH   3  22
HETATM   22  C11 UNK     1      20.543  -2.014  34.443  1.00  0.00     0.297 C 
HETATM   23  O4  UNK     1      21.758  -2.186  34.611  1.00  0.00    -0.259 OA
BRANCH  22  24
HETATM   24  O2  UNK     1      19.958  -2.074  33.197  1.00  0.00    -0.318 OA
BRANCH  24  25
HETATM   25  C22 UNK     1      20.816  -2.387  32.094  1.00  0.00     0.174 C 
HETATM   26  C23 UNK     1      20.140  -1.965  30.808  1.00  0.00     0.034 C 
ENDBRANCH  24  25
ENDBRANCH  22  24
ENDBRANCH   3  22
BRANCH   2  27
HETATM   27  C4  UNK     1      19.880  -3.907  36.865  1.00  0.00    -0.024 A 
HETATM   28  C12 UNK     1      21.017  -4.028  37.660  1.00  0.00     0.014 A 
HETATM   29  C17 UNK     1      21.556  -5.290  37.912  1.00  0.00     0.024 A 
HETATM   30  C20 UNK     1      20.957  -6.426  37.368  1.00  0.00     0.034 A 
HETATM   31  C18 UNK     1      19.818  -6.301  36.574  1.00  0.00     0.024 A 
HETATM   32 Cl2  UNK     1      21.622  -7.982  37.679  1.00  0.00    -0.084 Cl
HETATM   33  C13 UNK     1      19.278  -5.039  36.321  1.00  0.00     0.014 A 
ENDBRANCH   2  27
TORSDOF 6
ENDMDL
MODEL 2
REMARK VINA RESULT:      -9.2      7.214     10.577
REMARK  6 active torsions:
REMARK  status: ('A' for Active; 'I' for Inactive)
REMARK    1  A    between atoms: C11_20  and  O2_5 
REMARK    2  A    between atoms: C22_31  and  O2_5 
REMARK    3  A    between atoms: C3_12  and  N1_9 
REMARK       I    between atoms: C8_17  and  N1_9 
REMARK    4  A    between atoms: C1_10  and  C4_13 
REMARK    5  A    between atoms: C11_20  and  C2_11 
REMARK    6  A    between atoms: C6_15  and  C8_17 
ROOT
HETATM    1  S1  UNK     1      19.580   8.265  34.193  1.00  0.00    -0.082 SA
HETATM    2  C1  UNK     1      18.696   6.523  32.525  1.00  0.00    -0.000 A 
HETATM    3  C2  UNK     1      17.754   7.591  32.517  1.00  0.00     0.085 A 
HETATM    4  C3  UNK     1      18.125   8.578  33.373  1.00  0.00     0.094 A 
HETATM    5  C5  UNK     1      19.739   6.760  33.393  1.00  0.00     0.065 A 
ENDROOT
BRANCH   4   6
HETATM    6  N1  UNK     1      17.506   9.795  33.679  1.00  0.00    -0.316 N 
HETATM    7  C8  UNK     1      16.503   9.989  34.617  1.00  0.00     0.262 C 
HETATM    8  O3  UNK     1      15.967   9.159  35.351  1.00  0.00    -0.267 OA
HETATM    9  H2  UNK     1      17.837  10.582  33.127  1.00  0.00     0.169 HD
BRANCH   7  10
HETATM   10  C6  UNK     1      16.079  11.392  34.682  1.00  0.00     0.108 A 
HETATM   11  C14 UNK     1      17.053  12.506  34.718  1.00  0.00     0.304 A 
HETATM   12  O1  UNK     1      16.528  13.794  34.780  1.00  0.00    -0.274 OA
HETATM   13  O5  UNK     1      18.263  12.310  34.695  1.00  0.00    -0.259 OA
HETATM   14  C10 UNK     1      15.140  14.031  34.807  1.00  0.00     0.089 A 
HETATM   15  C7  UNK     1      14.242  12.969  34.773  1.00  0.00     0.001 A 
HETATM   16  C16 UNK     1      14.710  15.355  34.869  1.00  0.00     0.040 A 
HETATM   17  C15 UNK     1      12.872  13.245  34.802  1.00  0.00     0.038 A 
HETATM   18  C9  UNK     1      14.759  11.612  34.708  1.00  0.00     0.037 A 
HETATM   19  C19 UNK     1      12.425  14.568  34.864  1.00  0.00     0.035 A 
HETATM   20 Cl1  UNK     1      10.737  14.902  34.899  1.00  0.00    -0.084 Cl
HETATM   21  C21 UNK     1      13.343  15.621  34.897  1.00  0.00     0.026 A 
ENDBRANCH   7  10
ENDBRANCH   4   6
BRANCH   3  22
HETATM   22  C11 UNK     1      16.554   7.647  31.718  1.00  0.00     0.297 C 
HETATM   23  O4  UNK     1      16.360   8.479  30.820  1.00  0.00    -0.259 OA
BRANCH  22  24
HETATM   24  O2  UNK     1      15.625   6.682  32.038  1.00  0.00    -0.318 OA
BRANCH  24  25
HETATM   25  C22 UNK     1      14.252   7.089  32.062  1.00  0.00     0.174 C 
HETATM   26  C23 UNK     1      13.868   7.454  33.479  1.00  0.00     0.034 C 
ENDBRANCH  24  25
ENDBRANCH  22  24
ENDBRANCH   3  22
BRANCH   2  27
HETATM   27  C4  UNK     1      18.653   5.305  31.757  1.00  0.00    -0.024 A 
HETATM   28  C12 UNK     1      18.215   4.125  32.354  1.00  0.00     0.014 A 
HETATM   29  C17 UNK     1      18.175   2.945  31.611  1.00  0.00     0.024 A 
HETATM   30  C20 UNK     1      18.572   2.949  30.274  1.00  0.00     0.034 A 
HETATM   31  C18 UNK     1      19.008   4.132  29.680  1.00  0.00     0.024 A 
HETATM   32 Cl2  UNK     1      18.522   1.493  29.358  1.00  0.00    -0.084 Cl
HETATM   33  C13 UNK     1      19.049   5.313  30.422  1.00  0.00     0.014 A 
ENDBRANCH   2  27
TORSDOF 6
ENDMDL
MODEL 3
REMARK VINA RESULT:      -9.1      3.889      5.543
REMARK  6 active torsions:
REMARK  status: ('A' for Active; 'I' for Inactive)
REMARK    1  A    between atoms: C11_20  and  O2_5 
REMARK    2  A    between atoms: C22_31  and  O2_5 
REMARK    3  A    between atoms: C3_12  and  N1_9 
REMARK       I    between atoms: C8_17  and  N1_9 
REMARK    4  A    between atoms: C1_10  and  C4_13 
REMARK    5  A    between atoms: C11_20  and  C2_11 
REMARK    6  A    between atoms: C6_15  and  C8_17 
ROOT
HETATM    1  S1  UNK     1      20.162  -3.580  37.084  1.00  0.00    -0.082 SA
HETATM    2  C1  UNK     1      19.973  -6.120  37.420  1.00  0.00    -0.000 A 
HETATM    3  C2  UNK     1      19.971  -5.906  36.012  1.00  0.00     0.085 A 
HETATM    4  C3  UNK     1      20.067  -4.584  35.717  1.00  0.00     0.094 A 
HETATM    5  C5  UNK     1      20.071  -4.939  38.123  1.00  0.00     0.065 A 
ENDROOT
BRANCH   4   6
HETATM    6  N1  UNK     1      20.102  -3.930  34.481  1.00  0.00    -0.316 N 
HETATM    7  C8  UNK     1      20.758  -2.739  34.204  1.00  0.00     0.262 C 
HETATM    8  O3  UNK     1      21.422  -2.034  34.962  1.00  0.00    -0.267 OA
HETATM    9  H2  UNK     1      19.569  -4.392  33.749  1.00  0.00     0.169 HD
BRANCH   7  10
HETATM   10  C6  UNK     1      20.587  -2.334  32.804  1.00  0.00     0.108 A 
HETATM   11  C14 UNK     1      21.014  -3.197  31.679  1.00  0.00     0.304 A 
HETATM   12  O1  UNK     1      20.800  -2.702  30.395  1.00  0.00    -0.274 OA
HETATM   13  O5  UNK     1      21.531  -4.293  31.863  1.00  0.00    -0.259 OA
HETATM   14  C10 UNK     1      20.208  -1.444  30.173  1.00  0.00     0.089 A 
HETATM   15  C7  UNK     1      19.815  -0.648  31.245  1.00  0.00     0.001 A 
HETATM   16  C16 UNK     1      20.034  -1.034  28.852  1.00  0.00     0.040 A 
HETATM   17  C15 UNK     1      19.231   0.594  30.983  1.00  0.00     0.038 A 
HETATM   18  C9  UNK     1      20.025  -1.138  32.598  1.00  0.00     0.037 A 
HETATM   19  C19 UNK     1      19.050   1.019  29.664  1.00  0.00     0.035 A 
HETATM   20 Cl1  UNK     1      18.330   2.549  29.346  1.00  0.00    -0.084 Cl
HETATM   21  C21 UNK     1      19.451   0.205  28.600  1.00  0.00     0.026 A 
ENDBRANCH   7  10
ENDBRANCH   4   6
BRANCH   3  22
HETATM   22  C11 UNK     1      19.879  -6.937  35.007  1.00  0.00     0.297 C 
HETATM   23  O4  UNK     1      18.819  -7.281  34.465  1.00  0.00    -0.259 OA
BRANCH  22  24
HETATM   24  O2  UNK     1      21.087  -7.518  34.691  1.00  0.00    -0.318 OA
BRANCH  24  25
HETATM   25  C22 UNK     1      21.222  -8.918  34.960  1.00  0.00     0.174 C 
HETATM   26  C23 UNK     1      22.239  -9.114  36.064  1.00  0.00     0.034 C 
ENDBRANCH  24  25
ENDBRANCH  22  24
ENDBRANCH   3  22
BRANCH   2  27
HETATM   27  C4  UNK     1      19.886  -7.376  38.121  1.00  0.00    -0.024 A 
HETATM   28  C12 UNK     1      20.806  -7.675  39.123  1.00  0.00     0.014 A 
HETATM   29  C17 UNK     1      20.722  -8.892  39.800  1.00  0.00     0.024 A 
HETATM   30  C20 UNK     1      19.720  -9.805  39.473  1.00  0.00     0.034 A 
HETATM   31  C18 UNK     1      18.801  -9.501  38.470  1.00  0.00     0.024 A 
HETATM   32 Cl2  UNK     1      19.618 -11.306  40.308  1.00  0.00    -0.084 Cl
HETATM   33  C13 UNK     1      18.883  -8.285  37.792  1.00  0.00     0.014 A 
ENDBRANCH   2  27
TORSDOF 6
ENDMDL
MODEL 4
REMARK VINA RESULT:      -8.9      2.652     10.097
REMARK  6 active torsions:
REMARK  status: ('A' for Active; 'I' for Inactive)
REMARK    1  A    between atoms: C11_20  and  O2_5 
REMARK    2  A    between atoms: C22_31  and  O2_5 
REMARK    3  A    between atoms: C3_12  and  N1_9 
REMARK       I    between atoms: C8_17  and  N1_9 
REMARK    4  A    between atoms: C1_10  and  C4_13 
REMARK    5  A    between atoms: C11_20  and  C2_11 
REMARK    6  A    between atoms: C6_15  and  C8_17 
ROOT
HETATM    1  S1  UNK     1      17.861  -1.845  37.957  1.00  0.00    -0.082 SA
HETATM    2  C1  UNK     1      18.429  -0.180  36.086  1.00  0.00    -0.000 A 
HETATM    3  C2  UNK     1      18.894  -1.450  35.639  1.00  0.00     0.085 A 
HETATM    4  C3  UNK     1      18.643  -2.416  36.561  1.00  0.00     0.094 A 
HETATM    5  C5  UNK     1      17.847  -0.251  37.332  1.00  0.00     0.065 A 
ENDROOT
BRANCH   4   6
HETATM    6  N1  UNK     1      18.923  -3.786  36.539  1.00  0.00    -0.316 N 
HETATM    7  C8  UNK     1      20.125  -4.381  36.897  1.00  0.00     0.262 C 
HETATM    8  O3  UNK     1      21.158  -3.845  37.295  1.00  0.00    -0.267 OA
HETATM    9  H2  UNK     1      18.157  -4.364  36.206  1.00  0.00     0.169 HD
BRANCH   7  10
HETATM   10  C6  UNK     1      20.076  -5.841  36.754  1.00  0.00     0.108 A 
HETATM   11  C14 UNK     1      20.237  -6.506  35.441  1.00  0.00     0.304 A 
HETATM   12  O1  UNK     1      20.170  -7.897  35.434  1.00  0.00    -0.274 OA
HETATM   13  O5  UNK     1      20.417  -5.870  34.409  1.00  0.00    -0.259 OA
HETATM   14  C10 UNK     1      19.964  -8.638  36.613  1.00  0.00     0.089 A 
HETATM   15  C7  UNK     1      19.815  -7.992  37.837  1.00  0.00     0.001 A 
HETATM   16  C16 UNK     1      19.913 -10.027  36.506  1.00  0.00     0.040 A 
HETATM   17  C15 UNK     1      19.612  -8.762  38.985  1.00  0.00     0.038 A 
HETATM   18  C9  UNK     1      19.879  -6.539  37.877  1.00  0.00     0.037 A 
HETATM   19  C19 UNK     1      19.559 -10.156  38.893  1.00  0.00     0.035 A 
HETATM   20 Cl1  UNK     1      19.307 -11.100  40.310  1.00  0.00    -0.084 Cl
HETATM   21  C21 UNK     1      19.710 -10.786  37.655  1.00  0.00     0.026 A 
ENDBRANCH   7  10
ENDBRANCH   4   6
BRANCH   3  22
HETATM   22  C11 UNK     1      19.548  -1.709  34.380  1.00  0.00     0.297 C 
HETATM   23  O4  UNK     1      20.699  -2.160  34.279  1.00  0.00    -0.259 OA
BRANCH  22  24
HETATM   24  O2  UNK     1      18.778  -1.409  33.279  1.00  0.00    -0.318 OA
BRANCH  24  25
HETATM   25  C22 UNK     1      19.401  -1.546  31.996  1.00  0.00     0.174 C 
HETATM   26  C23 UNK     1      19.479  -0.186  31.338  1.00  0.00     0.034 C 
ENDBRANCH  24  25
ENDBRANCH  22  24
ENDBRANCH   3  22
BRANCH   2  27
HETATM   27  C4  UNK     1      18.511   1.081  35.395  1.00  0.00    -0.024 A 
HETATM   28  C12 UNK     1      19.261   2.121  35.938  1.00  0.00     0.014 A 
HETATM   29  C17 UNK     1      19.339   3.343  35.269  1.00  0.00     0.024 A 
HETATM   30  C20 UNK     1      18.668   3.520  34.059  1.00  0.00     0.034 A 
HETATM   31  C18 UNK     1      17.919   2.476  33.518  1.00  0.00     0.024 A 
HETATM   32 Cl2  UNK     1      18.765   5.028  33.235  1.00  0.00    -0.084 Cl
HETATM   33  C13 UNK     1      17.840   1.254  34.187  1.00  0.00     0.014 A 
ENDBRANCH   2  27
TORSDOF 6
ENDMDL
MODEL 5
REMARK VINA RESULT:      -8.8      3.458      9.871
REMARK  6 active torsions:
REMARK  status: ('A' for Active; 'I' for Inactive)
REMARK    1  A    between atoms: C11_20  and  O2_5 
REMARK    2  A    between atoms: C22_31  and  O2_5 
REMARK    3  A    between atoms: C3_12  and  N1_9 
REMARK       I    between atoms: C8_17  and  N1_9 
REMARK    4  A    between atoms: C1_10  and  C4_13 
REMARK    5  A    between atoms: C11_20  and  C2_11 
REMARK    6  A    between atoms: C6_15  and  C8_17 
ROOT
HETATM    1  S1  UNK     1      19.051   5.110  29.527  1.00  0.00    -0.082 SA
HETATM    2  C1  UNK     1      18.121   6.373  31.561  1.00  0.00    -0.000 A 
HETATM    3  C2  UNK     1      18.334   5.032  31.992  1.00  0.00     0.085 A 
HETATM    4  C3  UNK     1      18.830   4.267  30.985  1.00  0.00     0.094 A 
HETATM    5  C5  UNK     1      18.469   6.554  30.240  1.00  0.00     0.065 A 
ENDROOT
BRANCH   4   6
HETATM    6  N1  UNK     1      19.183   2.914  30.963  1.00  0.00    -0.316 N 
HETATM    7  C8  UNK     1      18.543   1.913  30.245  1.00  0.00     0.262 C 
HETATM    8  O3  UNK     1      17.565   2.006  29.505  1.00  0.00    -0.267 OA
HETATM    9  H2  UNK     1      19.974   2.679  31.555  1.00  0.00     0.169 HD
BRANCH   7  10
HETATM   10  C6  UNK     1      19.173   0.604  30.451  1.00  0.00     0.108 A 
HETATM   11  C14 UNK     1      19.786  -0.156  29.338  1.00  0.00     0.304 A 
HETATM   12  O1  UNK     1      20.351  -1.387  29.658  1.00  0.00    -0.274 OA
HETATM   13  O5  UNK     1      19.796   0.272  28.189  1.00  0.00    -0.259 OA
HETATM   14  C10 UNK     1      20.345  -1.888  30.974  1.00  0.00     0.089 A 
HETATM   15  C7  UNK     1      19.763  -1.157  32.006  1.00  0.00     0.001 A 
HETATM   16  C16 UNK     1      20.937  -3.130  31.197  1.00  0.00     0.040 A 
HETATM   17  C15 UNK     1      19.776  -1.688  33.298  1.00  0.00     0.038 A 
HETATM   18  C9  UNK     1      19.163   0.132  31.703  1.00  0.00     0.037 A 
HETATM   19  C19 UNK     1      20.366  -2.933  33.538  1.00  0.00     0.035 A 
HETATM   20 Cl1  UNK     1      20.379  -3.583  35.131  1.00  0.00    -0.084 Cl
HETATM   21  C21 UNK     1      20.945  -3.652  32.489  1.00  0.00     0.026 A 
ENDBRANCH   7  10
ENDBRANCH   4   6
BRANCH   3  22
HETATM   22  C11 UNK     1      18.069   4.524  33.315  1.00  0.00     0.297 C 
HETATM   23  O4  UNK     1      18.006   5.234  34.329  1.00  0.00    -0.259 OA
BRANCH  22  24
HETATM   24  O2  UNK     1      17.887   3.159  33.363  1.00  0.00    -0.318 OA
BRANCH  24  25
HETATM   25  C22 UNK     1      18.315   2.490  34.555  1.00  0.00     0.174 C 
HETATM   26  C23 UNK     1      17.511   1.220  34.725  1.00  0.00     0.034 C 
ENDBRANCH  24  25
ENDBRANCH  22  24
ENDBRANCH   3  22
BRANCH   2  27
HETATM   27  C4  UNK     1      17.609   7.476  32.334  1.00  0.00    -0.024 A 
HETATM   28  C12 UNK     1      16.259   7.810  32.253  1.00  0.00     0.014 A 
HETATM   29  C17 UNK     1      15.764   8.879  33.001  1.00  0.00     0.024 A 
HETATM   30  C20 UNK     1      16.619   9.610  33.826  1.00  0.00     0.034 A 
HETATM   31  C18 UNK     1      17.969   9.271  33.904  1.00  0.00     0.024 A 
HETATM   32 Cl2  UNK     1      16.008  10.928  34.747  1.00  0.00    -0.084 Cl
HETATM   33  C13 UNK     1      18.466   8.202  33.157  1.00  0.00     0.014 A 
ENDBRANCH   2  27
TORSDOF 6
ENDMDL
MODEL 6
REMARK VINA RESULT:      -8.8     18.469     21.371
REMARK  6 active torsions:
REMARK  status: ('A' for Active; 'I' for Inactive)
REMARK    1  A    between atoms: C11_20  and  O2_5 
REMARK    2  A    between atoms: C22_31  and  O2_5 
REMARK    3  A    between atoms: C3_12  and  N1_9 
REMARK       I    between atoms: C8_17  and  N1_9 
REMARK    4  A    between atoms: C1_10  and  C4_13 
REMARK    5  A    between atoms: C11_20  and  C2_11 
REMARK    6  A    between atoms: C6_15  and  C8_17 
ROOT
HETATM    1  S1  UNK     1      20.627  -5.526  15.261  1.00  0.00    -0.082 SA
HETATM    2  C1  UNK     1      20.438  -6.096  12.764  1.00  0.00    -0.000 A 
HETATM    3  C2  UNK     1      20.141  -4.707  12.876  1.00  0.00     0.085 A 
HETATM    4  C3  UNK     1      20.211  -4.294  14.168  1.00  0.00     0.094 A 
HETATM    5  C5  UNK     1      20.720  -6.665  13.987  1.00  0.00     0.065 A 
ENDROOT
BRANCH   4   6
HETATM    6  N1  UNK     1      20.000  -3.030  14.729  1.00  0.00    -0.316 N 
HETATM    7  C8  UNK     1      18.869  -2.622  15.422  1.00  0.00     0.262 C 
HETATM    8  O3  UNK     1      17.852  -3.265  15.678  1.00  0.00    -0.267 OA
HETATM    9  H2  UNK     1      20.760  -2.373  14.577  1.00  0.00     0.169 HD
BRANCH   7  10
HETATM   10  C6  UNK     1      18.977  -1.230  15.874  1.00  0.00     0.108 A 
HETATM   11  C14 UNK     1      19.175  -0.110  14.926  1.00  0.00     0.304 A 
HETATM   12  O1  UNK     1      19.264   1.166  15.476  1.00  0.00    -0.274 OA
HETATM   13  O5  UNK     1      19.259  -0.291  13.716  1.00  0.00    -0.259 OA
HETATM   14  C10 UNK     1      19.169   1.386  16.863  1.00  0.00     0.089 A 
HETATM   15  C7  UNK     1      18.983   0.318  17.737  1.00  0.00     0.001 A 
HETATM   16  C16 UNK     1      19.269   2.699  17.319  1.00  0.00     0.040 A 
HETATM   17  C15 UNK     1      18.895   0.577  19.107  1.00  0.00     0.038 A 
HETATM   18  C9  UNK     1      18.887  -1.027  17.193  1.00  0.00     0.037 A 
HETATM   19  C19 UNK     1      18.992   1.889  19.580  1.00  0.00     0.035 A 
HETATM   20 Cl1  UNK     1      18.883   2.203  21.269  1.00  0.00    -0.084 Cl
HETATM   21  C21 UNK     1      19.179   2.948  18.687  1.00  0.00     0.026 A 
ENDBRANCH   7  10
ENDBRANCH   4   6
BRANCH   3  22
HETATM   22  C11 UNK     1      19.805  -3.830  11.781  1.00  0.00     0.297 C 
HETATM   23  O4  UNK     1      18.742  -3.197  11.704  1.00  0.00    -0.259 OA
BRANCH  22  24
HETATM   24  O2  UNK     1      20.780  -3.750  10.811  1.00  0.00    -0.318 OA
BRANCH  24  25
HETATM   25  C22 UNK     1      20.357  -3.356   9.500  1.00  0.00     0.174 C 
HETATM   26  C23 UNK     1      20.237  -4.587   8.629  1.00  0.00     0.034 C 
ENDBRANCH  24  25
ENDBRANCH  22  24
ENDBRANCH   3  22
BRANCH   2  27
HETATM   27  C4  UNK     1      20.466  -6.897  11.567  1.00  0.00    -0.024 A 
HETATM   28  C12 UNK     1      19.272  -7.325  10.992  1.00  0.00     0.014 A 
HETATM   29  C17 UNK     1      19.300  -8.102   9.833  1.00  0.00     0.024 A 
HETATM   30  C20 UNK     1      20.521  -8.448   9.254  1.00  0.00     0.034 A 
HETATM   31  C18 UNK     1      21.714  -8.017   9.833  1.00  0.00     0.024 A 
HETATM   32 Cl2  UNK     1      20.554  -9.407   7.825  1.00  0.00    -0.084 Cl
HETATM   33  C13 UNK     1      21.687  -7.240  10.991  1.00  0.00     0.014 A 
ENDBRANCH   2  27
TORSDOF 6
ENDMDL
MODEL 7
REMARK VINA RESULT:      -8.7      2.755     10.033
REMARK  6 active torsions:
REMARK  status: ('A' for Active; 'I' for Inactive)
REMARK    1  A    between atoms: C11_20  and  O2_5 
REMARK    2  A    between atoms: C22_31  and  O2_5 
REMARK    3  A    between atoms: C3_12  and  N1_9 
REMARK       I    between atoms: C8_17  and  N1_9 
REMARK    4  A    between atoms: C1_10  and  C4_13 
REMARK    5  A    between atoms: C11_20  and  C2_11 
REMARK    6  A    between atoms: C6_15  and  C8_17 
ROOT
HETATM    1  S1  UNK     1      17.563  -1.763  37.887  1.00  0.00    -0.082 SA
HETATM    2  C1  UNK     1      18.276  -0.116  36.049  1.00  0.00    -0.000 A 
HETATM    3  C2  UNK     1      18.749  -1.396  35.638  1.00  0.00     0.085 A 
HETATM    4  C3  UNK     1      18.425  -2.352  36.546  1.00  0.00     0.094 A 
HETATM    5  C5  UNK     1      17.614  -0.172  37.256  1.00  0.00     0.065 A 
ENDROOT
BRANCH   4   6
HETATM    6  N1  UNK     1      18.684  -3.727  36.548  1.00  0.00    -0.316 N 
HETATM    7  C8  UNK     1      19.801  -4.348  37.089  1.00  0.00     0.262 C 
HETATM    8  O3  UNK     1      20.763  -3.835  37.661  1.00  0.00    -0.267 OA
HETATM    9  H2  UNK     1      17.975  -4.287  36.083  1.00  0.00     0.169 HD
BRANCH   7  10
HETATM   10  C6  UNK     1      19.755  -5.804  36.916  1.00  0.00     0.108 A 
HETATM   11  C14 UNK     1      18.478  -6.551  36.887  1.00  0.00     0.304 A 
HETATM   12  O1  UNK     1      18.564  -7.931  36.718  1.00  0.00    -0.274 OA
HETATM   13  O5  UNK     1      17.395  -5.989  37.007  1.00  0.00    -0.259 OA
HETATM   14  C10 UNK     1      19.803  -8.586  36.579  1.00  0.00     0.089 A 
HETATM   15  C7  UNK     1      20.992  -7.864  36.609  1.00  0.00     0.001 A 
HETATM   16  C16 UNK     1      19.788  -9.970  36.413  1.00  0.00     0.040 A 
HETATM   17  C15 UNK     1      22.201  -8.551  36.468  1.00  0.00     0.038 A 
HETATM   18  C9  UNK     1      20.935  -6.422  36.785  1.00  0.00     0.037 A 
HETATM   19  C19 UNK     1      22.202  -9.939  36.301  1.00  0.00     0.035 A 
HETATM   20 Cl1  UNK     1      23.693 -10.780  36.128  1.00  0.00    -0.084 Cl
HETATM   21  C21 UNK     1      20.997 -10.647  36.273  1.00  0.00     0.026 A 
ENDBRANCH   7  10
ENDBRANCH   4   6
BRANCH   3  22
HETATM   22  C11 UNK     1      19.479  -1.671  34.425  1.00  0.00     0.297 C 
HETATM   23  O4  UNK     1      20.652  -2.072  34.400  1.00  0.00    -0.259 OA
BRANCH  22  24
HETATM   24  O2  UNK     1      18.754  -1.449  33.275  1.00  0.00    -0.318 OA
BRANCH  24  25
HETATM   25  C22 UNK     1      19.464  -1.541  32.034  1.00  0.00     0.174 C 
HETATM   26  C23 UNK     1      19.447  -0.190  31.354  1.00  0.00     0.034 C 
ENDBRANCH  24  25
ENDBRANCH  22  24
ENDBRANCH   3  22
BRANCH   2  27
HETATM   27  C4  UNK     1      18.422   1.140  35.359  1.00  0.00    -0.024 A 
HETATM   28  C12 UNK     1      19.214   2.144  35.910  1.00  0.00     0.014 A 
HETATM   29  C17 UNK     1      19.354   3.362  35.242  1.00  0.00     0.024 A 
HETATM   30  C20 UNK     1      18.702   3.570  34.027  1.00  0.00     0.034 A 
HETATM   31  C18 UNK     1      17.912   2.561  33.479  1.00  0.00     0.024 A 
HETATM   32 Cl2  UNK     1      18.876   5.071  33.204  1.00  0.00    -0.084 Cl
HETATM   33  C13 UNK     1      17.771   1.344  34.145  1.00  0.00     0.014 A 
ENDBRANCH   2  27
TORSDOF 6
ENDMDL
MODEL 8
REMARK VINA RESULT:      -8.7      4.267     11.089
REMARK  6 active torsions:
REMARK  status: ('A' for Active; 'I' for Inactive)
REMARK    1  A    between atoms: C11_20  and  O2_5 
REMARK    2  A    between atoms: C22_31  and  O2_5 
REMARK    3  A    between atoms: C3_12  and  N1_9 
REMARK       I    between atoms: C8_17  and  N1_9 
REMARK    4  A    between atoms: C1_10  and  C4_13 
REMARK    5  A    between atoms: C11_20  and  C2_11 
REMARK    6  A    between atoms: C6_15  and  C8_17 
ROOT
HETATM    1  S1  UNK     1      15.415   7.419  31.540  1.00  0.00    -0.082 SA
HETATM    2  C1  UNK     1      16.000   9.083  33.408  1.00  0.00    -0.000 A 
HETATM    3  C2  UNK     1      16.687   7.876  33.725  1.00  0.00     0.085 A 
HETATM    4  C3  UNK     1      16.446   6.916  32.793  1.00  0.00     0.094 A 
HETATM    5  C5  UNK     1      15.270   8.973  32.245  1.00  0.00     0.065 A 
ENDROOT
BRANCH   4   6
HETATM    6  N1  UNK     1      16.910   5.600  32.707  1.00  0.00    -0.316 N 
HETATM    7  C8  UNK     1      17.976   5.157  31.937  1.00  0.00     0.262 C 
HETATM    8  O3  UNK     1      18.710   5.809  31.196  1.00  0.00    -0.267 OA
HETATM    9  H2  UNK     1      16.377   4.932  33.258  1.00  0.00     0.169 HD
BRANCH   7  10
HETATM   10  C6  UNK     1      18.190   3.712  32.078  1.00  0.00     0.108 A 
HETATM   11  C14 UNK     1      18.487   2.845  30.915  1.00  0.00     0.304 A 
HETATM   12  O1  UNK     1      18.670   1.489  31.177  1.00  0.00    -0.274 OA
HETATM   13  O5  UNK     1      18.567   3.292  29.777  1.00  0.00    -0.259 OA
HETATM   14  C10 UNK     1      18.579   0.966  32.481  1.00  0.00     0.089 A 
HETATM   15  C7  UNK     1      18.300   1.799  33.559  1.00  0.00     0.001 A 
HETATM   16  C16 UNK     1      18.779  -0.404  32.643  1.00  0.00     0.040 A 
HETATM   17  C15 UNK     1      18.218   1.241  34.838  1.00  0.00     0.038 A 
HETATM   18  C9  UNK     1      18.103   3.219  33.319  1.00  0.00     0.037 A 
HETATM   19  C19 UNK     1      18.416  -0.131  35.017  1.00  0.00     0.035 A 
HETATM   20 Cl1  UNK     1      18.314  -0.814  36.594  1.00  0.00    -0.084 Cl
HETATM   21  C21 UNK     1      18.696  -0.952  33.921  1.00  0.00     0.026 A 
ENDBRANCH   7  10
ENDBRANCH   4   6
BRANCH   3  22
HETATM   22  C11 UNK     1      17.534   7.668  34.874  1.00  0.00     0.297 C 
HETATM   23  O4  UNK     1      17.186   7.906  36.040  1.00  0.00    -0.259 OA
BRANCH  22  24
HETATM   24  O2  UNK     1      18.782   7.174  34.566  1.00  0.00    -0.318 OA
BRANCH  24  25
HETATM   25  C22 UNK     1      19.621   7.999  33.748  1.00  0.00     0.174 C 
HETATM   26  C23 UNK     1      20.179   9.125  34.591  1.00  0.00     0.034 C 
ENDBRANCH  24  25
ENDBRANCH  22  24
ENDBRANCH   3  22
BRANCH   2  27
HETATM   27  C4  UNK     1      16.004  10.318  34.148  1.00  0.00    -0.024 A 
HETATM   28  C12 UNK     1      17.102  11.171  34.066  1.00  0.00     0.014 A 
HETATM   29  C17 UNK     1      17.107  12.368  34.784  1.00  0.00     0.024 A 
HETATM   30  C20 UNK     1      16.014  12.706  35.582  1.00  0.00     0.034 A 
HETATM   31  C18 UNK     1      14.917  11.850  35.661  1.00  0.00     0.024 A 
HETATM   32 Cl2  UNK     1      16.020  14.182  36.468  1.00  0.00    -0.084 Cl
HETATM   33  C13 UNK     1      14.911  10.654  34.944  1.00  0.00     0.014 A 
ENDBRANCH   2  27
TORSDOF 6
ENDMDL
MODEL 9
REMARK VINA RESULT:      -8.6      5.167     11.221
REMARK  6 active torsions:
REMARK  status: ('A' for Active; 'I' for Inactive)
REMARK    1  A    between atoms: C11_20  and  O2_5 
REMARK    2  A    between atoms: C22_31  and  O2_5 
REMARK    3  A    between atoms: C3_12  and  N1_9 
REMARK       I    between atoms: C8_17  and  N1_9 
REMARK    4  A    between atoms: C1_10  and  C4_13 
REMARK    5  A    between atoms: C11_20  and  C2_11 
REMARK    6  A    between atoms: C6_15  and  C8_17 
ROOT
HETATM    1  S1  UNK     1      15.170   7.416  31.649  1.00  0.00    -0.082 SA
HETATM    2  C1  UNK     1      15.718   9.061  33.545  1.00  0.00    -0.000 A 
HETATM    3  C2  UNK     1      16.518   7.906  33.779  1.00  0.00     0.085 A 
HETATM    4  C3  UNK     1      16.306   6.961  32.827  1.00  0.00     0.094 A 
HETATM    5  C5  UNK     1      14.936   8.928  32.418  1.00  0.00     0.065 A 
ENDROOT
BRANCH   4   6
HETATM    6  N1  UNK     1      16.871   5.691  32.666  1.00  0.00    -0.316 N 
HETATM    7  C8  UNK     1      17.943   5.371  31.845  1.00  0.00     0.262 C 
HETATM    8  O3  UNK     1      18.597   6.112  31.113  1.00  0.00    -0.267 OA
HETATM    9  H2  UNK     1      16.413   4.959  33.203  1.00  0.00     0.169 HD
BRANCH   7  10
HETATM   10  C6  UNK     1      18.278   3.944  31.915  1.00  0.00     0.108 A 
HETATM   11  C14 UNK     1      18.335   3.213  33.201  1.00  0.00     0.304 A 
HETATM   12  O1  UNK     1      18.665   1.861  33.137  1.00  0.00    -0.274 OA
HETATM   13  O5  UNK     1      18.106   3.764  34.271  1.00  0.00    -0.259 OA
HETATM   14  C10 UNK     1      18.930   1.218  31.913  1.00  0.00     0.089 A 
HETATM   15  C7  UNK     1      18.872   1.924  30.716  1.00  0.00     0.001 A 
HETATM   16  C16 UNK     1      19.251  -0.138  31.951  1.00  0.00     0.040 A 
HETATM   17  C15 UNK     1      19.142   1.250  29.522  1.00  0.00     0.038 A 
HETATM   18  C9  UNK     1      18.530   3.337  30.750  1.00  0.00     0.037 A 
HETATM   19  C19 UNK     1      19.465  -0.110  29.544  1.00  0.00     0.035 A 
HETATM   20 Cl1  UNK     1      19.798  -0.935  28.071  1.00  0.00    -0.084 Cl
HETATM   21  C21 UNK     1      19.519  -0.802  30.756  1.00  0.00     0.026 A 
ENDBRANCH   7  10
ENDBRANCH   4   6
BRANCH   3  22
HETATM   22  C11 UNK     1      17.441   7.732  34.874  1.00  0.00     0.297 C 
HETATM   23  O4  UNK     1      17.147   7.927  36.063  1.00  0.00    -0.259 OA
BRANCH  22  24
HETATM   24  O2  UNK     1      18.698   7.324  34.486  1.00  0.00    -0.318 OA
BRANCH  24  25
HETATM   25  C22 UNK     1      19.469   8.251  33.712  1.00  0.00     0.174 C 
HETATM   26  C23 UNK     1      20.135   9.239  34.644  1.00  0.00     0.034 C 
ENDBRANCH  24  25
ENDBRANCH  22  24
ENDBRANCH   3  22
BRANCH   2  27
HETATM   27  C4  UNK     1      15.661  10.267  34.330  1.00  0.00    -0.024 A 
HETATM   28  C12 UNK     1      16.692  11.199  34.242  1.00  0.00     0.014 A 
HETATM   29  C17 UNK     1      16.637  12.367  35.004  1.00  0.00     0.024 A 
HETATM   30  C20 UNK     1      15.553  12.598  35.850  1.00  0.00     0.034 A 
HETATM   31  C18 UNK     1      14.522  11.663  35.934  1.00  0.00     0.024 A 
HETATM   32 Cl2  UNK     1      15.486  14.039  36.789  1.00  0.00    -0.084 Cl
HETATM   33  C13 UNK     1      14.576  10.495  35.173  1.00  0.00     0.014 A 
ENDBRANCH   2  27
TORSDOF 6
ENDMDL
MODEL 10
REMARK VINA RESULT:      -8.6      9.925     13.827
REMARK  6 active torsions:
REMARK  status: ('A' for Active; 'I' for Inactive)
REMARK    1  A    between atoms: C11_20  and  O2_5 
REMARK    2  A    between atoms: C22_31  and  O2_5 
REMARK    3  A    between atoms: C3_12  and  N1_9 
REMARK       I    between atoms: C8_17  and  N1_9 
REMARK    4  A    between atoms: C1_10  and  C4_13 
REMARK    5  A    between atoms: C11_20  and  C2_11 
REMARK    6  A    between atoms: C6_15  and  C8_17 
ROOT
HETATM    1  S1  UNK     1      29.596  -9.594  38.200  1.00  0.00    -0.082 SA
HETATM    2  C1  UNK     1      31.365  -8.219  36.944  1.00  0.00    -0.000 A 
HETATM    3  C2  UNK     1      30.182  -7.425  36.957  1.00  0.00     0.085 A 
HETATM    4  C3  UNK     1      29.171  -8.062  37.602  1.00  0.00     0.094 A 
HETATM    5  C5  UNK     1      31.185  -9.425  37.586  1.00  0.00     0.065 A 
ENDROOT
BRANCH   4   6
HETATM    6  N1  UNK     1      27.855  -7.658  37.849  1.00  0.00    -0.316 N 
HETATM    7  C8  UNK     1      27.190  -7.736  39.064  1.00  0.00     0.262 C 
HETATM    8  O3  UNK     1      27.605  -8.163  40.141  1.00  0.00    -0.267 OA
HETATM    9  H2  UNK     1      27.369  -7.297  37.033  1.00  0.00     0.169 HD
BRANCH   7  10
HETATM   10  C6  UNK     1      25.817  -7.225  38.970  1.00  0.00     0.108 A 
HETATM   11  C14 UNK     1      25.527  -5.787  38.768  1.00  0.00     0.304 A 
HETATM   12  O1  UNK     1      24.184  -5.425  38.696  1.00  0.00    -0.274 OA
HETATM   13  O5  UNK     1      26.420  -4.953  38.671  1.00  0.00    -0.259 OA
HETATM   14  C10 UNK     1      23.151  -6.375  38.808  1.00  0.00     0.089 A 
HETATM   15  C7  UNK     1      23.446  -7.721  38.997  1.00  0.00     0.001 A 
HETATM   16  C16 UNK     1      21.838  -5.916  38.722  1.00  0.00     0.040 A 
HETATM   17  C15 UNK     1      22.393  -8.633  39.103  1.00  0.00     0.038 A 
HETATM   18  C9  UNK     1      24.839  -8.131  39.077  1.00  0.00     0.037 A 
HETATM   19  C19 UNK     1      21.070  -8.189  39.019  1.00  0.00     0.035 A 
HETATM   20 Cl1  UNK     1      19.776  -9.316  39.151  1.00  0.00    -0.084 Cl
HETATM   21  C21 UNK     1      20.794  -6.832  38.829  1.00  0.00     0.026 A 
ENDBRANCH   7  10
ENDBRANCH   4   6
BRANCH   3  22
HETATM   22  C11 UNK     1      30.045  -6.114  36.371  1.00  0.00     0.297 C 
HETATM   23  O4  UNK     1      30.354  -5.845  35.201  1.00  0.00    -0.259 OA
BRANCH  22  24
HETATM   24  O2  UNK     1      29.534  -5.168  37.231  1.00  0.00    -0.318 OA
BRANCH  24  25
HETATM   25  C22 UNK     1      30.452  -4.566  38.152  1.00  0.00     0.174 C 
HETATM   26  C23 UNK     1      29.678  -3.986  39.314  1.00  0.00     0.034 C 
ENDBRANCH  24  25
ENDBRANCH  22  24
ENDBRANCH   3  22
BRANCH   2  27
HETATM   27  C4  UNK     1      32.640  -7.892  36.359  1.00  0.00    -0.024 A 
HETATM   28  C12 UNK     1      32.983  -8.408  35.112  1.00  0.00     0.014 A 
HETATM   29  C17 UNK     1      34.218  -8.092  34.547  1.00  0.00     0.024 A 
HETATM   30  C20 UNK     1      35.106  -7.261  35.230  1.00  0.00     0.034 A 
HETATM   31  C18 UNK     1      34.758  -6.745  36.478  1.00  0.00     0.024 A 
HETATM   32 Cl2  UNK     1      36.630  -6.871  34.532  1.00  0.00    -0.084 Cl
HETATM   33  C13 UNK     1      33.523  -7.061  37.044  1.00  0.00     0.014 A 
ENDBRANCH   2  27
TORSDOF 6
ENDMDL
