MODEL 1
REMARK VINA RESULT:      -9.2      0.000      0.000
REMARK  7 active torsions:
REMARK  status: ('A' for Active; 'I' for Inactive)
REMARK    1  A    between atoms: C15_23  and  O3_4 
REMARK    2  A    between atoms: C20_28  and  O3_4 
REMARK    3  A    between atoms: C5_13  and  N1_6 
REMARK    4  A    between atoms: C6_14  and  N2_7 
REMARK    5  A    between atoms: C17_25  and  N3_8 
REMARK       I    between atoms: C9_17  and  N3_8 
REMARK    6  A    between atoms: C5_13  and  C7_15 
REMARK    7  A    between atoms: C6_14  and  C9_17 
ROOT
HETATM    1  N1  UNK     1      19.213  -3.120  36.260  1.00  0.00     0.096 N 
HETATM    2  N2  UNK     1      18.348  -0.436  35.620  1.00  0.00     0.100 N 
HETATM    3  C1  UNK     1      19.877  -2.334  35.212  1.00  0.00     0.303 C 
HETATM    4  C2  UNK     1      18.653  -2.234  37.288  1.00  0.00     0.303 C 
HETATM    5  C3  UNK     1      18.906  -1.323  34.591  1.00  0.00     0.303 C 
HETATM    6  C4  UNK     1      17.684  -1.222  36.668  1.00  0.00     0.303 C 
ENDROOT
BRANCH   1   7
HETATM    7  C5  UNK     1      20.140  -4.082  36.853  1.00  0.00     0.312 C 
BRANCH   7   8
HETATM    8  C7  UNK     1      19.614  -5.474  36.803  1.00  0.00    -0.011 A 
HETATM    9  C10 UNK     1      18.524  -5.777  36.082  1.00  0.00     0.092 A 
HETATM   10  C13 UNK     1      17.967  -7.138  36.003  1.00  0.00     0.288 A 
HETATM   11  O1  UNK     1      18.626  -8.123  36.721  1.00  0.00    -0.275 OA
HETATM   12  O4  UNK     1      16.969  -7.379  35.333  1.00  0.00    -0.260 OA
HETATM   13  C11 UNK     1      19.773  -7.835  37.489  1.00  0.00     0.090 A 
HETATM   14  C8  UNK     1      20.290  -6.541  37.554  1.00  0.00     0.009 A 
HETATM   15  C14 UNK     1      20.353  -8.906  38.170  1.00  0.00     0.041 A 
HETATM   16  C12 UNK     1      21.431  -6.336  38.339  1.00  0.00     0.051 A 
HETATM   17  C15 UNK     1      22.024  -7.399  39.030  1.00  0.00     0.069 A 
HETATM   18  C16 UNK     1      21.486  -8.682  38.945  1.00  0.00     0.039 A 
BRANCH  17  19
HETATM   19  O3  UNK     1      23.134  -7.179  39.789  1.00  0.00    -0.351 OA
BRANCH  19  20
HETATM   20  C20 UNK     1      24.330  -6.819  39.101  1.00  0.00     0.171 C 
HETATM   21  C24 UNK     1      25.092  -8.077  38.744  1.00  0.00     0.034 C 
ENDBRANCH  19  20
ENDBRANCH  17  19
ENDBRANCH   7   8
ENDBRANCH   1   7
BRANCH   2  22
HETATM   22  C6  UNK     1      17.423   0.527  35.027  1.00  0.00     0.375 C 
BRANCH  22  23
HETATM   23  C9  UNK     1      18.205   1.707  34.476  1.00  0.00     0.250 C 
HETATM   24  O2  UNK     1      19.150   2.210  35.074  1.00  0.00    -0.271 OA
HETATM   25  N3  UNK     1      17.692   2.089  33.239  1.00  0.00    -0.326 N 
HETATM   26  H15 UNK     1      16.903   1.565  32.867  1.00  0.00     0.169 HD
BRANCH  25  27
HETATM   27  C17 UNK     1      18.142   3.140  32.405  1.00  0.00     0.036 A 
HETATM   28  C18 UNK     1      18.257   4.435  32.914  1.00  0.00     0.053 A 
HETATM   29  C21 UNK     1      18.699   5.470  32.092  1.00  0.00     0.036 A 
HETATM   30 Cl1  UNK     1      18.841   7.067  32.718  1.00  0.00    -0.084 Cl
HETATM   31  C23 UNK     1      19.027   5.213  30.760  1.00  0.00     0.024 A 
HETATM   32  C22 UNK     1      18.911   3.920  30.252  1.00  0.00     0.004 A 
HETATM   33  C19 UNK     1      18.469   2.883  31.075  1.00  0.00     0.029 A 
ENDBRANCH  25  27
ENDBRANCH  22  23
ENDBRANCH   2  22
TORSDOF 7
ENDMDL
MODEL 2
REMARK VINA RESULT:      -9.0      5.920      8.667
REMARK  7 active torsions:
REMARK  status: ('A' for Active; 'I' for Inactive)
REMARK    1  A    between atoms: C15_23  and  O3_4 
REMARK    2  A    between atoms: C20_28  and  O3_4 
REMARK    3  A    between atoms: C5_13  and  N1_6 
REMARK    4  A    between atoms: C6_14  and  N2_7 
REMARK    5  A    between atoms: C17_25  and  N3_8 
REMARK       I    between atoms: C9_17  and  N3_8 
REMARK    6  A    between atoms: C5_13  and  C7_15 
REMARK    7  A    between atoms: C6_14  and  C9_17 
ROOT
HETATM    1  N1  UNK     1      18.857   3.651  31.368  1.00  0.00     0.096 N 
HETATM    2  N2  UNK     1      19.246   6.323  32.405  1.00  0.00     0.100 N 
HETATM    3  C1  UNK     1      18.030   4.172  32.465  1.00  0.00     0.303 C 
HETATM    4  C2  UNK     1      19.309   4.748  30.503  1.00  0.00     0.303 C 
HETATM    5  C3  UNK     1      18.796   5.226  33.273  1.00  0.00     0.303 C 
HETATM    6  C4  UNK     1      20.073   5.802  31.310  1.00  0.00     0.303 C 
ENDROOT
BRANCH   1   7
HETATM    7  C5  UNK     1      18.125   2.649  30.598  1.00  0.00     0.312 C 
BRANCH   7   8
HETATM    8  C7  UNK     1      18.850   1.350  30.533  1.00  0.00    -0.011 A 
HETATM    9  C10 UNK     1      19.467   0.957  29.410  1.00  0.00     0.092 A 
HETATM   10  C13 UNK     1      20.196  -0.319  29.298  1.00  0.00     0.288 A 
HETATM   11  O1  UNK     1      20.222  -1.121  30.427  1.00  0.00    -0.275 OA
HETATM   12  O4  UNK     1      20.750  -0.646  28.255  1.00  0.00    -0.260 OA
HETATM   13  C11 UNK     1      19.582  -0.735  31.622  1.00  0.00     0.090 A 
HETATM   14  C8  UNK     1      18.895   0.476  31.713  1.00  0.00     0.009 A 
HETATM   15  C14 UNK     1      19.674  -1.624  32.695  1.00  0.00     0.041 A 
HETATM   16  C12 UNK     1      18.284   0.786  32.935  1.00  0.00     0.051 A 
HETATM   17  C15 UNK     1      18.366  -0.094  34.020  1.00  0.00     0.069 A 
HETATM   18  C16 UNK     1      19.060  -1.298  33.900  1.00  0.00     0.039 A 
BRANCH  17  19
HETATM   19  O3  UNK     1      17.765   0.226  35.200  1.00  0.00    -0.351 OA
BRANCH  19  20
HETATM   20  C20 UNK     1      18.270   1.362  35.899  1.00  0.00     0.171 C 
HETATM   21  C24 UNK     1      17.626   1.427  37.266  1.00  0.00     0.034 C 
ENDBRANCH  19  20
ENDBRANCH  17  19
ENDBRANCH   7   8
ENDBRANCH   1   7
BRANCH   2  22
HETATM   22  C6  UNK     1      19.976   7.327  33.176  1.00  0.00     0.375 C 
BRANCH  22  23
HETATM   23  C9  UNK     1      19.020   8.034  34.121  1.00  0.00     0.250 C 
HETATM   24  O2  UNK     1      19.173   8.034  35.338  1.00  0.00    -0.271 OA
HETATM   25  N3  UNK     1      17.999   8.650  33.400  1.00  0.00    -0.326 N 
HETATM   26  H15 UNK     1      18.013   8.564  32.386  1.00  0.00     0.169 HD
BRANCH  25  27
HETATM   27  C17 UNK     1      16.916   9.405  33.911  1.00  0.00     0.036 A 
HETATM   28  C18 UNK     1      17.093  10.751  34.233  1.00  0.00     0.053 A 
HETATM   29  C21 UNK     1      16.026  11.494  34.737  1.00  0.00     0.036 A 
HETATM   30 Cl1  UNK     1      16.244  13.153  35.135  1.00  0.00    -0.084 Cl
HETATM   31  C23 UNK     1      14.781  10.891  34.919  1.00  0.00     0.024 A 
HETATM   32  C22 UNK     1      14.604   9.545  34.598  1.00  0.00     0.004 A 
HETATM   33  C19 UNK     1      15.672   8.802  34.093  1.00  0.00     0.029 A 
ENDBRANCH  25  27
ENDBRANCH  22  23
ENDBRANCH   2  22
TORSDOF 7
ENDMDL
MODEL 3
REMARK VINA RESULT:      -8.7      3.844     11.613
REMARK  7 active torsions:
REMARK  status: ('A' for Active; 'I' for Inactive)
REMARK    1  A    between atoms: C15_23  and  O3_4 
REMARK    2  A    between atoms: C20_28  and  O3_4 
REMARK    3  A    between atoms: C5_13  and  N1_6 
REMARK    4  A    between atoms: C6_14  and  N2_7 
REMARK    5  A    between atoms: C17_25  and  N3_8 
REMARK       I    between atoms: C9_17  and  N3_8 
REMARK    6  A    between atoms: C5_13  and  C7_15 
REMARK    7  A    between atoms: C6_14  and  C9_17 
ROOT
HETATM    1  N1  UNK     1      17.936   1.513  35.250  1.00  0.00     0.096 N 
HETATM    2  N2  UNK     1      18.222  -1.037  36.585  1.00  0.00     0.100 N 
HETATM    3  C1  UNK     1      17.518   1.331  36.646  1.00  0.00     0.303 C 
HETATM    4  C2  UNK     1      19.039   0.599  34.923  1.00  0.00     0.303 C 
HETATM    5  C3  UNK     1      17.118  -0.125  36.911  1.00  0.00     0.303 C 
HETATM    6  C4  UNK     1      18.640  -0.856  35.189  1.00  0.00     0.303 C 
ENDROOT
BRANCH   1   7
HETATM    7  C5  UNK     1      18.319   2.900  35.000  1.00  0.00     0.312 C 
BRANCH   7   8
HETATM    8  C7  UNK     1      18.293   3.237  33.550  1.00  0.00    -0.011 A 
HETATM    9  C10 UNK     1      18.302   2.276  32.615  1.00  0.00     0.092 A 
HETATM   10  C13 UNK     1      18.277   2.562  31.170  1.00  0.00     0.288 A 
HETATM   11  O1  UNK     1      18.244   3.896  30.799  1.00  0.00    -0.275 OA
HETATM   12  O4  UNK     1      18.286   1.657  30.343  1.00  0.00    -0.260 OA
HETATM   13  C11 UNK     1      18.235   4.929  31.759  1.00  0.00     0.090 A 
HETATM   14  C8  UNK     1      18.258   4.643  33.125  1.00  0.00     0.009 A 
HETATM   15  C14 UNK     1      18.201   6.236  31.270  1.00  0.00     0.041 A 
HETATM   16  C12 UNK     1      18.249   5.725  34.014  1.00  0.00     0.051 A 
HETATM   17  C15 UNK     1      18.216   7.042  33.540  1.00  0.00     0.069 A 
HETATM   18  C16 UNK     1      18.192   7.296  32.169  1.00  0.00     0.039 A 
BRANCH  17  19
HETATM   19  O3  UNK     1      18.207   8.080  34.422  1.00  0.00    -0.351 OA
BRANCH  19  20
HETATM   20  C20 UNK     1      18.865   9.280  34.018  1.00  0.00     0.171 C 
HETATM   21  C24 UNK     1      20.304   9.234  34.482  1.00  0.00     0.034 C 
ENDBRANCH  19  20
ENDBRANCH  17  19
ENDBRANCH   7   8
ENDBRANCH   1   7
BRANCH   2  22
HETATM   22  C6  UNK     1      17.840  -2.425  36.837  1.00  0.00     0.375 C 
BRANCH  22  23
HETATM   23  C9  UNK     1      19.083  -3.298  36.843  1.00  0.00     0.250 C 
HETATM   24  O2  UNK     1      20.202  -2.853  37.078  1.00  0.00    -0.271 OA
HETATM   25  N3  UNK     1      18.745  -4.619  36.556  1.00  0.00    -0.326 N 
HETATM   26  H15 UNK     1      17.765  -4.835  36.389  1.00  0.00     0.169 HD
BRANCH  25  27
HETATM   27  C17 UNK     1      19.614  -5.732  36.468  1.00  0.00     0.036 A 
HETATM   28  C18 UNK     1      20.286  -6.186  37.604  1.00  0.00     0.053 A 
HETATM   29  C21 UNK     1      21.143  -7.283  37.516  1.00  0.00     0.036 A 
HETATM   30 Cl1  UNK     1      21.973  -7.842  38.915  1.00  0.00    -0.084 Cl
HETATM   31  C23 UNK     1      21.328  -7.927  36.292  1.00  0.00     0.024 A 
HETATM   32  C22 UNK     1      20.657  -7.473  35.157  1.00  0.00     0.004 A 
HETATM   33  C19 UNK     1      19.800  -6.376  35.245  1.00  0.00     0.029 A 
ENDBRANCH  25  27
ENDBRANCH  22  23
ENDBRANCH   2  22
TORSDOF 7
ENDMDL
MODEL 4
REMARK VINA RESULT:      -8.7      2.472      2.991
REMARK  7 active torsions:
REMARK  status: ('A' for Active; 'I' for Inactive)
REMARK    1  A    between atoms: C15_23  and  O3_4 
REMARK    2  A    between atoms: C20_28  and  O3_4 
REMARK    3  A    between atoms: C5_13  and  N1_6 
REMARK    4  A    between atoms: C6_14  and  N2_7 
REMARK    5  A    between atoms: C17_25  and  N3_8 
REMARK       I    between atoms: C9_17  and  N3_8 
REMARK    6  A    between atoms: C5_13  and  C7_15 
REMARK    7  A    between atoms: C6_14  and  C9_17 
ROOT
HETATM    1  N1  UNK     1      20.280  -3.492  37.305  1.00  0.00     0.096 N 
HETATM    2  N2  UNK     1      18.787  -1.644  35.656  1.00  0.00     0.100 N 
HETATM    3  C1  UNK     1      19.082  -2.812  37.814  1.00  0.00     0.303 C 
HETATM    4  C2  UNK     1      20.189  -3.669  35.850  1.00  0.00     0.303 C 
HETATM    5  C3  UNK     1      18.879  -1.465  37.111  1.00  0.00     0.303 C 
HETATM    6  C4  UNK     1      19.985  -2.323  35.147  1.00  0.00     0.303 C 
ENDROOT
BRANCH   1   7
HETATM    7  C5  UNK     1      20.471  -4.777  37.973  1.00  0.00     0.312 C 
BRANCH   7   8
HETATM    8  C7  UNK     1      19.846  -5.900  37.221  1.00  0.00    -0.011 A 
HETATM    9  C10 UNK     1      18.574  -5.832  36.803  1.00  0.00     0.092 A 
HETATM   10  C13 UNK     1      17.914  -6.916  36.056  1.00  0.00     0.288 A 
HETATM   11  O1  UNK     1      18.676  -8.044  35.793  1.00  0.00    -0.275 OA
HETATM   12  O4  UNK     1      16.749  -6.818  35.689  1.00  0.00    -0.260 OA
HETATM   13  C11 UNK     1      20.015  -8.146  36.220  1.00  0.00     0.090 A 
HETATM   14  C8  UNK     1      20.627  -7.110  36.927  1.00  0.00     0.009 A 
HETATM   15  C14 UNK     1      20.685  -9.328  35.900  1.00  0.00     0.041 A 
HETATM   16  C12 UNK     1      21.961  -7.289  37.317  1.00  0.00     0.051 A 
HETATM   17  C15 UNK     1      22.646  -8.469  37.004  1.00  0.00     0.069 A 
HETATM   18  C16 UNK     1      22.009  -9.487  36.296  1.00  0.00     0.039 A 
BRANCH  17  19
HETATM   19  O3  UNK     1      23.942  -8.623  37.393  1.00  0.00    -0.351 OA
BRANCH  19  20
HETATM   20  C20 UNK     1      24.332  -8.002  38.616  1.00  0.00     0.171 C 
HETATM   21  C24 UNK     1      25.731  -8.452  38.975  1.00  0.00     0.034 C 
ENDBRANCH  19  20
ENDBRANCH  17  19
ENDBRANCH   7   8
ENDBRANCH   1   7
BRANCH   2  22
HETATM   22  C6  UNK     1      18.594  -0.359  34.987  1.00  0.00     0.375 C 
BRANCH  22  23
HETATM   23  C9  UNK     1      18.307  -0.594  33.514  1.00  0.00     0.250 C 
HETATM   24  O2  UNK     1      17.329  -1.224  33.124  1.00  0.00    -0.271 OA
HETATM   25  N3  UNK     1      19.291   0.003  32.731  1.00  0.00    -0.326 N 
HETATM   26  H15 UNK     1      20.041   0.501  33.205  1.00  0.00     0.169 HD
BRANCH  25  27
HETATM   27  C17 UNK     1      19.383   0.011  31.318  1.00  0.00     0.036 A 
HETATM   28  C18 UNK     1      18.693   0.972  30.578  1.00  0.00     0.053 A 
HETATM   29  C21 UNK     1      18.784   0.978  29.187  1.00  0.00     0.036 A 
HETATM   30 Cl1  UNK     1      17.933   2.162  28.273  1.00  0.00    -0.084 Cl
HETATM   31  C23 UNK     1      19.565   0.023  28.534  1.00  0.00     0.024 A 
HETATM   32  C22 UNK     1      20.253  -0.937  29.274  1.00  0.00     0.004 A 
HETATM   33  C19 UNK     1      20.163  -0.943  30.666  1.00  0.00     0.029 A 
ENDBRANCH  25  27
ENDBRANCH  22  23
ENDBRANCH   2  22
TORSDOF 7
ENDMDL
MODEL 5
REMARK VINA RESULT:      -8.6      6.905     11.121
REMARK  7 active torsions:
REMARK  status: ('A' for Active; 'I' for Inactive)
REMARK    1  A    between atoms: C15_23  and  O3_4 
REMARK    2  A    between atoms: C20_28  and  O3_4 
REMARK    3  A    between atoms: C5_13  and  N1_6 
REMARK    4  A    between atoms: C6_14  and  N2_7 
REMARK    5  A    between atoms: C17_25  and  N3_8 
REMARK       I    between atoms: C9_17  and  N3_8 
REMARK    6  A    between atoms: C5_13  and  C7_15 
REMARK    7  A    between atoms: C6_14  and  C9_17 
ROOT
HETATM    1  N1  UNK     1      23.827  -9.357  37.190  1.00  0.00     0.096 N 
HETATM    2  N2  UNK     1      26.280  -8.382  38.370  1.00  0.00     0.100 N 
HETATM    3  C1  UNK     1      23.869  -8.082  37.917  1.00  0.00     0.303 C 
HETATM    4  C2  UNK     1      25.133  -9.644  36.583  1.00  0.00     0.303 C 
HETATM    5  C3  UNK     1      24.974  -8.096  38.979  1.00  0.00     0.303 C 
HETATM    6  C4  UNK     1      26.238  -9.657  37.644  1.00  0.00     0.303 C 
ENDROOT
BRANCH   1   7
HETATM    7  C5  UNK     1      22.775  -9.341  36.176  1.00  0.00     0.312 C 
BRANCH   7   8
HETATM    8  C7  UNK     1      21.416  -9.454  36.774  1.00  0.00    -0.011 A 
HETATM    9  C10 UNK     1      21.012 -10.587  37.366  1.00  0.00     0.092 A 
HETATM   10  C13 UNK     1      19.678 -10.746  37.971  1.00  0.00     0.288 A 
HETATM   11  O1  UNK     1      18.830  -9.652  37.905  1.00  0.00    -0.275 OA
HETATM   12  O4  UNK     1      19.343 -11.798  38.504  1.00  0.00    -0.260 OA
HETATM   13  C11 UNK     1      19.226  -8.448  37.288  1.00  0.00     0.090 A 
HETATM   14  C8  UNK     1      20.493  -8.312  36.720  1.00  0.00     0.009 A 
HETATM   15  C14 UNK     1      18.290  -7.413  37.280  1.00  0.00     0.041 A 
HETATM   16  C12 UNK     1      20.810  -7.084  36.125  1.00  0.00     0.051 A 
HETATM   17  C15 UNK     1      19.882  -6.037  36.108  1.00  0.00     0.069 A 
HETATM   18  C16 UNK     1      18.623  -6.201  36.685  1.00  0.00     0.039 A 
BRANCH  17  19
HETATM   19  O3  UNK     1      20.209  -4.850  35.525  1.00  0.00    -0.351 OA
BRANCH  19  20
HETATM   20  C20 UNK     1      19.721  -3.663  36.148  1.00  0.00     0.171 C 
HETATM   21  C24 UNK     1      20.586  -3.343  37.347  1.00  0.00     0.034 C 
ENDBRANCH  19  20
ENDBRANCH  17  19
ENDBRANCH   7   8
ENDBRANCH   1   7
BRANCH   2  22
HETATM   22  C6  UNK     1      27.333  -8.395  39.384  1.00  0.00     0.375 C 
BRANCH  22  23
HETATM   23  C9  UNK     1      28.193  -7.152  39.236  1.00  0.00     0.250 C 
HETATM   24  O2  UNK     1      27.932  -6.097  39.806  1.00  0.00    -0.271 OA
HETATM   25  N3  UNK     1      29.270  -7.409  38.392  1.00  0.00    -0.326 N 
HETATM   26  H15 UNK     1      29.355  -8.344  37.998  1.00  0.00     0.169 HD
BRANCH  25  27
HETATM   27  C17 UNK     1      30.295  -6.514  38.003  1.00  0.00     0.036 A 
HETATM   28  C18 UNK     1      31.633  -6.890  38.121  1.00  0.00     0.053 A 
HETATM   29  C21 UNK     1      32.642  -6.006  37.738  1.00  0.00     0.036 A 
HETATM   30 Cl1  UNK     1      34.293  -6.469  37.885  1.00  0.00    -0.084 Cl
HETATM   31  C23 UNK     1      32.313  -4.747  37.237  1.00  0.00     0.024 A 
HETATM   32  C22 UNK     1      30.976  -4.371  37.120  1.00  0.00     0.004 A 
HETATM   33  C19 UNK     1      29.966  -5.255  37.502  1.00  0.00     0.029 A 
ENDBRANCH  25  27
ENDBRANCH  22  23
ENDBRANCH   2  22
TORSDOF 7
ENDMDL
MODEL 6
REMARK VINA RESULT:      -8.5      3.158      4.430
REMARK  7 active torsions:
REMARK  status: ('A' for Active; 'I' for Inactive)
REMARK    1  A    between atoms: C15_23  and  O3_4 
REMARK    2  A    between atoms: C20_28  and  O3_4 
REMARK    3  A    between atoms: C5_13  and  N1_6 
REMARK    4  A    between atoms: C6_14  and  N2_7 
REMARK    5  A    between atoms: C17_25  and  N3_8 
REMARK       I    between atoms: C9_17  and  N3_8 
REMARK    6  A    between atoms: C5_13  and  C7_15 
REMARK    7  A    between atoms: C6_14  and  C9_17 
ROOT
HETATM    1  N1  UNK     1      20.827  -6.180  37.860  1.00  0.00     0.096 N 
HETATM    2  N2  UNK     1      20.389  -3.967  36.052  1.00  0.00     0.100 N 
HETATM    3  C1  UNK     1      20.583  -6.401  36.429  1.00  0.00     0.303 C 
HETATM    4  C2  UNK     1      21.475  -4.880  38.074  1.00  0.00     0.303 C 
HETATM    5  C3  UNK     1      19.739  -5.266  35.837  1.00  0.00     0.303 C 
HETATM    6  C4  UNK     1      20.632  -3.746  37.482  1.00  0.00     0.303 C 
ENDROOT
BRANCH   1   7
HETATM    7  C5  UNK     1      21.634  -7.261  38.421  1.00  0.00     0.312 C 
BRANCH   7   8
HETATM    8  C7  UNK     1      21.370  -8.565  37.753  1.00  0.00    -0.011 A 
HETATM    9  C10 UNK     1      20.126  -9.055  37.658  1.00  0.00     0.092 A 
HETATM   10  C13 UNK     1      19.816 -10.340  37.006  1.00  0.00     0.288 A 
HETATM   11  O1  UNK     1      20.886 -11.045  36.481  1.00  0.00    -0.275 OA
HETATM   12  O4  UNK     1      18.665 -10.757  36.938  1.00  0.00    -0.260 OA
HETATM   13  C11 UNK     1      22.206 -10.557  36.566  1.00  0.00     0.090 A 
HETATM   14  C8  UNK     1      22.484  -9.338  37.186  1.00  0.00     0.009 A 
HETATM   15  C14 UNK     1      23.204 -11.352  36.002  1.00  0.00     0.041 A 
HETATM   16  C12 UNK     1      23.821  -8.922  37.231  1.00  0.00     0.051 A 
HETATM   17  C15 UNK     1      24.834  -9.709  36.671  1.00  0.00     0.069 A 
HETATM   18  C16 UNK     1      24.526 -10.922  36.057  1.00  0.00     0.039 A 
BRANCH  17  19
HETATM   19  O3  UNK     1      26.128  -9.288  36.725  1.00  0.00    -0.351 OA
BRANCH  19  20
HETATM   20  C20 UNK     1      27.008 -10.002  37.591  1.00  0.00     0.171 C 
HETATM   21  C24 UNK     1      26.982  -9.361  38.961  1.00  0.00     0.034 C 
ENDBRANCH  19  20
ENDBRANCH  17  19
ENDBRANCH   7   8
ENDBRANCH   1   7
BRANCH   2  22
HETATM   22  C6  UNK     1      19.583  -2.885  35.488  1.00  0.00     0.375 C 
BRANCH  22  23
HETATM   23  C9  UNK     1      20.296  -2.300  34.281  1.00  0.00     0.250 C 
HETATM   24  O2  UNK     1      21.508  -2.112  34.257  1.00  0.00    -0.271 OA
HETATM   25  N3  UNK     1      19.383  -2.035  33.264  1.00  0.00    -0.326 N 
HETATM   26  H15 UNK     1      18.403  -2.254  33.433  1.00  0.00     0.169 HD
BRANCH  25  27
HETATM   27  C17 UNK     1      19.648  -1.489  31.986  1.00  0.00     0.036 A 
HETATM   28  C18 UNK     1      19.262  -0.180  31.691  1.00  0.00     0.053 A 
HETATM   29  C21 UNK     1      19.523   0.357  30.431  1.00  0.00     0.036 A 
HETATM   30 Cl1  UNK     1      19.047   1.970  30.067  1.00  0.00    -0.084 Cl
HETATM   31  C23 UNK     1      20.171  -0.413  29.465  1.00  0.00     0.024 A 
HETATM   32  C22 UNK     1      20.557  -1.720  29.759  1.00  0.00     0.004 A 
HETATM   33  C19 UNK     1      20.295  -2.258  31.020  1.00  0.00     0.029 A 
ENDBRANCH  25  27
ENDBRANCH  22  23
ENDBRANCH   2  22
TORSDOF 7
ENDMDL
MODEL 7
REMARK VINA RESULT:      -8.5     26.550     30.270
REMARK  7 active torsions:
REMARK  status: ('A' for Active; 'I' for Inactive)
REMARK    1  A    between atoms: C15_23  and  O3_4 
REMARK    2  A    between atoms: C20_28  and  O3_4 
REMARK    3  A    between atoms: C5_13  and  N1_6 
REMARK    4  A    between atoms: C6_14  and  N2_7 
REMARK    5  A    between atoms: C17_25  and  N3_8 
REMARK       I    between atoms: C9_17  and  N3_8 
REMARK    6  A    between atoms: C5_13  and  C7_15 
REMARK    7  A    between atoms: C6_14  and  C9_17 
ROOT
HETATM    1  N1  UNK     1      16.851   9.524   9.676  1.00  0.00     0.096 N 
HETATM    2  N2  UNK     1      15.215   7.157   9.962  1.00  0.00     0.100 N 
HETATM    3  C1  UNK     1      15.385   9.603   9.654  1.00  0.00     0.303 C 
HETATM    4  C2  UNK     1      17.290   8.387  10.494  1.00  0.00     0.303 C 
HETATM    5  C3  UNK     1      14.775   8.293   9.141  1.00  0.00     0.303 C 
HETATM    6  C4  UNK     1      16.681   7.078   9.983  1.00  0.00     0.303 C 
ENDROOT
BRANCH   1   7
HETATM    7  C5  UNK     1      17.430  10.773  10.167  1.00  0.00     0.312 C 
BRANCH   7   8
HETATM    8  C7  UNK     1      18.415  11.349   9.211  1.00  0.00    -0.011 A 
HETATM    9  C10 UNK     1      18.115  11.500   7.913  1.00  0.00     0.092 A 
HETATM   10  C13 UNK     1      19.056  12.064   6.931  1.00  0.00     0.288 A 
HETATM   11  O1  UNK     1      20.300  12.446   7.409  1.00  0.00    -0.275 OA
HETATM   12  O4  UNK     1      18.747  12.187   5.751  1.00  0.00    -0.260 OA
HETATM   13  C11 UNK     1      20.645  12.299   8.768  1.00  0.00     0.090 A 
HETATM   14  C8  UNK     1      19.742  11.762   9.687  1.00  0.00     0.009 A 
HETATM   15  C14 UNK     1      21.925  12.717   9.135  1.00  0.00     0.041 A 
HETATM   16  C12 UNK     1      20.162  11.649  11.019  1.00  0.00     0.051 A 
HETATM   17  C15 UNK     1      21.443  12.062  11.403  1.00  0.00     0.069 A 
HETATM   18  C16 UNK     1      22.323  12.596  10.462  1.00  0.00     0.039 A 
BRANCH  17  19
HETATM   19  O3  UNK     1      21.832  11.942  12.703  1.00  0.00    -0.351 OA
BRANCH  19  20
HETATM   20  C20 UNK     1      20.947  12.459  13.695  1.00  0.00     0.171 C 
HETATM   21  C24 UNK     1      21.488  12.114  15.066  1.00  0.00     0.034 C 
ENDBRANCH  19  20
ENDBRANCH  17  19
ENDBRANCH   7   8
ENDBRANCH   1   7
BRANCH   2  22
HETATM   22  C6  UNK     1      14.634   5.908   9.473  1.00  0.00     0.375 C 
BRANCH  22  23
HETATM   23  C9  UNK     1      13.123   6.045   9.406  1.00  0.00     0.250 C 
HETATM   24  O2  UNK     1      12.432   6.231  10.403  1.00  0.00    -0.271 OA
HETATM   25  N3  UNK     1      12.687   5.935   8.088  1.00  0.00    -0.326 N 
HETATM   26  H15 UNK     1      13.387   5.788   7.365  1.00  0.00     0.169 HD
BRANCH  25  27
HETATM   27  C17 UNK     1      11.356   6.007   7.610  1.00  0.00     0.036 A 
HETATM   28  C18 UNK     1      10.287   5.874   8.497  1.00  0.00     0.053 A 
HETATM   29  C21 UNK     1       8.977   5.944   8.025  1.00  0.00     0.036 A 
HETATM   30 Cl1  UNK     1       7.658   5.779   9.118  1.00  0.00    -0.084 Cl
HETATM   31  C23 UNK     1       8.735   6.147   6.666  1.00  0.00     0.024 A 
HETATM   32  C22 UNK     1       9.803   6.279   5.780  1.00  0.00     0.004 A 
HETATM   33  C19 UNK     1      11.114   6.209   6.252  1.00  0.00     0.029 A 
ENDBRANCH  25  27
ENDBRANCH  22  23
ENDBRANCH   2  22
TORSDOF 7
ENDMDL
MODEL 8
REMARK VINA RESULT:      -8.5      8.610     12.672
REMARK  7 active torsions:
REMARK  status: ('A' for Active; 'I' for Inactive)
REMARK    1  A    between atoms: C15_23  and  O3_4 
REMARK    2  A    between atoms: C20_28  and  O3_4 
REMARK    3  A    between atoms: C5_13  and  N1_6 
REMARK    4  A    between atoms: C6_14  and  N2_7 
REMARK    5  A    between atoms: C17_25  and  N3_8 
REMARK       I    between atoms: C9_17  and  N3_8 
REMARK    6  A    between atoms: C5_13  and  C7_15 
REMARK    7  A    between atoms: C6_14  and  C9_17 
ROOT
HETATM    1  N1  UNK     1      29.529  -8.864  37.807  1.00  0.00     0.096 N 
HETATM    2  N2  UNK     1      26.748  -9.260  37.122  1.00  0.00     0.100 N 
HETATM    3  C1  UNK     1      28.956  -8.289  36.583  1.00  0.00     0.303 C 
HETATM    4  C2  UNK     1      28.499  -8.993  38.844  1.00  0.00     0.303 C 
HETATM    5  C3  UNK     1      27.779  -9.134  36.083  1.00  0.00     0.303 C 
HETATM    6  C4  UNK     1      27.322  -9.836  38.344  1.00  0.00     0.303 C 
ENDROOT
BRANCH   1   7
HETATM    7  C5  UNK     1      30.649  -8.056  38.284  1.00  0.00     0.312 C 
BRANCH   7   8
HETATM    8  C7  UNK     1      30.390  -6.596  38.142  1.00  0.00    -0.011 A 
HETATM    9  C10 UNK     1      29.306  -6.029  38.689  1.00  0.00     0.092 A 
HETATM   10  C13 UNK     1      29.007  -4.591  38.574  1.00  0.00     0.288 A 
HETATM   11  O1  UNK     1      29.913  -3.822  37.860  1.00  0.00    -0.275 OA
HETATM   12  O4  UNK     1      28.006  -4.106  39.088  1.00  0.00    -0.260 OA
HETATM   13  C11 UNK     1      31.061  -4.390  37.273  1.00  0.00     0.090 A 
HETATM   14  C8  UNK     1      31.331  -5.754  37.390  1.00  0.00     0.009 A 
HETATM   15  C14 UNK     1      31.902  -3.520  36.577  1.00  0.00     0.041 A 
HETATM   16  C12 UNK     1      32.492  -6.242  36.776  1.00  0.00     0.051 A 
HETATM   17  C15 UNK     1      33.345  -5.383  36.074  1.00  0.00     0.069 A 
HETATM   18  C16 UNK     1      33.050  -4.023  35.975  1.00  0.00     0.039 A 
BRANCH  17  19
HETATM   19  O3  UNK     1      34.469  -5.876  35.484  1.00  0.00    -0.351 OA
BRANCH  19  20
HETATM   20  C20 UNK     1      34.793  -5.381  34.187  1.00  0.00     0.171 C 
HETATM   21  C24 UNK     1      34.956  -6.548  33.238  1.00  0.00     0.034 C 
ENDBRANCH  19  20
ENDBRANCH  17  19
ENDBRANCH   7   8
ENDBRANCH   1   7
BRANCH   2  22
HETATM   22  C6  UNK     1      25.627 -10.066  36.644  1.00  0.00     0.375 C 
BRANCH  22  23
HETATM   23  C9  UNK     1      24.322  -9.357  36.963  1.00  0.00     0.250 C 
HETATM   24  O2  UNK     1      24.280  -8.294  37.574  1.00  0.00    -0.271 OA
HETATM   25  N3  UNK     1      23.244 -10.083  36.462  1.00  0.00    -0.326 N 
HETATM   26  H15 UNK     1      23.442 -10.950  35.967  1.00  0.00     0.169 HD
BRANCH  25  27
HETATM   27  C17 UNK     1      21.869  -9.760  36.552  1.00  0.00     0.036 A 
HETATM   28  C18 UNK     1      21.355  -8.685  35.825  1.00  0.00     0.053 A 
HETATM   29  C21 UNK     1      20.001  -8.367  35.915  1.00  0.00     0.036 A 
HETATM   30 Cl1  UNK     1      19.366  -7.041  35.020  1.00  0.00    -0.084 Cl
HETATM   31  C23 UNK     1      19.159  -9.123  36.731  1.00  0.00     0.024 A 
HETATM   32  C22 UNK     1      19.672 -10.196  37.458  1.00  0.00     0.004 A 
HETATM   33  C19 UNK     1      21.028 -10.515  37.368  1.00  0.00     0.029 A 
ENDBRANCH  25  27
ENDBRANCH  22  23
ENDBRANCH   2  22
TORSDOF 7
ENDMDL
MODEL 9
REMARK VINA RESULT:      -8.4      8.869     12.981
REMARK  7 active torsions:
REMARK  status: ('A' for Active; 'I' for Inactive)
REMARK    1  A    between atoms: C15_23  and  O3_4 
REMARK    2  A    between atoms: C20_28  and  O3_4 
REMARK    3  A    between atoms: C5_13  and  N1_6 
REMARK    4  A    between atoms: C6_14  and  N2_7 
REMARK    5  A    between atoms: C17_25  and  N3_8 
REMARK       I    between atoms: C9_17  and  N3_8 
REMARK    6  A    between atoms: C5_13  and  C7_15 
REMARK    7  A    between atoms: C6_14  and  C9_17 
ROOT
HETATM    1  N1  UNK     1      26.884  -9.366  37.488  1.00  0.00     0.096 N 
HETATM    2  N2  UNK     1      29.709  -8.953  37.947  1.00  0.00     0.100 N 
HETATM    3  C1  UNK     1      27.448  -9.389  38.844  1.00  0.00     0.303 C 
HETATM    4  C2  UNK     1      27.679  -8.491  36.618  1.00  0.00     0.303 C 
HETATM    5  C3  UNK     1      28.915  -9.831  38.818  1.00  0.00     0.303 C 
HETATM    6  C4  UNK     1      29.146  -8.932  36.592  1.00  0.00     0.303 C 
ENDROOT
BRANCH   1   7
HETATM    7  C5  UNK     1      25.486  -8.942  37.515  1.00  0.00     0.312 C 
BRANCH   7   8
HETATM    8  C7  UNK     1      24.597  -9.893  36.793  1.00  0.00    -0.011 A 
HETATM    9  C10 UNK     1      25.057 -11.072  36.351  1.00  0.00     0.092 A 
HETATM   10  C13 UNK     1      24.215 -12.045  35.633  1.00  0.00     0.288 A 
HETATM   11  O1  UNK     1      22.892 -11.688  35.423  1.00  0.00    -0.275 OA
HETATM   12  O4  UNK     1      24.670 -13.114  35.243  1.00  0.00    -0.260 OA
HETATM   13  C11 UNK     1      22.380 -10.455  35.875  1.00  0.00     0.090 A 
HETATM   14  C8  UNK     1      23.189  -9.544  36.554  1.00  0.00     0.009 A 
HETATM   15  C14 UNK     1      21.034 -10.202  35.607  1.00  0.00     0.041 A 
HETATM   16  C12 UNK     1      22.605  -8.340  36.969  1.00  0.00     0.051 A 
HETATM   17  C15 UNK     1      21.257  -8.071  36.707  1.00  0.00     0.069 A 
HETATM   18  C16 UNK     1      20.472  -9.001  36.027  1.00  0.00     0.039 A 
BRANCH  17  19
HETATM   19  O3  UNK     1      20.708  -6.894  37.119  1.00  0.00    -0.351 OA
BRANCH  19  20
HETATM   20  C20 UNK     1      19.575  -6.974  37.982  1.00  0.00     0.171 C 
HETATM   21  C24 UNK     1      20.052  -7.073  39.415  1.00  0.00     0.034 C 
ENDBRANCH  19  20
ENDBRANCH  17  19
ENDBRANCH   7   8
ENDBRANCH   1   7
BRANCH   2  22
HETATM   22  C6  UNK     1      31.108  -9.376  37.922  1.00  0.00     0.375 C 
BRANCH  22  23
HETATM   23  C9  UNK     1      31.996  -8.170  37.669  1.00  0.00     0.250 C 
HETATM   24  O2  UNK     1      32.192  -7.304  38.515  1.00  0.00    -0.271 OA
HETATM   25  N3  UNK     1      32.522  -8.222  36.380  1.00  0.00    -0.326 N 
HETATM   26  H15 UNK     1      32.270  -9.015  35.794  1.00  0.00     0.169 HD
BRANCH  25  27
HETATM   27  C17 UNK     1      33.391  -7.290  35.764  1.00  0.00     0.036 A 
HETATM   28  C18 UNK     1      34.724  -7.628  35.527  1.00  0.00     0.053 A 
HETATM   29  C21 UNK     1      35.579  -6.709  34.921  1.00  0.00     0.036 A 
HETATM   30 Cl1  UNK     1      37.223  -7.124  34.628  1.00  0.00    -0.084 Cl
HETATM   31  C23 UNK     1      35.102  -5.450  34.551  1.00  0.00     0.024 A 
HETATM   32  C22 UNK     1      33.771  -5.112  34.789  1.00  0.00     0.004 A 
HETATM   33  C19 UNK     1      32.915  -6.033  35.395  1.00  0.00     0.029 A 
ENDBRANCH  25  27
ENDBRANCH  22  23
ENDBRANCH   2  22
TORSDOF 7
ENDMDL
MODEL 10
REMARK VINA RESULT:      -8.4     12.513     16.825
REMARK  7 active torsions:
REMARK  status: ('A' for Active; 'I' for Inactive)
REMARK    1  A    between atoms: C15_23  and  O3_4 
REMARK    2  A    between atoms: C20_28  and  O3_4 
REMARK    3  A    between atoms: C5_13  and  N1_6 
REMARK    4  A    between atoms: C6_14  and  N2_7 
REMARK    5  A    between atoms: C17_25  and  N3_8 
REMARK       I    between atoms: C9_17  and  N3_8 
REMARK    6  A    between atoms: C5_13  and  C7_15 
REMARK    7  A    between atoms: C6_14  and  C9_17 
ROOT
HETATM    1  N1  UNK     1      32.374  -5.728  35.916  1.00  0.00     0.096 N 
HETATM    2  N2  UNK     1      34.980  -6.425  34.874  1.00  0.00     0.100 N 
HETATM    3  C1  UNK     1      33.378  -4.698  35.620  1.00  0.00     0.303 C 
HETATM    4  C2  UNK     1      32.559  -6.890  35.038  1.00  0.00     0.303 C 
HETATM    5  C3  UNK     1      34.796  -5.264  35.754  1.00  0.00     0.303 C 
HETATM    6  C4  UNK     1      33.977  -7.456  35.171  1.00  0.00     0.303 C 
ENDROOT
BRANCH   1   7
HETATM    7  C5  UNK     1      31.023  -5.188  35.786  1.00  0.00     0.312 C 
BRANCH   7   8
HETATM    8  C7  UNK     1      30.248  -5.299  37.053  1.00  0.00    -0.011 A 
HETATM    9  C10 UNK     1      30.290  -4.329  37.977  1.00  0.00     0.092 A 
HETATM   10  C13 UNK     1      29.542  -4.395  39.244  1.00  0.00     0.288 A 
HETATM   11  O1  UNK     1      28.772  -5.528  39.455  1.00  0.00    -0.275 OA
HETATM   12  O4  UNK     1      29.603  -3.488  40.067  1.00  0.00    -0.260 OA
HETATM   13  C11 UNK     1      28.709  -6.565  38.502  1.00  0.00     0.090 A 
HETATM   14  C8  UNK     1      29.423  -6.489  37.306  1.00  0.00     0.009 A 
HETATM   15  C14 UNK     1      27.902  -7.658  38.821  1.00  0.00     0.041 A 
HETATM   16  C12 UNK     1      29.309  -7.561  36.412  1.00  0.00     0.051 A 
HETATM   17  C15 UNK     1      28.504  -8.665  36.717  1.00  0.00     0.069 A 
HETATM   18  C16 UNK     1      27.801  -8.713  37.920  1.00  0.00     0.039 A 
BRANCH  17  19
HETATM   19  O3  UNK     1      28.407  -9.698  35.834  1.00  0.00    -0.351 OA
BRANCH  19  20
HETATM   20  C20 UNK     1      29.501  -9.893  34.940  1.00  0.00     0.171 C 
HETATM   21  C24 UNK     1      28.968 -10.014  33.529  1.00  0.00     0.034 C 
ENDBRANCH  19  20
ENDBRANCH  17  19
ENDBRANCH   7   8
ENDBRANCH   1   7
BRANCH   2  22
HETATM   22  C6  UNK     1      36.332  -6.964  35.002  1.00  0.00     0.375 C 
BRANCH  22  23
HETATM   23  C9  UNK     1      36.666  -7.790  33.772  1.00  0.00     0.250 C 
HETATM   24  O2  UNK     1      36.631  -7.327  32.636  1.00  0.00    -0.271 OA
HETATM   25  N3  UNK     1      37.006  -9.089  34.142  1.00  0.00    -0.326 N 
HETATM   26  H15 UNK     1      36.996  -9.321  35.132  1.00  0.00     0.169 HD
BRANCH  25  27
HETATM   27  C17 UNK     1      37.379 -10.159  33.293  1.00  0.00     0.036 A 
HETATM   28  C18 UNK     1      38.624 -10.150  32.663  1.00  0.00     0.053 A 
HETATM   29  C21 UNK     1      38.989 -11.204  31.826  1.00  0.00     0.036 A 
HETATM   30 Cl1  UNK     1      40.524 -11.193  31.048  1.00  0.00    -0.084 Cl
HETATM   31  C23 UNK     1      38.110 -12.267  31.618  1.00  0.00     0.024 A 
HETATM   32  C22 UNK     1      36.866 -12.275  32.246  1.00  0.00     0.004 A 
HETATM   33  C19 UNK     1      36.500 -11.221  33.084  1.00  0.00     0.029 A 
ENDBRANCH  25  27
ENDBRANCH  22  23
ENDBRANCH   2  22
TORSDOF 7
ENDMDL
