MODEL 1
REMARK VINA RESULT:      -8.1      0.000      0.000
REMARK  6 active torsions:
REMARK  status: ('A' for Active; 'I' for Inactive)
REMARK    1  A    between atoms: C12_19  and  O3_3 
REMARK    2  A    between atoms: C20_27  and  O3_3 
REMARK    3  A    between atoms: C14_21  and  O5_5 
REMARK    4  A    between atoms: C21_28  and  O5_5 
REMARK    5  A    between atoms: C9_16  and  N1_6 
REMARK    6  A    between atoms: C1_8  and  C3_10 
ROOT
HETATM    1  O1  UNK     1      30.793  -4.132  37.213  1.00  0.00    -0.269 OA
HETATM    2  O2  UNK     1      29.451  -5.724  38.289  1.00  0.00    -0.286 OA
HETATM    3  O4  UNK     1      31.312  -8.780  36.352  1.00  0.00    -0.287 OA
HETATM    4  N2  UNK     1      34.718  -3.925  34.427  1.00  0.00    -0.191 NA
HETATM    5  C1  UNK     1      32.174  -6.109  35.664  1.00  0.00     0.109 C 
HETATM    6  C2  UNK     1      31.092  -6.432  36.670  1.00  0.00     0.065 A 
HETATM    7  C4  UNK     1      32.601  -4.648  35.734  1.00  0.00     0.086 C 
HETATM    8  C5  UNK     1      30.461  -5.473  37.372  1.00  0.00     0.204 A 
HETATM    9  C6  UNK     1      30.737  -7.857  36.912  1.00  0.00     0.197 A 
HETATM   10  C7  UNK     1      29.651  -8.103  37.871  1.00  0.00     0.049 A 
HETATM   11  C9  UNK     1      31.911  -3.752  36.475  1.00  0.00     0.162 C 
HETATM   12  C11 UNK     1      29.060  -7.018  38.510  1.00  0.00     0.092 A 
HETATM   13  C15 UNK     1      29.214  -9.403  38.140  1.00  0.00     0.018 A 
HETATM   14  C16 UNK     1      28.027  -7.224  39.425  1.00  0.00     0.038 A 
HETATM   15  C17 UNK     1      33.769  -4.249  35.012  1.00  0.00     0.100 C 
HETATM   16  C18 UNK     1      28.181  -9.608  39.055  1.00  0.00     0.001 A 
HETATM   17  C19 UNK     1      27.588  -8.520  39.697  1.00  0.00     0.003 A 
ENDROOT
BRANCH   5  18
HETATM   18  C3  UNK     1      31.720  -6.450  34.274  1.00  0.00    -0.041 A 
HETATM   19  C10 UNK     1      32.479  -7.319  33.498  1.00  0.00     0.011 A 
HETATM   20  C13 UNK     1      32.057  -7.636  32.207  1.00  0.00     0.040 A 
HETATM   21  C14 UNK     1      30.882  -7.081  31.701  1.00  0.00     0.102 A 
HETATM   22  C12 UNK     1      30.126  -6.210  32.486  1.00  0.00     0.102 A 
HETATM   23  C8  UNK     1      30.548  -5.893  33.777  1.00  0.00     0.047 A 
BRANCH  21  24
HETATM   24  O5  UNK     1      30.481  -7.398  30.437  1.00  0.00    -0.349 OA
BRANCH  24  25
HETATM   25  C21 UNK     1      30.115  -8.755  30.195  1.00  0.00     0.171 C 
HETATM   26  C23 UNK     1      29.293  -8.824  28.925  1.00  0.00     0.034 C 
ENDBRANCH  24  25
ENDBRANCH  21  24
BRANCH  22  27
HETATM   27  O3  UNK     1      28.978  -5.661  32.002  1.00  0.00    -0.349 OA
BRANCH  27  28
HETATM   28  C20 UNK     1      27.751  -6.271  32.397  1.00  0.00     0.171 C 
HETATM   29  C22 UNK     1      27.038  -6.786  31.166  1.00  0.00     0.034 C 
ENDBRANCH  27  28
ENDBRANCH  22  27
ENDBRANCH   5  18
BRANCH  11  30
HETATM   30  N1  UNK     1      32.214  -2.422  36.582  1.00  0.00    -0.379 N 
HETATM   31  H7  UNK     1      31.738  -1.731  36.016  1.00  0.00     0.158 HD
HETATM   32  H8  UNK     1      32.926  -2.135  37.243  1.00  0.00     0.158 HD
ENDBRANCH  11  30
TORSDOF 6
ENDMDL
MODEL 2
REMARK VINA RESULT:      -7.9     31.603     34.105
REMARK  6 active torsions:
REMARK  status: ('A' for Active; 'I' for Inactive)
REMARK    1  A    between atoms: C12_19  and  O3_3 
REMARK    2  A    between atoms: C20_27  and  O3_3 
REMARK    3  A    between atoms: C14_21  and  O5_5 
REMARK    4  A    between atoms: C21_28  and  O5_5 
REMARK    5  A    between atoms: C9_16  and  N1_6 
REMARK    6  A    between atoms: C1_8  and  C3_10 
ROOT
HETATM    1  O1  UNK     1      16.819   8.210   9.638  1.00  0.00    -0.269 OA
HETATM    2  O2  UNK     1      15.915  10.262  10.319  1.00  0.00    -0.286 OA
HETATM    3  O4  UNK     1      12.482   8.473  11.570  1.00  0.00    -0.287 OA
HETATM    4  N2  UNK     1      15.888   3.496   9.985  1.00  0.00    -0.191 NA
HETATM    5  C1  UNK     1      14.459   6.750  10.354  1.00  0.00     0.109 C 
HETATM    6  C2  UNK     1      14.616   8.243  10.540  1.00  0.00     0.065 A 
HETATM    7  C4  UNK     1      15.770   6.084   9.958  1.00  0.00     0.086 C 
HETATM    8  C5  UNK     1      15.738   8.893  10.183  1.00  0.00     0.204 A 
HETATM    9  C6  UNK     1      13.505   9.010  11.168  1.00  0.00     0.197 A 
HETATM   10  C7  UNK     1      13.702  10.462  11.285  1.00  0.00     0.049 A 
HETATM   11  C9  UNK     1      16.855   6.817   9.621  1.00  0.00     0.162 C 
HETATM   12  C11 UNK     1      14.902  11.014  10.850  1.00  0.00     0.092 A 
HETATM   13  C15 UNK     1      12.703  11.278  11.824  1.00  0.00     0.018 A 
HETATM   14  C16 UNK     1      15.114  12.389  10.950  1.00  0.00     0.038 A 
HETATM   15  C17 UNK     1      15.835   4.655   9.972  1.00  0.00     0.100 C 
HETATM   16  C18 UNK     1      12.917  12.654  11.924  1.00  0.00     0.001 A 
HETATM   17  C19 UNK     1      14.121  13.209  11.486  1.00  0.00     0.003 A 
ENDROOT
BRANCH   5  18
HETATM   18  C3  UNK     1      13.399   6.456   9.332  1.00  0.00    -0.041 A 
HETATM   19  C10 UNK     1      13.426   7.111   8.106  1.00  0.00     0.011 A 
HETATM   20  C13 UNK     1      12.442   6.838   7.157  1.00  0.00     0.040 A 
HETATM   21  C14 UNK     1      11.437   5.911   7.440  1.00  0.00     0.102 A 
HETATM   22  C12 UNK     1      11.418   5.258   8.672  1.00  0.00     0.102 A 
HETATM   23  C8  UNK     1      12.402   5.532   9.622  1.00  0.00     0.047 A 
BRANCH  21  24
HETATM   24  O5  UNK     1      10.481   5.654   6.504  1.00  0.00    -0.349 OA
BRANCH  24  25
HETATM   25  C21 UNK     1       9.621   6.733   6.142  1.00  0.00     0.171 C 
HETATM   26  C23 UNK     1       8.306   6.581   6.876  1.00  0.00     0.034 C 
ENDBRANCH  24  25
ENDBRANCH  21  24
BRANCH  22  27
HETATM   27  O3  UNK     1      10.442   4.353   8.960  1.00  0.00    -0.349 OA
BRANCH  27  28
HETATM   28  C20 UNK     1       9.864   4.415  10.262  1.00  0.00     0.171 C 
HETATM   29  C22 UNK     1       8.389   4.725  10.133  1.00  0.00     0.034 C 
ENDBRANCH  27  28
ENDBRANCH  22  27
ENDBRANCH   5  18
BRANCH  11  30
HETATM   30  N1  UNK     1      18.063   6.303   9.239  1.00  0.00    -0.379 N 
HETATM   31  H7  UNK     1      18.840   6.910   9.012  1.00  0.00     0.158 HD
HETATM   32  H8  UNK     1      18.172   5.298   9.189  1.00  0.00     0.158 HD
ENDBRANCH  11  30
TORSDOF 6
ENDMDL
MODEL 3
REMARK VINA RESULT:      -7.8      1.549      2.120
REMARK  6 active torsions:
REMARK  status: ('A' for Active; 'I' for Inactive)
REMARK    1  A    between atoms: C12_19  and  O3_3 
REMARK    2  A    between atoms: C20_27  and  O3_3 
REMARK    3  A    between atoms: C14_21  and  O5_5 
REMARK    4  A    between atoms: C21_28  and  O5_5 
REMARK    5  A    between atoms: C9_16  and  N1_6 
REMARK    6  A    between atoms: C1_8  and  C3_10 
ROOT
HETATM    1  O1  UNK     1      32.655  -4.338  35.971  1.00  0.00    -0.269 OA
HETATM    2  O2  UNK     1      30.939  -4.978  37.434  1.00  0.00    -0.286 OA
HETATM    3  O4  UNK     1      30.627  -8.628  35.663  1.00  0.00    -0.287 OA
HETATM    4  N2  UNK     1      35.541  -6.270  32.632  1.00  0.00    -0.191 NA
HETATM    5  C1  UNK     1      32.546  -6.800  34.509  1.00  0.00     0.109 C 
HETATM    6  C2  UNK     1      31.665  -6.486  35.697  1.00  0.00     0.065 A 
HETATM    7  C4  UNK     1      33.643  -5.761  34.322  1.00  0.00     0.086 C 
HETATM    8  C5  UNK     1      31.741  -5.313  36.353  1.00  0.00     0.204 A 
HETATM    9  C6  UNK     1      30.706  -7.519  36.175  1.00  0.00     0.197 A 
HETATM   10  C7  UNK     1      29.850  -7.140  37.308  1.00  0.00     0.049 A 
HETATM   11  C9  UNK     1      33.647  -4.610  35.032  1.00  0.00     0.162 C 
HETATM   12  C11 UNK     1      30.011  -5.881  37.879  1.00  0.00     0.092 A 
HETATM   13  C15 UNK     1      28.890  -8.023  37.807  1.00  0.00     0.018 A 
HETATM   14  C16 UNK     1      29.212  -5.496  38.955  1.00  0.00     0.038 A 
HETATM   15  C17 UNK     1      34.691  -6.042  33.389  1.00  0.00     0.100 C 
HETATM   16  C18 UNK     1      28.091  -7.636  38.885  1.00  0.00     0.001 A 
HETATM   17  C19 UNK     1      28.252  -6.374  39.458  1.00  0.00     0.003 A 
ENDROOT
BRANCH   5  18
HETATM   18  C3  UNK     1      31.723  -6.914  33.259  1.00  0.00    -0.041 A 
HETATM   19  C10 UNK     1      31.724  -8.106  32.542  1.00  0.00     0.011 A 
HETATM   20  C13 UNK     1      30.960  -8.213  31.381  1.00  0.00     0.040 A 
HETATM   21  C14 UNK     1      30.200  -7.128  30.943  1.00  0.00     0.102 A 
HETATM   22  C12 UNK     1      30.203  -5.935  31.668  1.00  0.00     0.102 A 
HETATM   23  C8  UNK     1      30.969  -5.829  32.830  1.00  0.00     0.047 A 
BRANCH  21  24
HETATM   24  O5  UNK     1      29.458  -7.244  29.807  1.00  0.00    -0.349 OA
BRANCH  24  25
HETATM   25  C21 UNK     1      28.590  -8.373  29.711  1.00  0.00     0.171 C 
HETATM   26  C23 UNK     1      27.313  -8.078  30.468  1.00  0.00     0.034 C 
ENDBRANCH  24  25
ENDBRANCH  21  24
BRANCH  22  27
HETATM   27  O3  UNK     1      29.467  -4.869  31.250  1.00  0.00    -0.349 OA
BRANCH  27  28
HETATM   28  C20 UNK     1      30.141  -3.881  30.474  1.00  0.00     0.171 C 
HETATM   29  C22 UNK     1      30.041  -2.546  31.179  1.00  0.00     0.034 C 
ENDBRANCH  27  28
ENDBRANCH  22  27
ENDBRANCH   5  18
BRANCH  11  30
HETATM   30  N1  UNK     1      34.582  -3.618  34.917  1.00  0.00    -0.379 N 
HETATM   31  H7  UNK     1      34.874  -3.279  34.010  1.00  0.00     0.158 HD
HETATM   32  H8  UNK     1      34.981  -3.223  35.760  1.00  0.00     0.158 HD
ENDBRANCH  11  30
TORSDOF 6
ENDMDL
MODEL 4
REMARK VINA RESULT:      -7.8      2.070      6.584
REMARK  6 active torsions:
REMARK  status: ('A' for Active; 'I' for Inactive)
REMARK    1  A    between atoms: C12_19  and  O3_3 
REMARK    2  A    between atoms: C20_27  and  O3_3 
REMARK    3  A    between atoms: C14_21  and  O5_5 
REMARK    4  A    between atoms: C21_28  and  O5_5 
REMARK    5  A    between atoms: C9_16  and  N1_6 
REMARK    6  A    between atoms: C1_8  and  C3_10 
ROOT
HETATM    1  O1  UNK     1      32.634  -9.275  33.061  1.00  0.00    -0.269 OA
HETATM    2  O2  UNK     1      30.557  -9.021  32.005  1.00  0.00    -0.286 OA
HETATM    3  O4  UNK     1      30.518  -5.026  32.772  1.00  0.00    -0.287 OA
HETATM    4  N2  UNK     1      36.187  -6.566  34.863  1.00  0.00    -0.191 NA
HETATM    5  C1  UNK     1      32.776  -6.509  33.799  1.00  0.00     0.109 C 
HETATM    6  C2  UNK     1      31.630  -7.116  33.020  1.00  0.00     0.065 A 
HETATM    7  C4  UNK     1      33.942  -7.478  33.947  1.00  0.00     0.086 C 
HETATM    8  C5  UNK     1      31.597  -8.422  32.700  1.00  0.00     0.204 A 
HETATM    9  C6  UNK     1      30.521  -6.232  32.567  1.00  0.00     0.197 A 
HETATM   10  C7  UNK     1      29.419  -6.887  31.850  1.00  0.00     0.049 A 
HETATM   11  C9  UNK     1      33.823  -8.777  33.591  1.00  0.00     0.162 C 
HETATM   12  C11 UNK     1      29.494  -8.255  31.608  1.00  0.00     0.092 A 
HETATM   13  C15 UNK     1      28.311  -6.154  31.417  1.00  0.00     0.018 A 
HETATM   14  C16 UNK     1      28.461  -8.902  30.929  1.00  0.00     0.038 A 
HETATM   15  C17 UNK     1      35.182  -6.975  34.453  1.00  0.00     0.100 C 
HETATM   16  C18 UNK     1      27.278  -6.802  30.738  1.00  0.00     0.001 A 
HETATM   17  C19 UNK     1      27.353  -8.175  30.495  1.00  0.00     0.003 A 
ENDROOT
BRANCH   5  18
HETATM   18  C3  UNK     1      32.310  -6.050  35.151  1.00  0.00    -0.041 A 
HETATM   19  C10 UNK     1      32.298  -4.692  35.448  1.00  0.00     0.011 A 
HETATM   20  C13 UNK     1      31.865  -4.265  36.703  1.00  0.00     0.040 A 
HETATM   21  C14 UNK     1      31.448  -5.199  37.652  1.00  0.00     0.102 A 
HETATM   22  C12 UNK     1      31.462  -6.560  37.345  1.00  0.00     0.102 A 
HETATM   23  C8  UNK     1      31.896  -6.986  36.090  1.00  0.00     0.047 A 
BRANCH  21  24
HETATM   24  O5  UNK     1      31.028  -4.770  38.875  1.00  0.00    -0.349 OA
BRANCH  24  25
HETATM   25  C21 UNK     1      29.835  -3.987  38.913  1.00  0.00     0.171 C 
HETATM   26  C23 UNK     1      28.644  -4.893  38.689  1.00  0.00     0.034 C 
ENDBRANCH  24  25
ENDBRANCH  21  24
BRANCH  22  27
HETATM   27  O3  UNK     1      31.058  -7.481  38.264  1.00  0.00    -0.349 OA
BRANCH  27  28
HETATM   28  C20 UNK     1      31.772  -8.714  38.301  1.00  0.00     0.171 C 
HETATM   29  C22 UNK     1      30.781  -9.858  38.311  1.00  0.00     0.034 C 
ENDBRANCH  27  28
ENDBRANCH  22  27
ENDBRANCH   5  18
BRANCH  11  30
HETATM   30  N1  UNK     1      34.810  -9.717  33.703  1.00  0.00    -0.379 N 
HETATM   31  H7  UNK     1      35.445  -9.715  34.491  1.00  0.00     0.158 HD
HETATM   32  H8  UNK     1      34.897 -10.423  32.982  1.00  0.00     0.158 HD
ENDBRANCH  11  30
TORSDOF 6
ENDMDL
MODEL 5
REMARK VINA RESULT:      -7.7      0.979      2.163
REMARK  6 active torsions:
REMARK  status: ('A' for Active; 'I' for Inactive)
REMARK    1  A    between atoms: C12_19  and  O3_3 
REMARK    2  A    between atoms: C20_27  and  O3_3 
REMARK    3  A    between atoms: C14_21  and  O5_5 
REMARK    4  A    between atoms: C21_28  and  O5_5 
REMARK    5  A    between atoms: C9_16  and  N1_6 
REMARK    6  A    between atoms: C1_8  and  C3_10 
ROOT
HETATM    1  O1  UNK     1      30.835  -4.108  37.224  1.00  0.00    -0.269 OA
HETATM    2  O2  UNK     1      29.486  -5.694  38.301  1.00  0.00    -0.286 OA
HETATM    3  O4  UNK     1      31.169  -8.738  36.191  1.00  0.00    -0.287 OA
HETATM    4  N2  UNK     1      34.650  -3.926  34.289  1.00  0.00    -0.191 NA
HETATM    5  C1  UNK     1      32.089  -6.072  35.556  1.00  0.00     0.109 C 
HETATM    6  C2  UNK     1      31.037  -6.396  36.594  1.00  0.00     0.065 A 
HETATM    7  C4  UNK     1      32.565  -4.629  35.657  1.00  0.00     0.086 C 
HETATM    8  C5  UNK     1      30.466  -5.442  37.353  1.00  0.00     0.204 A 
HETATM    9  C6  UNK     1      30.647  -7.816  36.804  1.00  0.00     0.197 A 
HETATM   10  C7  UNK     1      29.592  -8.062  37.797  1.00  0.00     0.049 A 
HETATM   11  C9  UNK     1      31.935  -3.737  36.454  1.00  0.00     0.162 C 
HETATM   12  C11 UNK     1      29.063  -6.981  38.495  1.00  0.00     0.092 A 
HETATM   13  C15 UNK     1      29.125  -9.356  38.041  1.00  0.00     0.018 A 
HETATM   14  C16 UNK     1      28.061  -7.187  39.444  1.00  0.00     0.038 A 
HETATM   15  C17 UNK     1      33.716  -4.241  34.901  1.00  0.00     0.100 C 
HETATM   16  C18 UNK     1      28.123  -9.560  38.990  1.00  0.00     0.001 A 
HETATM   17  C19 UNK     1      27.591  -8.477  39.691  1.00  0.00     0.003 A 
ENDROOT
BRANCH   5  18
HETATM   18  C3  UNK     1      31.570  -6.351  34.175  1.00  0.00    -0.041 A 
HETATM   19  C10 UNK     1      30.400  -5.734  33.745  1.00  0.00     0.011 A 
HETATM   20  C13 UNK     1      29.917  -5.993  32.462  1.00  0.00     0.040 A 
HETATM   21  C14 UNK     1      30.607  -6.866  31.619  1.00  0.00     0.102 A 
HETATM   22  C12 UNK     1      31.780  -7.480  32.059  1.00  0.00     0.102 A 
HETATM   23  C8  UNK     1      32.262  -7.221  33.343  1.00  0.00     0.047 A 
BRANCH  21  24
HETATM   24  O5  UNK     1      30.124  -7.111  30.369  1.00  0.00    -0.349 OA
BRANCH  24  25
HETATM   25  C21 UNK     1      28.707  -7.190  30.225  1.00  0.00     0.171 C 
HETATM   26  C23 UNK     1      28.270  -8.624  30.433  1.00  0.00     0.034 C 
ENDBRANCH  24  25
ENDBRANCH  21  24
BRANCH  22  27
HETATM   27  O3  UNK     1      32.460  -8.335  31.247  1.00  0.00    -0.349 OA
BRANCH  27  28
HETATM   28  C20 UNK     1      33.764  -7.935  30.831  1.00  0.00     0.171 C 
HETATM   29  C22 UNK     1      33.671  -7.296  29.463  1.00  0.00     0.034 C 
ENDBRANCH  27  28
ENDBRANCH  22  27
ENDBRANCH   5  18
BRANCH  11  30
HETATM   30  N1  UNK     1      32.284  -2.422  36.592  1.00  0.00    -0.379 N 
HETATM   31  H7  UNK     1      32.910  -2.123  37.329  1.00  0.00     0.158 HD
HETATM   32  H8  UNK     1      31.906  -1.745  35.941  1.00  0.00     0.158 HD
ENDBRANCH  11  30
TORSDOF 6
ENDMDL
MODEL 6
REMARK VINA RESULT:      -7.7      3.152      4.612
REMARK  6 active torsions:
REMARK  status: ('A' for Active; 'I' for Inactive)
REMARK    1  A    between atoms: C12_19  and  O3_3 
REMARK    2  A    between atoms: C20_27  and  O3_3 
REMARK    3  A    between atoms: C14_21  and  O5_5 
REMARK    4  A    between atoms: C21_28  and  O5_5 
REMARK    5  A    between atoms: C9_16  and  N1_6 
REMARK    6  A    between atoms: C1_8  and  C3_10 
ROOT
HETATM    1  O1  UNK     1      35.066  -6.414  33.559  1.00  0.00    -0.269 OA
HETATM    2  O2  UNK     1      34.038  -7.021  35.575  1.00  0.00    -0.286 OA
HETATM    3  O4  UNK     1      31.923  -9.978  33.748  1.00  0.00    -0.287 OA
HETATM    4  N2  UNK     1      35.520  -8.027  29.042  1.00  0.00    -0.191 NA
HETATM    5  C1  UNK     1      33.611  -8.364  32.044  1.00  0.00     0.109 C 
HETATM    6  C2  UNK     1      33.463  -8.174  33.537  1.00  0.00     0.065 A 
HETATM    7  C4  UNK     1      34.778  -7.563  31.481  1.00  0.00     0.086 C 
HETATM    8  C5  UNK     1      34.159  -7.240  34.211  1.00  0.00     0.204 A 
HETATM    9  C6  UNK     1      32.541  -9.070  34.288  1.00  0.00     0.197 A 
HETATM   10  C7  UNK     1      32.410  -8.809  35.728  1.00  0.00     0.049 A 
HETATM   11  C9  UNK     1      35.429  -6.648  32.234  1.00  0.00     0.162 C 
HETATM   12  C11 UNK     1      33.167  -7.792  36.298  1.00  0.00     0.092 A 
HETATM   13  C15 UNK     1      31.540  -9.568  36.517  1.00  0.00     0.018 A 
HETATM   14  C16 UNK     1      33.062  -7.524  37.663  1.00  0.00     0.038 A 
HETATM   15  C17 UNK     1      35.188  -7.819  30.134  1.00  0.00     0.100 C 
HETATM   16  C18 UNK     1      31.436  -9.299  37.882  1.00  0.00     0.001 A 
HETATM   17  C19 UNK     1      32.196  -8.278  38.455  1.00  0.00     0.003 A 
ENDROOT
BRANCH   5  18
HETATM   18  C3  UNK     1      32.340  -7.994  31.337  1.00  0.00    -0.041 A 
HETATM   19  C10 UNK     1      31.558  -6.955  31.830  1.00  0.00     0.011 A 
HETATM   20  C13 UNK     1      30.377  -6.611  31.173  1.00  0.00     0.040 A 
HETATM   21  C14 UNK     1      29.985  -7.308  30.029  1.00  0.00     0.102 A 
HETATM   22  C12 UNK     1      30.776  -8.349  29.541  1.00  0.00     0.102 A 
HETATM   23  C8  UNK     1      31.958  -8.693  30.199  1.00  0.00     0.047 A 
BRANCH  21  24
HETATM   24  O5  UNK     1      28.829  -6.963  29.397  1.00  0.00    -0.349 OA
BRANCH  24  25
HETATM   25  C21 UNK     1      27.885  -6.196  30.144  1.00  0.00     0.171 C 
HETATM   26  C23 UNK     1      26.661  -7.045  30.408  1.00  0.00     0.034 C 
ENDBRANCH  24  25
ENDBRANCH  21  24
BRANCH  22  27
HETATM   27  O3  UNK     1      30.404  -9.037  28.427  1.00  0.00    -0.349 OA
BRANCH  27  28
HETATM   28  C20 UNK     1      29.819 -10.322  28.624  1.00  0.00     0.171 C 
HETATM   29  C22 UNK     1      28.341 -10.245  28.312  1.00  0.00     0.034 C 
ENDBRANCH  27  28
ENDBRANCH  22  27
ENDBRANCH   5  18
BRANCH  11  30
HETATM   30  N1  UNK     1      36.473  -5.876  31.805  1.00  0.00    -0.379 N 
HETATM   31  H7  UNK     1      37.361  -6.293  31.554  1.00  0.00     0.158 HD
HETATM   32  H8  UNK     1      36.345  -4.874  31.740  1.00  0.00     0.158 HD
ENDBRANCH  11  30
TORSDOF 6
ENDMDL
MODEL 7
REMARK VINA RESULT:      -7.7      2.292      6.734
REMARK  6 active torsions:
REMARK  status: ('A' for Active; 'I' for Inactive)
REMARK    1  A    between atoms: C12_19  and  O3_3 
REMARK    2  A    between atoms: C20_27  and  O3_3 
REMARK    3  A    between atoms: C14_21  and  O5_5 
REMARK    4  A    between atoms: C21_28  and  O5_5 
REMARK    5  A    between atoms: C9_16  and  N1_6 
REMARK    6  A    between atoms: C1_8  and  C3_10 
ROOT
HETATM    1  O1  UNK     1      32.136  -9.520  33.274  1.00  0.00    -0.269 OA
HETATM    2  O2  UNK     1      30.344  -9.210  31.795  1.00  0.00    -0.286 OA
HETATM    3  O4  UNK     1      28.863  -6.155  34.038  1.00  0.00    -0.287 OA
HETATM    4  N2  UNK     1      34.187  -7.352  37.056  1.00  0.00    -0.191 NA
HETATM    5  C1  UNK     1      31.226  -7.470  35.059  1.00  0.00     0.109 C 
HETATM    6  C2  UNK     1      30.518  -7.847  33.776  1.00  0.00     0.065 A 
HETATM    7  C4  UNK     1      32.588  -8.142  35.177  1.00  0.00     0.086 C 
HETATM    8  C5  UNK     1      30.973  -8.822  32.969  1.00  0.00     0.204 A 
HETATM    9  C6  UNK     1      29.297  -7.092  33.381  1.00  0.00     0.197 A 
HETATM   10  C7  UNK     1      28.632  -7.531  32.146  1.00  0.00     0.049 A 
HETATM   11  C9  UNK     1      32.969  -9.110  34.313  1.00  0.00     0.162 C 
HETATM   12  C11 UNK     1      29.193  -8.574  31.416  1.00  0.00     0.092 A 
HETATM   13  C15 UNK     1      27.457  -6.915  31.707  1.00  0.00     0.018 A 
HETATM   14  C16 UNK     1      28.582  -9.010  30.240  1.00  0.00     0.038 A 
HETATM   15  C17 UNK     1      33.471  -7.706  36.215  1.00  0.00     0.100 C 
HETATM   16  C18 UNK     1      26.848  -7.351  30.531  1.00  0.00     0.001 A 
HETATM   17  C19 UNK     1      27.409  -8.398  29.798  1.00  0.00     0.003 A 
ENDROOT
BRANCH   5  18
HETATM   18  C3  UNK     1      30.376  -7.811  36.249  1.00  0.00    -0.041 A 
HETATM   19  C10 UNK     1      29.922  -9.114  36.418  1.00  0.00     0.011 A 
HETATM   20  C13 UNK     1      29.133  -9.431  37.523  1.00  0.00     0.040 A 
HETATM   21  C14 UNK     1      28.803  -8.443  38.451  1.00  0.00     0.102 A 
HETATM   22  C12 UNK     1      29.263  -7.137  38.274  1.00  0.00     0.102 A 
HETATM   23  C8  UNK     1      30.052  -6.821  37.168  1.00  0.00     0.047 A 
BRANCH  21  24
HETATM   24  O5  UNK     1      28.031  -8.764  39.527  1.00  0.00    -0.349 OA
BRANCH  24  25
HETATM   25  C21 UNK     1      26.773  -9.382  39.259  1.00  0.00     0.171 C 
HETATM   26  C23 UNK     1      25.782  -8.318  38.836  1.00  0.00     0.034 C 
ENDBRANCH  24  25
ENDBRANCH  21  24
BRANCH  22  27
HETATM   27  O3  UNK     1      28.946  -6.164  39.172  1.00  0.00    -0.349 OA
BRANCH  27  28
HETATM   28  C20 UNK     1      28.673  -4.865  38.651  1.00  0.00     0.171 C 
HETATM   29  C22 UNK     1      29.592  -3.863  39.315  1.00  0.00     0.034 C 
ENDBRANCH  27  28
ENDBRANCH  22  27
ENDBRANCH   5  18
BRANCH  11  30
HETATM   30  N1  UNK     1      34.163  -9.775  34.355  1.00  0.00    -0.379 N 
HETATM   31  H7  UNK     1      35.008  -9.353  33.991  1.00  0.00     0.158 HD
HETATM   32  H8  UNK     1      34.192 -10.703  34.760  1.00  0.00     0.158 HD
ENDBRANCH  11  30
TORSDOF 6
ENDMDL
MODEL 8
REMARK VINA RESULT:      -7.7      3.142      4.334
REMARK  6 active torsions:
REMARK  status: ('A' for Active; 'I' for Inactive)
REMARK    1  A    between atoms: C12_19  and  O3_3 
REMARK    2  A    between atoms: C20_27  and  O3_3 
REMARK    3  A    between atoms: C14_21  and  O5_5 
REMARK    4  A    between atoms: C21_28  and  O5_5 
REMARK    5  A    between atoms: C9_16  and  N1_6 
REMARK    6  A    between atoms: C1_8  and  C3_10 
ROOT
HETATM    1  O1  UNK     1      27.676  -4.734  38.760  1.00  0.00    -0.269 OA
HETATM    2  O2  UNK     1      25.418  -5.310  39.007  1.00  0.00    -0.286 OA
HETATM    3  O4  UNK     1      26.217  -9.237  38.300  1.00  0.00    -0.287 OA
HETATM    4  N2  UNK     1      31.981  -6.860  38.359  1.00  0.00    -0.191 NA
HETATM    5  C1  UNK     1      28.459  -7.420  38.137  1.00  0.00     0.109 C 
HETATM    6  C2  UNK     1      27.038  -7.008  38.452  1.00  0.00     0.065 A 
HETATM    7  C4  UNK     1      29.452  -6.298  38.409  1.00  0.00     0.086 C 
HETATM    8  C5  UNK     1      26.710  -5.733  38.732  1.00  0.00     0.204 A 
HETATM    9  C6  UNK     1      25.977  -8.051  38.485  1.00  0.00     0.197 A 
HETATM   10  C7  UNK     1      24.611  -7.582  38.758  1.00  0.00     0.049 A 
HETATM   11  C9  UNK     1      29.033  -5.044  38.692  1.00  0.00     0.162 C 
HETATM   12  C11 UNK     1      24.403  -6.229  39.004  1.00  0.00     0.092 A 
HETATM   13  C15 UNK     1      23.537  -8.475  38.772  1.00  0.00     0.018 A 
HETATM   14  C16 UNK     1      23.116  -5.757  39.266  1.00  0.00     0.038 A 
HETATM   15  C17 UNK     1      30.849  -6.608  38.381  1.00  0.00     0.100 C 
HETATM   16  C18 UNK     1      22.251  -8.002  39.035  1.00  0.00     0.001 A 
HETATM   17  C19 UNK     1      22.040  -6.645  39.281  1.00  0.00     0.003 A 
ENDROOT
BRANCH   5  18
HETATM   18  C3  UNK     1      28.571  -7.876  36.711  1.00  0.00    -0.041 A 
HETATM   19  C10 UNK     1      29.010  -9.166  36.435  1.00  0.00     0.011 A 
HETATM   20  C13 UNK     1      29.114  -9.589  35.110  1.00  0.00     0.040 A 
HETATM   21  C14 UNK     1      28.778  -8.721  34.071  1.00  0.00     0.102 A 
HETATM   22  C12 UNK     1      28.337  -7.429  34.357  1.00  0.00     0.102 A 
HETATM   23  C8  UNK     1      28.234  -7.005  35.682  1.00  0.00     0.047 A 
BRANCH  21  24
HETATM   24  O5  UNK     1      28.885  -9.146  32.781  1.00  0.00    -0.349 OA
BRANCH  24  25
HETATM   25  C21 UNK     1      30.093  -9.812  32.416  1.00  0.00     0.171 C 
HETATM   26  C23 UNK     1      31.149  -8.777  32.097  1.00  0.00     0.034 C 
ENDBRANCH  24  25
ENDBRANCH  21  24
BRANCH  22  27
HETATM   27  O3  UNK     1      28.008  -6.571  33.351  1.00  0.00    -0.349 OA
BRANCH  27  28
HETATM   28  C20 UNK     1      29.057  -5.768  32.815  1.00  0.00     0.171 C 
HETATM   29  C22 UNK     1      28.931  -5.734  31.307  1.00  0.00     0.034 C 
ENDBRANCH  27  28
ENDBRANCH  22  27
ENDBRANCH   5  18
BRANCH  11  30
HETATM   30  N1  UNK     1      29.853  -3.977  38.934  1.00  0.00    -0.379 N 
HETATM   31  H7  UNK     1      29.541  -3.195  39.495  1.00  0.00     0.158 HD
HETATM   32  H8  UNK     1      30.787  -3.980  38.542  1.00  0.00     0.158 HD
ENDBRANCH  11  30
TORSDOF 6
ENDMDL
MODEL 9
REMARK VINA RESULT:      -7.6      2.467      7.281
REMARK  6 active torsions:
REMARK  status: ('A' for Active; 'I' for Inactive)
REMARK    1  A    between atoms: C12_19  and  O3_3 
REMARK    2  A    between atoms: C20_27  and  O3_3 
REMARK    3  A    between atoms: C14_21  and  O5_5 
REMARK    4  A    between atoms: C21_28  and  O5_5 
REMARK    5  A    between atoms: C9_16  and  N1_6 
REMARK    6  A    between atoms: C1_8  and  C3_10 
ROOT
HETATM    1  O1  UNK     1      34.079  -9.392  29.748  1.00  0.00    -0.269 OA
HETATM    2  O2  UNK     1      31.893  -9.838  29.030  1.00  0.00    -0.286 OA
HETATM    3  O4  UNK     1      30.362  -7.045  31.562  1.00  0.00    -0.287 OA
HETATM    4  N2  UNK     1      36.477  -6.185  32.427  1.00  0.00    -0.191 NA
HETATM    5  C1  UNK     1      33.221  -7.452  31.675  1.00  0.00     0.109 C 
HETATM    6  C2  UNK     1      32.280  -8.204  30.760  1.00  0.00     0.065 A 
HETATM    7  C4  UNK     1      34.681  -7.675  31.301  1.00  0.00     0.086 C 
HETATM    8  C5  UNK     1      32.723  -9.114  29.873  1.00  0.00     0.204 A 
HETATM    9  C6  UNK     1      30.824  -7.903  30.821  1.00  0.00     0.197 A 
HETATM   10  C7  UNK     1      29.958  -8.694  29.936  1.00  0.00     0.049 A 
HETATM   11  C9  UNK     1      35.036  -8.608  30.390  1.00  0.00     0.162 C 
HETATM   12  C11 UNK     1      30.541  -9.626  29.085  1.00  0.00     0.092 A 
HETATM   13  C15 UNK     1      28.572  -8.517  29.946  1.00  0.00     0.018 A 
HETATM   14  C16 UNK     1      29.742 -10.391  28.234  1.00  0.00     0.038 A 
HETATM   15  C17 UNK     1      35.673  -6.853  31.923  1.00  0.00     0.100 C 
HETATM   16  C18 UNK     1      27.774  -9.282  29.094  1.00  0.00     0.001 A 
HETATM   17  C19 UNK     1      28.358 -10.218  28.239  1.00  0.00     0.003 A 
ENDROOT
BRANCH   5  18
HETATM   18  C3  UNK     1      32.988  -7.843  33.106  1.00  0.00    -0.041 A 
HETATM   19  C10 UNK     1      33.034  -9.185  33.467  1.00  0.00     0.011 A 
HETATM   20  C13 UNK     1      32.818  -9.549  34.796  1.00  0.00     0.040 A 
HETATM   21  C14 UNK     1      32.557  -8.569  35.754  1.00  0.00     0.102 A 
HETATM   22  C12 UNK     1      32.514  -7.224  35.384  1.00  0.00     0.102 A 
HETATM   23  C8  UNK     1      32.729  -6.861  34.054  1.00  0.00     0.047 A 
BRANCH  21  24
HETATM   24  O5  UNK     1      32.347  -8.936  37.049  1.00  0.00    -0.349 OA
BRANCH  24  25
HETATM   25  C21 UNK     1      31.281  -9.852  37.298  1.00  0.00     0.171 C 
HETATM   26  C23 UNK     1      29.996  -9.073  37.484  1.00  0.00     0.034 C 
ENDBRANCH  24  25
ENDBRANCH  21  24
BRANCH  22  27
HETATM   27  O3  UNK     1      32.259  -6.259  36.310  1.00  0.00    -0.349 OA
BRANCH  27  28
HETATM   28  C20 UNK     1      30.983  -5.626  36.251  1.00  0.00     0.171 C 
HETATM   29  C22 UNK     1      30.981  -4.433  37.182  1.00  0.00     0.034 C 
ENDBRANCH  27  28
ENDBRANCH  22  27
ENDBRANCH   5  18
BRANCH  11  30
HETATM   30  N1  UNK     1      36.319  -8.884  30.006  1.00  0.00    -0.379 N 
HETATM   31  H7  UNK     1      36.510  -9.419  29.169  1.00  0.00     0.158 HD
HETATM   32  H8  UNK     1      37.083  -8.542  30.576  1.00  0.00     0.158 HD
ENDBRANCH  11  30
TORSDOF 6
ENDMDL
MODEL 10
REMARK VINA RESULT:      -7.6      2.059      3.225
REMARK  6 active torsions:
REMARK  status: ('A' for Active; 'I' for Inactive)
REMARK    1  A    between atoms: C12_19  and  O3_3 
REMARK    2  A    between atoms: C20_27  and  O3_3 
REMARK    3  A    between atoms: C14_21  and  O5_5 
REMARK    4  A    between atoms: C21_28  and  O5_5 
REMARK    5  A    between atoms: C9_16  and  N1_6 
REMARK    6  A    between atoms: C1_8  and  C3_10 
ROOT
HETATM    1  O1  UNK     1      33.453  -5.238  34.956  1.00  0.00    -0.269 OA
HETATM    2  O2  UNK     1      31.823  -4.702  36.552  1.00  0.00    -0.286 OA
HETATM    3  O4  UNK     1      29.820  -8.173  35.851  1.00  0.00    -0.287 OA
HETATM    4  N2  UNK     1      34.848  -8.972  32.251  1.00  0.00    -0.191 NA
HETATM    5  C1  UNK     1      32.160  -7.689  34.225  1.00  0.00     0.109 C 
HETATM    6  C2  UNK     1      31.641  -6.748  35.289  1.00  0.00     0.065 A 
HETATM    7  C4  UNK     1      33.555  -7.303  33.752  1.00  0.00     0.086 C 
HETATM    8  C5  UNK     1      32.274  -5.601  35.598  1.00  0.00     0.204 A 
HETATM    9  C6  UNK     1      30.410  -7.118  36.040  1.00  0.00     0.197 A 
HETATM   10  C7  UNK     1      29.935  -6.144  37.032  1.00  0.00     0.049 A 
HETATM   11  C9  UNK     1      34.120  -6.130  34.119  1.00  0.00     0.162 C 
HETATM   12  C11 UNK     1      30.669  -4.980  37.235  1.00  0.00     0.092 A 
HETATM   13  C15 UNK     1      28.767  -6.378  37.762  1.00  0.00     0.018 A 
HETATM   14  C16 UNK     1      30.240  -4.039  38.172  1.00  0.00     0.038 A 
HETATM   15  C17 UNK     1      34.269  -8.224  32.922  1.00  0.00     0.100 C 
HETATM   16  C18 UNK     1      28.339  -5.436  38.699  1.00  0.00     0.001 A 
HETATM   17  C19 UNK     1      29.075  -4.267  38.903  1.00  0.00     0.003 A 
ENDROOT
BRANCH   5  18
HETATM   18  C3  UNK     1      31.213  -7.740  33.061  1.00  0.00    -0.041 A 
HETATM   19  C10 UNK     1      30.683  -8.961  32.660  1.00  0.00     0.011 A 
HETATM   20  C13 UNK     1      29.804  -9.009  31.579  1.00  0.00     0.040 A 
HETATM   21  C14 UNK     1      29.462  -7.836  30.905  1.00  0.00     0.102 A 
HETATM   22  C12 UNK     1      29.998  -6.615  31.313  1.00  0.00     0.102 A 
HETATM   23  C8  UNK     1      30.878  -6.567  32.395  1.00  0.00     0.047 A 
BRANCH  21  24
HETATM   24  O5  UNK     1      28.603  -7.896  29.849  1.00  0.00    -0.349 OA
BRANCH  24  25
HETATM   25  C21 UNK     1      27.248  -8.241  30.134  1.00  0.00     0.171 C 
HETATM   26  C23 UNK     1      26.470  -6.978  30.433  1.00  0.00     0.034 C 
ENDBRANCH  24  25
ENDBRANCH  21  24
BRANCH  22  27
HETATM   27  O3  UNK     1      29.674  -5.463  30.662  1.00  0.00    -0.349 OA
BRANCH  27  28
HETATM   28  C20 UNK     1      29.940  -4.238  31.341  1.00  0.00     0.171 C 
HETATM   29  C22 UNK     1      30.036  -3.122  30.324  1.00  0.00     0.034 C 
ENDBRANCH  27  28
ENDBRANCH  22  27
ENDBRANCH   5  18
BRANCH  11  30
HETATM   30  N1  UNK     1      35.358  -5.698  33.730  1.00  0.00    -0.379 N 
HETATM   31  H7  UNK     1      36.021  -6.332  33.303  1.00  0.00     0.158 HD
HETATM   32  H8  UNK     1      35.602  -4.726  33.873  1.00  0.00     0.158 HD
ENDBRANCH  11  30
TORSDOF 6
ENDMDL
