MODEL 1
REMARK VINA RESULT:     -10.2      0.000      0.000
REMARK  10 active torsions:
REMARK  status: ('A' for Active; 'I' for Inactive)
REMARK    1  A    between atoms: C5_16  and  S1_1 
REMARK    2  A    between atoms: N1_10  and  S1_1 
REMARK    3  A    between atoms: C4_15  and  O1_2 
REMARK    4  A    between atoms: C9_20  and  O1_2 
REMARK    5  A    between atoms: C1_12  and  N1_10 
REMARK    6  A    between atoms: C32_43  and  N2_11 
REMARK    7  A    between atoms: C1_12  and  C2_13 
REMARK    8  A    between atoms: C1_12  and  C4_15 
REMARK    9  A    between atoms: C2_13  and  C3_14 
REMARK   10  A    between atoms: C19_30  and  C8_19 
ROOT
HETATM    1  O1  UNK     1      28.776  -9.757  38.711  1.00  0.00    -0.277 OA
ENDROOT
BRANCH   1   2
HETATM    2  C4  UNK     1      29.715  -9.327  37.754  1.00  0.00     0.287 C 
HETATM    3  O5  UNK     1      30.479 -10.063  37.141  1.00  0.00    -0.262 OA
BRANCH   2   4
HETATM    4  C1  UNK     1      29.654  -7.820  37.612  1.00  0.00     0.197 C 
BRANCH   4   5
HETATM    5  N1  UNK     1      29.752  -7.548  36.156  1.00  0.00    -0.301 N 
HETATM    6  H4  UNK     1      30.658  -7.743  35.711  1.00  0.00     0.173 HD
BRANCH   5   7
HETATM    7  S1  UNK     1      28.348  -7.533  35.203  1.00  0.00     0.259 S 
HETATM    8  O3  UNK     1      27.299  -6.813  35.901  1.00  0.00    -0.201 OA
HETATM    9  O4  UNK     1      28.107  -8.873  34.706  1.00  0.00    -0.201 OA
BRANCH   7  10
HETATM   10  C5  UNK     1      28.855  -6.553  33.821  1.00  0.00     0.079 A 
HETATM   11  C15 UNK     1      30.107  -5.940  33.822  1.00  0.00     0.026 A 
HETATM   12  C21 UNK     1      30.505  -5.167  32.733  1.00  0.00     0.008 A 
HETATM   13  C20 UNK     1      29.652  -5.007  31.640  1.00  0.00    -0.062 A 
HETATM   14  C22 UNK     1      28.400  -5.621  31.640  1.00  0.00     0.008 A 
HETATM   15  C29 UNK     1      30.077  -4.181  30.474  1.00  0.00     0.048 C 
HETATM   16  C16 UNK     1      28.000  -6.394  32.730  1.00  0.00     0.026 A 
ENDBRANCH   7  10
ENDBRANCH   5   7
ENDBRANCH   4   5
BRANCH   4  17
HETATM   17  C2  UNK     1      30.820  -7.133  38.325  1.00  0.00     0.074 C 
BRANCH  17  18
HETATM   18  C3  UNK     1      31.234  -5.832  37.681  1.00  0.00    -0.056 A 
HETATM   19  C10 UNK     1      30.455  -4.688  37.857  1.00  0.00     0.007 A 
HETATM   20  C23 UNK     1      30.837  -3.485  37.262  1.00  0.00     0.001 A 
HETATM   21  C25 UNK     1      31.998  -3.428  36.490  1.00  0.00     0.000 A 
HETATM   22  C24 UNK     1      32.777  -4.571  36.314  1.00  0.00     0.001 A 
HETATM   23  C11 UNK     1      32.394  -5.773  36.909  1.00  0.00     0.007 A 
ENDBRANCH  17  18
ENDBRANCH   4  17
ENDBRANCH   2   4
ENDBRANCH   1   2
BRANCH   1  24
HETATM   24  C9  UNK     1      27.506  -9.317  38.492  1.00  0.00     0.082 A 
HETATM   25  C13 UNK     1      26.664 -10.022  37.633  1.00  0.00     0.075 A 
HETATM   26  C7  UNK     1      25.363  -9.570  37.410  1.00  0.00     0.092 A 
HETATM   27  C6  UNK     1      24.908  -8.418  38.043  1.00  0.00     0.049 A 
HETATM   28  O2  UNK     1      24.583 -10.303  36.556  1.00  0.00    -0.313 OA
HETATM   29  C12 UNK     1      23.534  -7.966  37.789  1.00  0.00     0.198 A 
HETATM   30  C17 UNK     1      25.749  -7.709  38.904  1.00  0.00     0.021 A 
HETATM   31  O6  UNK     1      23.088  -6.958  38.323  1.00  0.00    -0.286 OA
HETATM   32  C8  UNK     1      22.717  -8.795  36.856  1.00  0.00     0.054 A 
HETATM   33  C14 UNK     1      23.281  -9.892  36.307  1.00  0.00     0.065 A 
HETATM   34  C26 UNK     1      22.587 -10.822  35.351  1.00  0.00     0.077 C 
HETATM   35  C18 UNK     1      27.050  -8.162  39.126  1.00  0.00     0.038 A 
BRANCH  32  36
HETATM   36  C19 UNK     1      21.345  -8.399  36.567  1.00  0.00    -0.019 A 
HETATM   37  C27 UNK     1      20.313  -8.783  37.423  1.00  0.00     0.015 A 
HETATM   38  C30 UNK     1      19.000  -8.402  37.146  1.00  0.00     0.037 A 
HETATM   39  C32 UNK     1      18.720  -7.636  36.014  1.00  0.00     0.102 A 
HETATM   40  C31 UNK     1      19.752  -7.251  35.159  1.00  0.00     0.037 A 
HETATM   41  C28 UNK     1      21.065  -7.632  35.435  1.00  0.00     0.015 A 
BRANCH  39  42
HETATM   42  N2  UNK     1      17.383  -7.247  35.732  1.00  0.00    -0.116 N 
HETATM   43  O7  UNK     1      16.818  -7.709  34.711  1.00  0.00    -0.532 OA
HETATM   44  O8  UNK     1      16.804  -6.454  36.511  1.00  0.00    -0.532 OA
ENDBRANCH  39  42
ENDBRANCH  32  36
ENDBRANCH   1  24
TORSDOF 10
ENDMDL
MODEL 2
REMARK VINA RESULT:     -10.0      2.596      4.322
REMARK  10 active torsions:
REMARK  status: ('A' for Active; 'I' for Inactive)
REMARK    1  A    between atoms: C5_16  and  S1_1 
REMARK    2  A    between atoms: N1_10  and  S1_1 
REMARK    3  A    between atoms: C4_15  and  O1_2 
REMARK    4  A    between atoms: C9_20  and  O1_2 
REMARK    5  A    between atoms: C1_12  and  N1_10 
REMARK    6  A    between atoms: C32_43  and  N2_11 
REMARK    7  A    between atoms: C1_12  and  C2_13 
REMARK    8  A    between atoms: C1_12  and  C4_15 
REMARK    9  A    between atoms: C2_13  and  C3_14 
REMARK   10  A    between atoms: C19_30  and  C8_19 
ROOT
HETATM    1  O1  UNK     1      32.278  -7.150  37.834  1.00  0.00    -0.277 OA
ENDROOT
BRANCH   1   2
HETATM    2  C4  UNK     1      32.781  -6.430  36.733  1.00  0.00     0.287 C 
HETATM    3  O5  UNK     1      33.615  -5.535  36.802  1.00  0.00    -0.262 OA
BRANCH   2   4
HETATM    4  C1  UNK     1      32.124  -6.914  35.458  1.00  0.00     0.197 C 
BRANCH   4   5
HETATM    5  N1  UNK     1      33.124  -7.787  34.794  1.00  0.00    -0.301 N 
HETATM    6  H4  UNK     1      34.107  -7.492  34.857  1.00  0.00     0.173 HD
BRANCH   5   7
HETATM    7  S1  UNK     1      32.767  -9.423  34.518  1.00  0.00     0.259 S 
HETATM    8  O3  UNK     1      32.252 -10.016  35.738  1.00  0.00    -0.201 OA
HETATM    9  O4  UNK     1      33.883 -10.034  33.824  1.00  0.00    -0.201 OA
BRANCH   7  10
HETATM   10  C5  UNK     1      31.435  -9.316  33.360  1.00  0.00     0.079 A 
HETATM   11  C15 UNK     1      31.648  -8.755  32.101  1.00  0.00     0.026 A 
HETATM   12  C21 UNK     1      30.597  -8.670  31.189  1.00  0.00     0.008 A 
HETATM   13  C20 UNK     1      29.332  -9.147  31.535  1.00  0.00    -0.062 A 
HETATM   14  C22 UNK     1      29.119  -9.707  32.794  1.00  0.00     0.008 A 
HETATM   15  C29 UNK     1      28.207  -9.056  30.560  1.00  0.00     0.048 C 
HETATM   16  C16 UNK     1      30.171  -9.792  33.707  1.00  0.00     0.026 A 
ENDBRANCH   7  10
ENDBRANCH   5   7
ENDBRANCH   4   5
BRANCH   4  17
HETATM   17  C2  UNK     1      31.778  -5.755  34.520  1.00  0.00     0.074 C 
BRANCH  17  18
HETATM   18  C3  UNK     1      30.393  -5.856  33.926  1.00  0.00    -0.056 A 
HETATM   19  C10 UNK     1      30.149  -5.374  32.641  1.00  0.00     0.007 A 
HETATM   20  C23 UNK     1      28.870  -5.466  32.092  1.00  0.00     0.001 A 
HETATM   21  C25 UNK     1      27.835  -6.040  32.830  1.00  0.00     0.000 A 
HETATM   22  C24 UNK     1      28.078  -6.522  34.116  1.00  0.00     0.001 A 
HETATM   23  C11 UNK     1      29.358  -6.428  34.664  1.00  0.00     0.007 A 
ENDBRANCH  17  18
ENDBRANCH   4  17
ENDBRANCH   2   4
ENDBRANCH   1   2
BRANCH   1  24
HETATM   24  C9  UNK     1      30.923  -7.112  37.962  1.00  0.00     0.082 A 
HETATM   25  C13 UNK     1      30.172  -8.269  37.760  1.00  0.00     0.075 A 
HETATM   26  C7  UNK     1      28.783  -8.227  37.892  1.00  0.00     0.092 A 
HETATM   27  C6  UNK     1      28.151  -7.033  38.221  1.00  0.00     0.049 A 
HETATM   28  O2  UNK     1      28.099  -9.395  37.682  1.00  0.00    -0.313 OA
HETATM   29  C12 UNK     1      26.688  -7.019  38.353  1.00  0.00     0.198 A 
HETATM   30  C17 UNK     1      28.900  -5.871  38.423  1.00  0.00     0.021 A 
HETATM   31  O6  UNK     1      26.085  -5.992  38.641  1.00  0.00    -0.286 OA
HETATM   32  C8  UNK     1      25.982  -8.312  38.120  1.00  0.00     0.054 A 
HETATM   33  C14 UNK     1      26.717  -9.400  37.805  1.00  0.00     0.065 A 
HETATM   34  C26 UNK     1      26.150 -10.768  37.542  1.00  0.00     0.077 C 
HETATM   35  C18 UNK     1      30.288  -5.915  38.291  1.00  0.00     0.038 A 
BRANCH  32  36
HETATM   36  C19 UNK     1      24.531  -8.362  38.239  1.00  0.00    -0.019 A 
HETATM   37  C27 UNK     1      23.920  -8.081  39.461  1.00  0.00     0.015 A 
HETATM   38  C30 UNK     1      22.530  -8.127  39.573  1.00  0.00     0.037 A 
HETATM   39  C32 UNK     1      21.751  -8.454  38.462  1.00  0.00     0.102 A 
HETATM   40  C31 UNK     1      22.362  -8.736  37.240  1.00  0.00     0.037 A 
HETATM   41  C28 UNK     1      23.751  -8.689  37.128  1.00  0.00     0.015 A 
BRANCH  39  42
HETATM   42  N2  UNK     1      20.337  -8.501  38.576  1.00  0.00    -0.116 N 
HETATM   43  O7  UNK     1      19.675  -9.108  37.698  1.00  0.00    -0.532 OA
HETATM   44  O8  UNK     1      19.786  -7.936  39.551  1.00  0.00    -0.532 OA
ENDBRANCH  39  42
ENDBRANCH  32  36
ENDBRANCH   1  24
TORSDOF 10
ENDMDL
MODEL 3
REMARK VINA RESULT:     -10.0      9.766     13.095
REMARK  10 active torsions:
REMARK  status: ('A' for Active; 'I' for Inactive)
REMARK    1  A    between atoms: C5_16  and  S1_1 
REMARK    2  A    between atoms: N1_10  and  S1_1 
REMARK    3  A    between atoms: C4_15  and  O1_2 
REMARK    4  A    between atoms: C9_20  and  O1_2 
REMARK    5  A    between atoms: C1_12  and  N1_10 
REMARK    6  A    between atoms: C32_43  and  N2_11 
REMARK    7  A    between atoms: C1_12  and  C2_13 
REMARK    8  A    between atoms: C1_12  and  C4_15 
REMARK    9  A    between atoms: C2_13  and  C3_14 
REMARK   10  A    between atoms: C19_30  and  C8_19 
ROOT
HETATM    1  O1  UNK     1      17.564   3.332  34.108  1.00  0.00    -0.277 OA
ENDROOT
BRANCH   1   2
HETATM    2  C4  UNK     1      18.686   4.107  33.752  1.00  0.00     0.287 C 
HETATM    3  O5  UNK     1      19.616   4.380  34.501  1.00  0.00    -0.262 OA
BRANCH   2   4
HETATM    4  C1  UNK     1      18.558   4.567  32.315  1.00  0.00     0.197 C 
BRANCH   4   5
HETATM    5  N1  UNK     1      19.185   3.501  31.493  1.00  0.00    -0.301 N 
HETATM    6  H4  UNK     1      19.908   2.932  31.950  1.00  0.00     0.173 HD
BRANCH   5   7
HETATM    7  S1  UNK     1      18.351   2.864  30.159  1.00  0.00     0.259 S 
HETATM    8  O3  UNK     1      18.659   3.649  28.978  1.00  0.00    -0.201 OA
HETATM    9  O4  UNK     1      16.972   2.628  30.539  1.00  0.00    -0.201 OA
BRANCH   7  10
HETATM   10  C5  UNK     1      19.114   1.280  29.974  1.00  0.00     0.079 A 
HETATM   11  C15 UNK     1      19.735   0.673  31.065  1.00  0.00     0.026 A 
HETATM   12  C21 UNK     1      20.338  -0.576  30.918  1.00  0.00     0.008 A 
HETATM   13  C20 UNK     1      20.319  -1.219  29.679  1.00  0.00    -0.062 A 
HETATM   14  C22 UNK     1      19.698  -0.611  28.589  1.00  0.00     0.008 A 
HETATM   15  C29 UNK     1      20.962  -2.555  29.522  1.00  0.00     0.048 C 
HETATM   16  C16 UNK     1      19.095   0.638  28.735  1.00  0.00     0.026 A 
ENDBRANCH   7  10
ENDBRANCH   5   7
ENDBRANCH   4   5
BRANCH   4  17
HETATM   17  C2  UNK     1      19.300   5.882  32.069  1.00  0.00     0.074 C 
BRANCH  17  18
HETATM   18  C3  UNK     1      18.594   7.086  32.643  1.00  0.00    -0.056 A 
HETATM   19  C10 UNK     1      19.254   7.915  33.550  1.00  0.00     0.007 A 
HETATM   20  C23 UNK     1      18.602   9.028  34.081  1.00  0.00     0.001 A 
HETATM   21  C25 UNK     1      17.288   9.311  33.705  1.00  0.00     0.000 A 
HETATM   22  C24 UNK     1      16.628   8.482  32.798  1.00  0.00     0.001 A 
HETATM   23  C11 UNK     1      17.281   7.369  32.268  1.00  0.00     0.007 A 
ENDBRANCH  17  18
ENDBRANCH   4  17
ENDBRANCH   2   4
ENDBRANCH   1   2
BRANCH   1  24
HETATM   24  C9  UNK     1      17.861   2.182  34.774  1.00  0.00     0.082 A 
HETATM   25  C13 UNK     1      18.522   1.147  34.114  1.00  0.00     0.075 A 
HETATM   26  C7  UNK     1      18.825  -0.031  34.799  1.00  0.00     0.092 A 
HETATM   27  C6  UNK     1      18.465  -0.172  36.135  1.00  0.00     0.049 A 
HETATM   28  O2  UNK     1      19.476  -1.011  34.099  1.00  0.00    -0.313 OA
HETATM   29  C12 UNK     1      18.797  -1.423  36.830  1.00  0.00     0.198 A 
HETATM   30  C17 UNK     1      17.801   0.863  36.799  1.00  0.00     0.021 A 
HETATM   31  O6  UNK     1      18.501  -1.594  38.006  1.00  0.00    -0.286 OA
HETATM   32  C8  UNK     1      19.509  -2.463  36.033  1.00  0.00     0.054 A 
HETATM   33  C14 UNK     1      19.799  -2.199  34.741  1.00  0.00     0.065 A 
HETATM   34  C26 UNK     1      20.509  -3.146  33.813  1.00  0.00     0.077 C 
HETATM   35  C18 UNK     1      17.500   2.040  36.113  1.00  0.00     0.038 A 
BRANCH  32  36
HETATM   36  C19 UNK     1      19.866  -3.725  36.667  1.00  0.00    -0.019 A 
HETATM   37  C27 UNK     1      19.019  -4.828  36.554  1.00  0.00     0.015 A 
HETATM   38  C30 UNK     1      19.363  -6.036  37.160  1.00  0.00     0.037 A 
HETATM   39  C32 UNK     1      20.555  -6.142  37.878  1.00  0.00     0.102 A 
HETATM   40  C31 UNK     1      21.402  -5.039  37.992  1.00  0.00     0.037 A 
HETATM   41  C28 UNK     1      21.058  -3.831  37.386  1.00  0.00     0.015 A 
BRANCH  39  42
HETATM   42  N2  UNK     1      20.905  -7.372  38.495  1.00  0.00    -0.116 N 
HETATM   43  O7  UNK     1      20.524  -8.446  37.970  1.00  0.00    -0.532 OA
HETATM   44  O8  UNK     1      21.587  -7.352  39.548  1.00  0.00    -0.532 OA
ENDBRANCH  39  42
ENDBRANCH  32  36
ENDBRANCH   1  24
TORSDOF 10
ENDMDL
MODEL 4
REMARK VINA RESULT:      -9.9      3.080      5.112
REMARK  10 active torsions:
REMARK  status: ('A' for Active; 'I' for Inactive)
REMARK    1  A    between atoms: C5_16  and  S1_1 
REMARK    2  A    between atoms: N1_10  and  S1_1 
REMARK    3  A    between atoms: C4_15  and  O1_2 
REMARK    4  A    between atoms: C9_20  and  O1_2 
REMARK    5  A    between atoms: C1_12  and  N1_10 
REMARK    6  A    between atoms: C32_43  and  N2_11 
REMARK    7  A    between atoms: C1_12  and  C2_13 
REMARK    8  A    between atoms: C1_12  and  C4_15 
REMARK    9  A    between atoms: C2_13  and  C3_14 
REMARK   10  A    between atoms: C19_30  and  C8_19 
ROOT
HETATM    1  O1  UNK     1      31.325  -5.077  38.294  1.00  0.00    -0.277 OA
ENDROOT
BRANCH   1   2
HETATM    2  C4  UNK     1      31.712  -4.446  37.096  1.00  0.00     0.287 C 
HETATM    3  O5  UNK     1      31.734  -3.235  36.917  1.00  0.00    -0.262 OA
BRANCH   2   4
HETATM    4  C1  UNK     1      32.076  -5.489  36.060  1.00  0.00     0.197 C 
BRANCH   4   5
HETATM    5  N1  UNK     1      33.556  -5.445  35.946  1.00  0.00    -0.301 N 
HETATM    6  H4  UNK     1      33.990  -4.513  35.942  1.00  0.00     0.173 HD
BRANCH   5   7
HETATM    7  S1  UNK     1      34.479  -6.787  36.420  1.00  0.00     0.259 S 
HETATM    8  O3  UNK     1      34.518  -6.859  37.868  1.00  0.00    -0.201 OA
HETATM    9  O4  UNK     1      35.711  -6.800  35.656  1.00  0.00    -0.201 OA
BRANCH   7  10
HETATM   10  C5  UNK     1      33.495  -8.134  35.834  1.00  0.00     0.079 A 
HETATM   11  C15 UNK     1      33.672  -8.615  34.537  1.00  0.00     0.026 A 
HETATM   12  C21 UNK     1      32.894  -9.676  34.075  1.00  0.00     0.008 A 
HETATM   13  C20 UNK     1      31.939 -10.257  34.910  1.00  0.00    -0.062 A 
HETATM   14  C22 UNK     1      31.761  -9.774  36.207  1.00  0.00     0.008 A 
HETATM   15  C29 UNK     1      31.107 -11.392  34.417  1.00  0.00     0.048 C 
HETATM   16  C16 UNK     1      32.539  -8.713  36.669  1.00  0.00     0.026 A 
ENDBRANCH   7  10
ENDBRANCH   5   7
ENDBRANCH   4   5
BRANCH   4  17
HETATM   17  C2  UNK     1      31.465  -5.172  34.693  1.00  0.00     0.074 C 
BRANCH  17  18
HETATM   18  C3  UNK     1      30.683  -6.321  34.104  1.00  0.00    -0.056 A 
HETATM   19  C10 UNK     1      30.949  -6.753  32.806  1.00  0.00     0.007 A 
HETATM   20  C23 UNK     1      30.227  -7.814  32.260  1.00  0.00     0.001 A 
HETATM   21  C25 UNK     1      29.236  -8.443  33.015  1.00  0.00     0.000 A 
HETATM   22  C24 UNK     1      28.968  -8.011  34.314  1.00  0.00     0.001 A 
HETATM   23  C11 UNK     1      29.691  -6.949  34.858  1.00  0.00     0.007 A 
ENDBRANCH  17  18
ENDBRANCH   4  17
ENDBRANCH   2   4
ENDBRANCH   1   2
BRANCH   1  24
HETATM   24  C9  UNK     1      29.994  -5.353  38.382  1.00  0.00     0.082 A 
HETATM   25  C13 UNK     1      29.546  -6.668  38.260  1.00  0.00     0.075 A 
HETATM   26  C7  UNK     1      28.182  -6.948  38.350  1.00  0.00     0.092 A 
HETATM   27  C6  UNK     1      27.272  -5.917  38.561  1.00  0.00     0.049 A 
HETATM   28  O2  UNK     1      27.803  -8.258  38.222  1.00  0.00    -0.313 OA
HETATM   29  C12 UNK     1      25.843  -6.242  38.652  1.00  0.00     0.198 A 
HETATM   30  C17 UNK     1      27.717  -4.599  38.684  1.00  0.00     0.021 A 
HETATM   31  O6  UNK     1      25.003  -5.370  38.837  1.00  0.00    -0.286 OA
HETATM   32  C8  UNK     1      25.472  -7.680  38.511  1.00  0.00     0.054 A 
HETATM   33  C14 UNK     1      26.456  -8.583  38.308  1.00  0.00     0.065 A 
HETATM   34  C26 UNK     1      26.239 -10.062  38.147  1.00  0.00     0.077 C 
HETATM   35  C18 UNK     1      29.081  -4.320  38.593  1.00  0.00     0.038 A 
BRANCH  32  36
HETATM   36  C19 UNK     1      24.070  -8.065  38.595  1.00  0.00    -0.019 A 
HETATM   37  C27 UNK     1      23.378  -8.438  37.442  1.00  0.00     0.015 A 
HETATM   38  C30 UNK     1      22.036  -8.808  37.522  1.00  0.00     0.037 A 
HETATM   39  C32 UNK     1      21.385  -8.807  38.757  1.00  0.00     0.102 A 
HETATM   40  C31 UNK     1      22.076  -8.435  39.910  1.00  0.00     0.037 A 
HETATM   41  C28 UNK     1      23.419  -8.065  39.829  1.00  0.00     0.015 A 
BRANCH  39  42
HETATM   42  N2  UNK     1      20.019  -9.185  38.840  1.00  0.00    -0.116 N 
HETATM   43  O7  UNK     1      19.725 -10.306  39.322  1.00  0.00    -0.532 OA
HETATM   44  O8  UNK     1      19.142  -8.388  38.429  1.00  0.00    -0.532 OA
ENDBRANCH  39  42
ENDBRANCH  32  36
ENDBRANCH   1  24
TORSDOF 10
ENDMDL
MODEL 5
REMARK VINA RESULT:      -9.8      1.714      2.669
REMARK  10 active torsions:
REMARK  status: ('A' for Active; 'I' for Inactive)
REMARK    1  A    between atoms: C5_16  and  S1_1 
REMARK    2  A    between atoms: N1_10  and  S1_1 
REMARK    3  A    between atoms: C4_15  and  O1_2 
REMARK    4  A    between atoms: C9_20  and  O1_2 
REMARK    5  A    between atoms: C1_12  and  N1_10 
REMARK    6  A    between atoms: C32_43  and  N2_11 
REMARK    7  A    between atoms: C1_12  and  C2_13 
REMARK    8  A    between atoms: C1_12  and  C4_15 
REMARK    9  A    between atoms: C2_13  and  C3_14 
REMARK   10  A    between atoms: C19_30  and  C8_19 
ROOT
HETATM    1  O1  UNK     1      28.858  -9.797  38.346  1.00  0.00    -0.277 OA
ENDROOT
BRANCH   1   2
HETATM    2  C4  UNK     1      29.849  -8.925  37.854  1.00  0.00     0.287 C 
HETATM    3  O5  UNK     1      30.849  -8.580  38.471  1.00  0.00    -0.262 OA
BRANCH   2   4
HETATM    4  C1  UNK     1      29.483  -8.466  36.458  1.00  0.00     0.197 C 
BRANCH   4   5
HETATM    5  N1  UNK     1      30.479  -9.091  35.553  1.00  0.00    -0.301 N 
HETATM    6  H4  UNK     1      31.452  -9.111  35.882  1.00  0.00     0.173 HD
BRANCH   5   7
HETATM    7  S1  UNK     1      29.974 -10.223  34.394  1.00  0.00     0.259 S 
HETATM    8  O3  UNK     1      28.529 -10.345  34.437  1.00  0.00    -0.201 OA
HETATM    9  O4  UNK     1      30.809 -11.403  34.499  1.00  0.00    -0.201 OA
BRANCH   7  10
HETATM   10  C5  UNK     1      30.407  -9.416  32.881  1.00  0.00     0.079 A 
HETATM   11  C15 UNK     1      29.475  -9.325  31.847  1.00  0.00     0.026 A 
HETATM   12  C21 UNK     1      29.818  -8.689  30.655  1.00  0.00     0.008 A 
HETATM   13  C20 UNK     1      31.092  -8.144  30.495  1.00  0.00    -0.062 A 
HETATM   14  C22 UNK     1      32.023  -8.236  31.529  1.00  0.00     0.008 A 
HETATM   15  C29 UNK     1      31.459  -7.464  29.220  1.00  0.00     0.048 C 
HETATM   16  C16 UNK     1      31.681  -8.872  32.723  1.00  0.00     0.026 A 
ENDBRANCH   7  10
ENDBRANCH   5   7
ENDBRANCH   4   5
BRANCH   4  17
HETATM   17  C2  UNK     1      29.572  -6.945  36.318  1.00  0.00     0.074 C 
BRANCH  17  18
HETATM   18  C3  UNK     1      29.366  -6.459  34.903  1.00  0.00    -0.056 A 
HETATM   19  C10 UNK     1      28.130  -6.629  34.280  1.00  0.00     0.007 A 
HETATM   20  C23 UNK     1      27.939  -6.181  32.973  1.00  0.00     0.001 A 
HETATM   21  C25 UNK     1      28.986  -5.563  32.289  1.00  0.00     0.000 A 
HETATM   22  C24 UNK     1      30.223  -5.393  32.911  1.00  0.00     0.001 A 
HETATM   23  C11 UNK     1      30.412  -5.842  34.218  1.00  0.00     0.007 A 
ENDBRANCH  17  18
ENDBRANCH   4  17
ENDBRANCH   2   4
ENDBRANCH   1   2
BRANCH   1  24
HETATM   24  C9  UNK     1      27.582  -9.353  38.178  1.00  0.00     0.082 A 
HETATM   25  C13 UNK     1      26.698 -10.069  37.372  1.00  0.00     0.075 A 
HETATM   26  C7  UNK     1      25.390  -9.612  37.200  1.00  0.00     0.092 A 
HETATM   27  C6  UNK     1      24.972  -8.445  37.830  1.00  0.00     0.049 A 
HETATM   28  O2  UNK     1      24.568 -10.357  36.397  1.00  0.00    -0.313 OA
HETATM   29  C12 UNK     1      23.590  -7.989  37.632  1.00  0.00     0.198 A 
HETATM   30  C17 UNK     1      25.856  -7.725  38.638  1.00  0.00     0.021 A 
HETATM   31  O6  UNK     1      23.175  -6.968  38.166  1.00  0.00    -0.286 OA
HETATM   32  C8  UNK     1      22.726  -8.830  36.754  1.00  0.00     0.054 A 
HETATM   33  C14 UNK     1      23.258  -9.942  36.200  1.00  0.00     0.065 A 
HETATM   34  C26 UNK     1      22.515 -10.886  35.296  1.00  0.00     0.077 C 
HETATM   35  C18 UNK     1      27.162  -8.183  38.809  1.00  0.00     0.038 A 
BRANCH  32  36
HETATM   36  C19 UNK     1      21.345  -8.431  36.520  1.00  0.00    -0.019 A 
HETATM   37  C27 UNK     1      20.350  -8.793  37.429  1.00  0.00     0.015 A 
HETATM   38  C30 UNK     1      19.028  -8.409  37.206  1.00  0.00     0.037 A 
HETATM   39  C32 UNK     1      18.701  -7.661  36.074  1.00  0.00     0.102 A 
HETATM   40  C31 UNK     1      19.695  -7.299  35.165  1.00  0.00     0.037 A 
HETATM   41  C28 UNK     1      21.017  -7.683  35.388  1.00  0.00     0.015 A 
BRANCH  39  42
HETATM   42  N2  UNK     1      17.355  -7.270  35.847  1.00  0.00    -0.116 N 
HETATM   43  O7  UNK     1      16.796  -6.505  36.671  1.00  0.00    -0.532 OA
HETATM   44  O8  UNK     1      16.761  -7.698  34.828  1.00  0.00    -0.532 OA
ENDBRANCH  39  42
ENDBRANCH  32  36
ENDBRANCH   1  24
TORSDOF 10
ENDMDL
MODEL 6
REMARK VINA RESULT:      -9.6      3.750     10.466
REMARK  10 active torsions:
REMARK  status: ('A' for Active; 'I' for Inactive)
REMARK    1  A    between atoms: C5_16  and  S1_1 
REMARK    2  A    between atoms: N1_10  and  S1_1 
REMARK    3  A    between atoms: C4_15  and  O1_2 
REMARK    4  A    between atoms: C9_20  and  O1_2 
REMARK    5  A    between atoms: C1_12  and  N1_10 
REMARK    6  A    between atoms: C32_43  and  N2_11 
REMARK    7  A    between atoms: C1_12  and  C2_13 
REMARK    8  A    between atoms: C1_12  and  C4_15 
REMARK    9  A    between atoms: C2_13  and  C3_14 
REMARK   10  A    between atoms: C19_30  and  C8_19 
ROOT
HETATM    1  O1  UNK     1      26.250  -9.070  37.551  1.00  0.00    -0.277 OA
ENDROOT
BRANCH   1   2
HETATM    2  C4  UNK     1      25.287  -9.920  36.974  1.00  0.00     0.287 C 
HETATM    3  O5  UNK     1      25.539 -10.895  36.277  1.00  0.00    -0.262 OA
BRANCH   2   4
HETATM    4  C1  UNK     1      23.895  -9.437  37.328  1.00  0.00     0.197 C 
BRANCH   4   5
HETATM    5  N1  UNK     1      23.185  -9.270  36.035  1.00  0.00    -0.301 N 
HETATM    6  H4  UNK     1      23.724  -8.858  35.263  1.00  0.00     0.173 HD
BRANCH   5   7
HETATM    7  S1  UNK     1      21.840 -10.242  35.679  1.00  0.00     0.259 S 
HETATM    8  O3  UNK     1      21.705 -11.269  36.694  1.00  0.00    -0.201 OA
HETATM    9  O4  UNK     1      21.884 -10.604  34.276  1.00  0.00    -0.201 OA
BRANCH   7  10
HETATM   10  C5  UNK     1      20.503  -9.102  35.877  1.00  0.00     0.079 A 
HETATM   11  C15 UNK     1      19.395  -9.452  36.648  1.00  0.00     0.026 A 
HETATM   12  C21 UNK     1      18.341  -8.553  36.802  1.00  0.00     0.008 A 
HETATM   13  C20 UNK     1      18.394  -7.302  36.186  1.00  0.00    -0.062 A 
HETATM   14  C22 UNK     1      19.502  -6.952  35.416  1.00  0.00     0.008 A 
HETATM   15  C29 UNK     1      17.267  -6.340  36.352  1.00  0.00     0.048 C 
HETATM   16  C16 UNK     1      20.557  -7.852  35.261  1.00  0.00     0.026 A 
ENDBRANCH   7  10
ENDBRANCH   5   7
ENDBRANCH   4   5
BRANCH   4  17
HETATM   17  C2  UNK     1      23.928  -8.089  38.052  1.00  0.00     0.074 C 
BRANCH  17  18
HETATM   18  C3  UNK     1      22.572  -7.634  38.535  1.00  0.00    -0.056 A 
HETATM   19  C10 UNK     1      21.783  -8.489  39.304  1.00  0.00     0.007 A 
HETATM   20  C23 UNK     1      20.529  -8.069  39.750  1.00  0.00     0.001 A 
HETATM   21  C25 UNK     1      20.065  -6.794  39.425  1.00  0.00     0.000 A 
HETATM   22  C24 UNK     1      20.854  -5.939  38.655  1.00  0.00     0.001 A 
HETATM   23  C11 UNK     1      22.107  -6.360  38.209  1.00  0.00     0.007 A 
ENDBRANCH  17  18
ENDBRANCH   4  17
ENDBRANCH   2   4
ENDBRANCH   1   2
BRANCH   1  24
HETATM   24  C9  UNK     1      27.223  -8.656  36.694  1.00  0.00     0.082 A 
HETATM   25  C13 UNK     1      27.821  -9.570  35.826  1.00  0.00     0.075 A 
HETATM   26  C7  UNK     1      28.819  -9.143  34.949  1.00  0.00     0.092 A 
HETATM   27  C6  UNK     1      29.217  -7.811  34.942  1.00  0.00     0.049 A 
HETATM   28  O2  UNK     1      29.369 -10.086  34.121  1.00  0.00    -0.313 OA
HETATM   29  C12 UNK     1      30.270  -7.391  34.007  1.00  0.00     0.198 A 
HETATM   30  C17 UNK     1      28.621  -6.893  35.810  1.00  0.00     0.021 A 
HETATM   31  O6  UNK     1      30.654  -6.229  33.963  1.00  0.00    -0.286 OA
HETATM   32  C8  UNK     1      30.839  -8.447  33.121  1.00  0.00     0.054 A 
HETATM   33  C14 UNK     1      30.363  -9.706  33.230  1.00  0.00     0.065 A 
HETATM   34  C26 UNK     1      30.836 -10.873  32.409  1.00  0.00     0.077 C 
HETATM   35  C18 UNK     1      27.623  -7.320  36.686  1.00  0.00     0.038 A 
BRANCH  32  36
HETATM   36  C19 UNK     1      31.885  -8.092  32.171  1.00  0.00    -0.019 A 
HETATM   37  C27 UNK     1      33.223  -8.114  32.565  1.00  0.00     0.015 A 
HETATM   38  C30 UNK     1      34.224  -7.776  31.655  1.00  0.00     0.037 A 
HETATM   39  C32 UNK     1      33.887  -7.416  30.349  1.00  0.00     0.102 A 
HETATM   40  C31 UNK     1      32.550  -7.394  29.955  1.00  0.00     0.037 A 
HETATM   41  C28 UNK     1      31.548  -7.732  30.865  1.00  0.00     0.015 A 
BRANCH  39  42
HETATM   42  N2  UNK     1      34.906  -7.072  29.422  1.00  0.00    -0.116 N 
HETATM   43  O7  UNK     1      35.023  -7.744  28.369  1.00  0.00    -0.532 OA
HETATM   44  O8  UNK     1      35.662  -6.105  29.681  1.00  0.00    -0.532 OA
ENDBRANCH  39  42
ENDBRANCH  32  36
ENDBRANCH   1  24
TORSDOF 10
ENDMDL
MODEL 7
REMARK VINA RESULT:      -9.6      5.631      8.087
REMARK  10 active torsions:
REMARK  status: ('A' for Active; 'I' for Inactive)
REMARK    1  A    between atoms: C5_16  and  S1_1 
REMARK    2  A    between atoms: N1_10  and  S1_1 
REMARK    3  A    between atoms: C4_15  and  O1_2 
REMARK    4  A    between atoms: C9_20  and  O1_2 
REMARK    5  A    between atoms: C1_12  and  N1_10 
REMARK    6  A    between atoms: C32_43  and  N2_11 
REMARK    7  A    between atoms: C1_12  and  C2_13 
REMARK    8  A    between atoms: C1_12  and  C4_15 
REMARK    9  A    between atoms: C2_13  and  C3_14 
REMARK   10  A    between atoms: C19_30  and  C8_19 
ROOT
HETATM    1  O1  UNK     1      31.366 -12.740  31.581  1.00  0.00    -0.277 OA
ENDROOT
BRANCH   1   2
HETATM    2  C4  UNK     1      32.142 -12.307  30.488  1.00  0.00     0.287 C 
HETATM    3  O5  UNK     1      33.052 -12.947  29.976  1.00  0.00    -0.262 OA
BRANCH   2   4
HETATM    4  C1  UNK     1      31.696 -10.925  30.056  1.00  0.00     0.197 C 
BRANCH   4   5
HETATM    5  N1  UNK     1      30.987 -11.116  28.765  1.00  0.00    -0.301 N 
HETATM    6  H4  UNK     1      30.442 -11.981  28.662  1.00  0.00     0.173 HD
BRANCH   5   7
HETATM    7  S1  UNK     1      30.588  -9.768  27.815  1.00  0.00     0.259 S 
HETATM    8  O3  UNK     1      29.771 -10.192  26.694  1.00  0.00    -0.201 OA
HETATM    9  O4  UNK     1      31.787  -8.985  27.588  1.00  0.00    -0.201 OA
BRANCH   7  10
HETATM   10  C5  UNK     1      29.563  -8.836  28.914  1.00  0.00     0.079 A 
HETATM   11  C15 UNK     1      29.999  -7.603  29.399  1.00  0.00     0.026 A 
HETATM   12  C21 UNK     1      29.190  -6.870  30.266  1.00  0.00     0.008 A 
HETATM   13  C20 UNK     1      27.944  -7.369  30.649  1.00  0.00    -0.062 A 
HETATM   14  C22 UNK     1      27.509  -8.602  30.164  1.00  0.00     0.008 A 
HETATM   15  C29 UNK     1      27.079  -6.585  31.576  1.00  0.00     0.048 C 
HETATM   16  C16 UNK     1      28.318  -9.336  29.296  1.00  0.00     0.026 A 
ENDBRANCH   7  10
ENDBRANCH   5   7
ENDBRANCH   4   5
BRANCH   4  17
HETATM   17  C2  UNK     1      32.883  -9.986  29.834  1.00  0.00     0.074 C 
BRANCH  17  18
HETATM   18  C3  UNK     1      33.264  -9.199  31.065  1.00  0.00    -0.056 A 
HETATM   19  C10 UNK     1      32.471  -8.129  31.481  1.00  0.00     0.007 A 
HETATM   20  C23 UNK     1      32.822  -7.401  32.618  1.00  0.00     0.001 A 
HETATM   21  C25 UNK     1      33.968  -7.742  33.337  1.00  0.00     0.000 A 
HETATM   22  C24 UNK     1      34.761  -8.811  32.921  1.00  0.00     0.001 A 
HETATM   23  C11 UNK     1      34.409  -9.539  31.784  1.00  0.00     0.007 A 
ENDBRANCH  17  18
ENDBRANCH   4  17
ENDBRANCH   2   4
ENDBRANCH   1   2
BRANCH   1  24
HETATM   24  C9  UNK     1      30.899 -11.737  32.374  1.00  0.00     0.082 A 
HETATM   25  C13 UNK     1      31.681 -11.259  33.425  1.00  0.00     0.075 A 
HETATM   26  C7  UNK     1      31.199 -10.231  34.237  1.00  0.00     0.092 A 
HETATM   27  C6  UNK     1      29.942  -9.686  33.998  1.00  0.00     0.049 A 
HETATM   28  O2  UNK     1      32.012  -9.803  35.253  1.00  0.00    -0.313 OA
HETATM   29  C12 UNK     1      29.461  -8.605  34.869  1.00  0.00     0.198 A 
HETATM   30  C17 UNK     1      29.155 -10.163  32.946  1.00  0.00     0.021 A 
HETATM   31  O6  UNK     1      28.362  -8.093  34.699  1.00  0.00    -0.286 OA
HETATM   32  C8  UNK     1      30.378  -8.166  35.960  1.00  0.00     0.054 A 
HETATM   33  C14 UNK     1      31.574  -8.781  36.084  1.00  0.00     0.065 A 
HETATM   34  C26 UNK     1      32.601  -8.450  37.131  1.00  0.00     0.077 C 
HETATM   35  C18 UNK     1      29.638 -11.191  32.136  1.00  0.00     0.038 A 
BRANCH  32  36
HETATM   36  C19 UNK     1      29.958  -7.096  36.855  1.00  0.00    -0.019 A 
HETATM   37  C27 UNK     1      29.220  -7.394  38.002  1.00  0.00     0.015 A 
HETATM   38  C30 UNK     1      28.820  -6.370  38.859  1.00  0.00     0.037 A 
HETATM   39  C32 UNK     1      29.160  -5.047  38.572  1.00  0.00     0.102 A 
HETATM   40  C31 UNK     1      29.898  -4.749  37.427  1.00  0.00     0.037 A 
HETATM   41  C28 UNK     1      30.298  -5.773  36.569  1.00  0.00     0.015 A 
BRANCH  39  42
HETATM   42  N2  UNK     1      28.753  -4.004  39.445  1.00  0.00    -0.116 N 
HETATM   43  O7  UNK     1      27.557  -3.625  39.424  1.00  0.00    -0.532 OA
HETATM   44  O8  UNK     1      29.600  -3.490  40.214  1.00  0.00    -0.532 OA
ENDBRANCH  39  42
ENDBRANCH  32  36
ENDBRANCH   1  24
TORSDOF 10
ENDMDL
MODEL 8
REMARK VINA RESULT:      -9.5      4.555      7.082
REMARK  10 active torsions:
REMARK  status: ('A' for Active; 'I' for Inactive)
REMARK    1  A    between atoms: C5_16  and  S1_1 
REMARK    2  A    between atoms: N1_10  and  S1_1 
REMARK    3  A    between atoms: C4_15  and  O1_2 
REMARK    4  A    between atoms: C9_20  and  O1_2 
REMARK    5  A    between atoms: C1_12  and  N1_10 
REMARK    6  A    between atoms: C32_43  and  N2_11 
REMARK    7  A    between atoms: C1_12  and  C2_13 
REMARK    8  A    between atoms: C1_12  and  C4_15 
REMARK    9  A    between atoms: C2_13  and  C3_14 
REMARK   10  A    between atoms: C19_30  and  C8_19 
ROOT
HETATM    1  O1  UNK     1      34.157 -10.669  32.182  1.00  0.00    -0.277 OA
ENDROOT
BRANCH   1   2
HETATM    2  C4  UNK     1      35.233  -9.772  32.329  1.00  0.00     0.287 C 
HETATM    3  O5  UNK     1      36.282 -10.024  32.910  1.00  0.00    -0.262 OA
BRANCH   2   4
HETATM    4  C1  UNK     1      34.891  -8.447  31.680  1.00  0.00     0.197 C 
BRANCH   4   5
HETATM    5  N1  UNK     1      35.667  -8.405  30.415  1.00  0.00    -0.301 N 
HETATM    6  H4  UNK     1      36.217  -9.241  30.184  1.00  0.00     0.173 HD
BRANCH   5   7
HETATM    7  S1  UNK     1      35.192  -7.356  29.168  1.00  0.00     0.259 S 
HETATM    8  O3  UNK     1      35.676  -7.864  27.899  1.00  0.00    -0.201 OA
HETATM    9  O4  UNK     1      35.485  -5.993  29.568  1.00  0.00    -0.201 OA
BRANCH   7  10
HETATM   10  C5  UNK     1      33.433  -7.534  29.191  1.00  0.00     0.079 A 
HETATM   11  C15 UNK     1      32.645  -6.597  29.860  1.00  0.00     0.026 A 
HETATM   12  C21 UNK     1      31.258  -6.739  29.879  1.00  0.00     0.008 A 
HETATM   13  C20 UNK     1      30.658  -7.817  29.228  1.00  0.00    -0.062 A 
HETATM   14  C22 UNK     1      31.446  -8.753  28.559  1.00  0.00     0.008 A 
HETATM   15  C29 UNK     1      29.174  -7.969  29.247  1.00  0.00     0.048 C 
HETATM   16  C16 UNK     1      32.834  -8.612  28.541  1.00  0.00     0.026 A 
ENDBRANCH   7  10
ENDBRANCH   5   7
ENDBRANCH   4   5
BRANCH   4  17
HETATM   17  C2  UNK     1      35.304  -7.261  32.554  1.00  0.00     0.074 C 
BRANCH  17  18
HETATM   18  C3  UNK     1      34.380  -7.027  33.724  1.00  0.00    -0.056 A 
HETATM   19  C10 UNK     1      33.096  -6.525  33.509  1.00  0.00     0.007 A 
HETATM   20  C23 UNK     1      32.241  -6.308  34.590  1.00  0.00     0.001 A 
HETATM   21  C25 UNK     1      32.672  -6.591  35.887  1.00  0.00     0.000 A 
HETATM   22  C24 UNK     1      33.956  -7.092  36.102  1.00  0.00     0.001 A 
HETATM   23  C11 UNK     1      34.810  -7.309  35.020  1.00  0.00     0.007 A 
ENDBRANCH  17  18
ENDBRANCH   4  17
ENDBRANCH   2   4
ENDBRANCH   1   2
BRANCH   1  24
HETATM   24  C9  UNK     1      32.999 -10.263  32.771  1.00  0.00     0.082 A 
HETATM   25  C13 UNK     1      32.870 -10.309  34.158  1.00  0.00     0.075 A 
HETATM   26  C7  UNK     1      31.682  -9.892  34.760  1.00  0.00     0.092 A 
HETATM   27  C6  UNK     1      30.628  -9.434  33.976  1.00  0.00     0.049 A 
HETATM   28  O2  UNK     1      31.615  -9.961  36.126  1.00  0.00    -0.313 OA
HETATM   29  C12 UNK     1      29.390  -9.001  34.637  1.00  0.00     0.198 A 
HETATM   30  C17 UNK     1      30.754  -9.386  32.585  1.00  0.00     0.021 A 
HETATM   31  O6  UNK     1      28.435  -8.590  33.990  1.00  0.00    -0.286 OA
HETATM   32  C8  UNK     1      29.359  -9.088  36.125  1.00  0.00     0.054 A 
HETATM   33  C14 UNK     1      30.452  -9.554  36.767  1.00  0.00     0.065 A 
HETATM   34  C26 UNK     1      30.571  -9.700  38.259  1.00  0.00     0.077 C 
HETATM   35  C18 UNK     1      31.942  -9.803  31.985  1.00  0.00     0.038 A 
BRANCH  32  36
HETATM   36  C19 UNK     1      28.159  -8.672  36.838  1.00  0.00    -0.019 A 
HETATM   37  C27 UNK     1      28.109  -7.418  37.448  1.00  0.00     0.015 A 
HETATM   38  C30 UNK     1      26.959  -7.019  38.129  1.00  0.00     0.037 A 
HETATM   39  C32 UNK     1      25.858  -7.873  38.199  1.00  0.00     0.102 A 
HETATM   40  C31 UNK     1      25.907  -9.126  37.588  1.00  0.00     0.037 A 
HETATM   41  C28 UNK     1      27.057  -9.525  36.907  1.00  0.00     0.015 A 
BRANCH  39  42
HETATM   42  N2  UNK     1      24.687  -7.467  38.891  1.00  0.00    -0.116 N 
HETATM   43  O7  UNK     1      23.959  -8.342  39.422  1.00  0.00    -0.532 OA
HETATM   44  O8  UNK     1      24.411  -6.245  38.955  1.00  0.00    -0.532 OA
ENDBRANCH  39  42
ENDBRANCH  32  36
ENDBRANCH   1  24
TORSDOF 10
ENDMDL
MODEL 9
REMARK VINA RESULT:      -9.5      3.090      5.007
REMARK  10 active torsions:
REMARK  status: ('A' for Active; 'I' for Inactive)
REMARK    1  A    between atoms: C5_16  and  S1_1 
REMARK    2  A    between atoms: N1_10  and  S1_1 
REMARK    3  A    between atoms: C4_15  and  O1_2 
REMARK    4  A    between atoms: C9_20  and  O1_2 
REMARK    5  A    between atoms: C1_12  and  N1_10 
REMARK    6  A    between atoms: C32_43  and  N2_11 
REMARK    7  A    between atoms: C1_12  and  C2_13 
REMARK    8  A    between atoms: C1_12  and  C4_15 
REMARK    9  A    between atoms: C2_13  and  C3_14 
REMARK   10  A    between atoms: C19_30  and  C8_19 
ROOT
HETATM    1  O1  UNK     1      30.778  -5.614  38.611  1.00  0.00    -0.277 OA
ENDROOT
BRANCH   1   2
HETATM    2  C4  UNK     1      31.038  -4.755  37.525  1.00  0.00     0.287 C 
HETATM    3  O5  UNK     1      30.702  -3.579  37.465  1.00  0.00    -0.262 OA
BRANCH   2   4
HETATM    4  C1  UNK     1      31.775  -5.509  36.438  1.00  0.00     0.197 C 
BRANCH   4   5
HETATM    5  N1  UNK     1      33.208  -5.162  36.606  1.00  0.00    -0.301 N 
HETATM    6  H4  UNK     1      33.416  -4.211  36.936  1.00  0.00     0.173 HD
BRANCH   5   7
HETATM    7  S1  UNK     1      34.352  -6.392  36.852  1.00  0.00     0.259 S 
HETATM    8  O3  UNK     1      34.421  -6.712  38.265  1.00  0.00    -0.201 OA
HETATM    9  O4  UNK     1      35.558  -6.060  36.119  1.00  0.00    -0.201 OA
BRANCH   7  10
HETATM   10  C5  UNK     1      33.602  -7.759  36.019  1.00  0.00     0.079 A 
HETATM   11  C15 UNK     1      33.950  -8.049  34.700  1.00  0.00     0.026 A 
HETATM   12  C21 UNK     1      33.357  -9.127  34.043  1.00  0.00     0.008 A 
HETATM   13  C20 UNK     1      32.416  -9.916  34.707  1.00  0.00    -0.062 A 
HETATM   14  C22 UNK     1      32.069  -9.626  36.025  1.00  0.00     0.008 A 
HETATM   15  C29 UNK     1      31.782 -11.070  34.005  1.00  0.00     0.048 C 
HETATM   16  C16 UNK     1      32.661  -8.547  36.682  1.00  0.00     0.026 A 
ENDBRANCH   7  10
ENDBRANCH   5   7
ENDBRANCH   4   5
BRANCH   4  17
HETATM   17  C2  UNK     1      31.322  -5.081  35.040  1.00  0.00     0.074 C 
BRANCH  17  18
HETATM   18  C3  UNK     1      30.712  -6.203  34.236  1.00  0.00    -0.056 A 
HETATM   19  C10 UNK     1      31.127  -6.426  32.924  1.00  0.00     0.007 A 
HETATM   20  C23 UNK     1      30.564  -7.463  32.180  1.00  0.00     0.001 A 
HETATM   21  C25 UNK     1      29.584  -8.277  32.750  1.00  0.00     0.000 A 
HETATM   22  C24 UNK     1      29.168  -8.053  34.062  1.00  0.00     0.001 A 
HETATM   23  C11 UNK     1      29.732  -7.016  34.805  1.00  0.00     0.007 A 
ENDBRANCH  17  18
ENDBRANCH   4  17
ENDBRANCH   2   4
ENDBRANCH   1   2
BRANCH   1  24
HETATM   24  C9  UNK     1      29.606  -6.299  38.521  1.00  0.00     0.082 A 
HETATM   25  C13 UNK     1      28.397  -5.646  38.761  1.00  0.00     0.075 A 
HETATM   26  C7  UNK     1      27.196  -6.351  38.668  1.00  0.00     0.092 A 
HETATM   27  C6  UNK     1      27.206  -7.702  38.339  1.00  0.00     0.049 A 
HETATM   28  O2  UNK     1      26.043  -5.656  38.915  1.00  0.00    -0.313 OA
HETATM   29  C12 UNK     1      25.927  -8.418  38.248  1.00  0.00     0.198 A 
HETATM   30  C17 UNK     1      28.415  -8.360  38.098  1.00  0.00     0.021 A 
HETATM   31  O6  UNK     1      25.883  -9.608  37.961  1.00  0.00    -0.286 OA
HETATM   32  C8  UNK     1      24.694  -7.625  38.520  1.00  0.00     0.054 A 
HETATM   33  C14 UNK     1      24.825  -6.317  38.832  1.00  0.00     0.065 A 
HETATM   34  C26 UNK     1      23.678  -5.391  39.132  1.00  0.00     0.077 C 
HETATM   35  C18 UNK     1      29.615  -7.654  38.191  1.00  0.00     0.038 A 
BRANCH  32  36
HETATM   36  C19 UNK     1      23.395  -8.279  38.444  1.00  0.00    -0.019 A 
HETATM   37  C27 UNK     1      22.930  -8.767  37.222  1.00  0.00     0.015 A 
HETATM   38  C30 UNK     1      21.686  -9.395  37.150  1.00  0.00     0.037 A 
HETATM   39  C32 UNK     1      20.908  -9.536  38.300  1.00  0.00     0.102 A 
HETATM   40  C31 UNK     1      21.373  -9.048  39.521  1.00  0.00     0.037 A 
HETATM   41  C28 UNK     1      22.616  -8.420  39.593  1.00  0.00     0.015 A 
BRANCH  39  42
HETATM   42  N2  UNK     1      19.642 -10.175  38.227  1.00  0.00    -0.116 N 
HETATM   43  O7  UNK     1      19.590 -11.385  37.895  1.00  0.00    -0.532 OA
HETATM   44  O8  UNK     1      18.611  -9.514  38.495  1.00  0.00    -0.532 OA
ENDBRANCH  39  42
ENDBRANCH  32  36
ENDBRANCH   1  24
TORSDOF 10
ENDMDL
MODEL 10
REMARK VINA RESULT:      -9.4      5.452      7.687
REMARK  10 active torsions:
REMARK  status: ('A' for Active; 'I' for Inactive)
REMARK    1  A    between atoms: C5_16  and  S1_1 
REMARK    2  A    between atoms: N1_10  and  S1_1 
REMARK    3  A    between atoms: C4_15  and  O1_2 
REMARK    4  A    between atoms: C9_20  and  O1_2 
REMARK    5  A    between atoms: C1_12  and  N1_10 
REMARK    6  A    between atoms: C32_43  and  N2_11 
REMARK    7  A    between atoms: C1_12  and  C2_13 
REMARK    8  A    between atoms: C1_12  and  C4_15 
REMARK    9  A    between atoms: C2_13  and  C3_14 
REMARK   10  A    between atoms: C19_30  and  C8_19 
ROOT
HETATM    1  O1  UNK     1      30.890 -12.879  31.598  1.00  0.00    -0.277 OA
ENDROOT
BRANCH   1   2
HETATM    2  C4  UNK     1      31.926 -12.591  30.688  1.00  0.00     0.287 C 
HETATM    3  O5  UNK     1      32.593 -13.430  30.097  1.00  0.00    -0.262 OA
BRANCH   2   4
HETATM    4  C1  UNK     1      32.102 -11.091  30.568  1.00  0.00     0.197 C 
BRANCH   4   5
HETATM    5  N1  UNK     1      31.998 -10.788  29.119  1.00  0.00    -0.301 N 
HETATM    6  H4  UNK     1      32.701 -11.220  28.506  1.00  0.00     0.173 HD
BRANCH   5   7
HETATM    7  S1  UNK     1      30.509 -10.308  28.461  1.00  0.00     0.259 S 
HETATM    8  O3  UNK     1      29.449 -11.124  29.021  1.00  0.00    -0.201 OA
HETATM    9  O4  UNK     1      30.652 -10.184  27.024  1.00  0.00    -0.201 OA
BRANCH   7  10
HETATM   10  C5  UNK     1      30.335  -8.671  29.106  1.00  0.00     0.079 A 
HETATM   11  C15 UNK     1      29.216  -8.337  29.870  1.00  0.00     0.026 A 
HETATM   12  C21 UNK     1      29.079  -7.046  30.377  1.00  0.00     0.008 A 
HETATM   13  C20 UNK     1      30.061  -6.088  30.122  1.00  0.00    -0.062 A 
HETATM   14  C22 UNK     1      31.179  -6.422  29.359  1.00  0.00     0.008 A 
HETATM   15  C29 UNK     1      29.916  -4.706  30.665  1.00  0.00     0.048 C 
HETATM   16  C16 UNK     1      31.317  -7.714  28.851  1.00  0.00     0.026 A 
ENDBRANCH   7  10
ENDBRANCH   5   7
ENDBRANCH   4   5
BRANCH   4  17
HETATM   17  C2  UNK     1      33.473 -10.637  31.072  1.00  0.00     0.074 C 
BRANCH  17  18
HETATM   18  C3  UNK     1      33.398  -9.569  32.137  1.00  0.00    -0.056 A 
HETATM   19  C10 UNK     1      34.107  -9.722  33.328  1.00  0.00     0.007 A 
HETATM   20  C23 UNK     1      34.038  -8.736  34.313  1.00  0.00     0.001 A 
HETATM   21  C25 UNK     1      33.258  -7.598  34.105  1.00  0.00     0.000 A 
HETATM   22  C24 UNK     1      32.548  -7.445  32.915  1.00  0.00     0.001 A 
HETATM   23  C11 UNK     1      32.618  -8.432  31.931  1.00  0.00     0.007 A 
ENDBRANCH  17  18
ENDBRANCH   4  17
ENDBRANCH   2   4
ENDBRANCH   1   2
BRANCH   1  24
HETATM   24  C9  UNK     1      30.752 -11.971  32.603  1.00  0.00     0.082 A 
HETATM   25  C13 UNK     1      29.964 -10.837  32.413  1.00  0.00     0.075 A 
HETATM   26  C7  UNK     1      29.824  -9.907  33.445  1.00  0.00     0.092 A 
HETATM   27  C6  UNK     1      30.472 -10.112  34.659  1.00  0.00     0.049 A 
HETATM   28  O2  UNK     1      29.037  -8.814  33.200  1.00  0.00    -0.313 OA
HETATM   29  C12 UNK     1      30.307  -9.117  35.726  1.00  0.00     0.198 A 
HETATM   30  C17 UNK     1      31.264 -11.247  34.852  1.00  0.00     0.021 A 
HETATM   31  O6  UNK     1      30.857  -9.252  36.812  1.00  0.00    -0.286 OA
HETATM   32  C8  UNK     1      29.439  -7.943  35.420  1.00  0.00     0.054 A 
HETATM   33  C14 UNK     1      28.868  -7.865  34.198  1.00  0.00     0.065 A 
HETATM   34  C26 UNK     1      27.972  -6.746  33.743  1.00  0.00     0.077 C 
HETATM   35  C18 UNK     1      31.402 -12.175  33.820  1.00  0.00     0.038 A 
BRANCH  32  36
HETATM   36  C19 UNK     1      29.234  -6.923  36.440  1.00  0.00    -0.019 A 
HETATM   37  C27 UNK     1      28.176  -7.039  37.341  1.00  0.00     0.015 A 
HETATM   38  C30 UNK     1      27.981  -6.063  38.318  1.00  0.00     0.037 A 
HETATM   39  C32 UNK     1      28.847  -4.971  38.395  1.00  0.00     0.102 A 
HETATM   40  C31 UNK     1      29.905  -4.855  37.494  1.00  0.00     0.037 A 
HETATM   41  C28 UNK     1      30.100  -5.831  36.517  1.00  0.00     0.015 A 
BRANCH  39  42
HETATM   42  N2  UNK     1      28.650  -3.978  39.390  1.00  0.00    -0.116 N 
HETATM   43  O7  UNK     1      27.504  -3.490  39.544  1.00  0.00    -0.532 OA
HETATM   44  O8  UNK     1      29.626  -3.615  40.089  1.00  0.00    -0.532 OA
ENDBRANCH  39  42
ENDBRANCH  32  36
ENDBRANCH   1  24
TORSDOF 10
ENDMDL
