MODEL 1
REMARK VINA RESULT:      -8.3      0.000      0.000
REMARK  3 active torsions:
REMARK  status: ('A' for Active; 'I' for Inactive)
REMARK    1  A    between atoms: C5_9  and  O2_2 
REMARK    2  A    between atoms: C9_13  and  O3_3 
REMARK    3  A    between atoms: C1_5  and  C2_6 
ROOT
HETATM    1  O1  UNK     1      13.378   7.515   8.538  1.00  0.00    -0.309 OA
HETATM    2  O4  UNK     1      15.438   4.182   9.656  1.00  0.00    -0.287 OA
HETATM    3  C2  UNK     1      12.871   6.242   8.330  1.00  0.00     0.093 A 
HETATM    4  C3  UNK     1      15.357   6.542   9.555  1.00  0.00     0.048 A 
HETATM    5  C4  UNK     1      14.601   7.640   9.147  1.00  0.00     0.090 A 
HETATM    6  C6  UNK     1      13.505   5.110   8.673  1.00  0.00     0.094 A 
HETATM    7  C7  UNK     1      14.827   5.190   9.327  1.00  0.00     0.187 A 
HETATM    8  C10 UNK     1      16.599   6.729  10.170  1.00  0.00     0.018 A 
HETATM    9  C11 UNK     1      15.083   8.933   9.349  1.00  0.00     0.038 A 
HETATM   10  C14 UNK     1      17.078   8.023  10.371  1.00  0.00     0.001 A 
HETATM   11  C15 UNK     1      16.323   9.123   9.962  1.00  0.00     0.003 A 
ENDROOT
BRANCH   3  12
HETATM   12  C1  UNK     1      11.551   6.223   7.665  1.00  0.00     0.034 A 
HETATM   13  C5  UNK     1      10.376   5.993   8.387  1.00  0.00     0.114 A 
HETATM   14  C9  UNK     1       9.143   5.981   7.736  1.00  0.00     0.102 A 
HETATM   15  C13 UNK     1       9.079   6.199   6.360  1.00  0.00     0.040 A 
HETATM   16  C12 UNK     1      10.248   6.430   5.635  1.00  0.00     0.004 A 
HETATM   17  C8  UNK     1      11.481   6.442   6.286  1.00  0.00     0.017 A 
BRANCH  13  18
HETATM   18  O2  UNK     1      10.423   5.778   9.734  1.00  0.00    -0.352 OA
HETATM   19  C16 UNK     1      10.270   4.433  10.180  1.00  0.00     0.210 C 
ENDBRANCH  13  18
BRANCH  14  20
HETATM   20  O3  UNK     1       7.992   5.757   8.430  1.00  0.00    -0.353 OA
HETATM   21  C17 UNK     1       7.398   6.881   9.078  1.00  0.00     0.210 C 
ENDBRANCH  14  20
ENDBRANCH   3  12
TORSDOF 3
ENDMDL
MODEL 2
REMARK VINA RESULT:      -8.0      0.975      1.192
REMARK  3 active torsions:
REMARK  status: ('A' for Active; 'I' for Inactive)
REMARK    1  A    between atoms: C5_9  and  O2_2 
REMARK    2  A    between atoms: C9_13  and  O3_3 
REMARK    3  A    between atoms: C1_5  and  C2_6 
ROOT
HETATM    1  O1  UNK     1      13.402   7.783   8.461  1.00  0.00    -0.309 OA
HETATM    2  O4  UNK     1      15.400   4.434   9.641  1.00  0.00    -0.287 OA
HETATM    3  C2  UNK     1      12.855   6.518   8.311  1.00  0.00     0.093 A 
HETATM    4  C3  UNK     1      15.381   6.790   9.460  1.00  0.00     0.048 A 
HETATM    5  C4  UNK     1      14.644   7.894   9.032  1.00  0.00     0.090 A 
HETATM    6  C6  UNK     1      13.467   5.382   8.677  1.00  0.00     0.094 A 
HETATM    7  C7  UNK     1      14.808   5.446   9.293  1.00  0.00     0.187 A 
HETATM    8  C10 UNK     1      16.643   6.963  10.034  1.00  0.00     0.018 A 
HETATM    9  C11 UNK     1      15.167   9.179   9.176  1.00  0.00     0.038 A 
HETATM   10  C14 UNK     1      17.163   8.250  10.177  1.00  0.00     0.001 A 
HETATM   11  C15 UNK     1      16.427   9.356   9.750  1.00  0.00     0.003 A 
ENDROOT
BRANCH   3  12
HETATM   12  C1  UNK     1      11.518   6.514   7.682  1.00  0.00     0.034 A 
HETATM   13  C5  UNK     1      10.394   7.000   8.358  1.00  0.00     0.114 A 
HETATM   14  C9  UNK     1       9.143   6.986   7.741  1.00  0.00     0.102 A 
HETATM   15  C13 UNK     1       9.010   6.484   6.446  1.00  0.00     0.040 A 
HETATM   16  C12 UNK     1      10.128   5.998   5.768  1.00  0.00     0.004 A 
HETATM   17  C8  UNK     1      11.379   6.013   6.384  1.00  0.00     0.017 A 
BRANCH  13  18
HETATM   18  O2  UNK     1      10.510   7.494   9.624  1.00  0.00    -0.352 OA
HETATM   19  C16 UNK     1      10.538   8.911   9.765  1.00  0.00     0.210 C 
ENDBRANCH  13  18
BRANCH  14  20
HETATM   20  O3  UNK     1       8.043   7.457   8.390  1.00  0.00    -0.353 OA
HETATM   21  C17 UNK     1       7.407   6.575   9.313  1.00  0.00     0.210 C 
ENDBRANCH  14  20
ENDBRANCH   3  12
TORSDOF 3
ENDMDL
MODEL 3
REMARK VINA RESULT:      -7.9     21.846     24.036
REMARK  3 active torsions:
REMARK  status: ('A' for Active; 'I' for Inactive)
REMARK    1  A    between atoms: C5_9  and  O2_2 
REMARK    2  A    between atoms: C9_13  and  O3_3 
REMARK    3  A    between atoms: C1_5  and  C2_6 
ROOT
HETATM    1  O1  UNK     1      19.610   1.316  31.203  1.00  0.00    -0.309 OA
HETATM    2  O4  UNK     1      18.874  -0.126  27.464  1.00  0.00    -0.287 OA
HETATM    3  C2  UNK     1      19.051   2.110  30.214  1.00  0.00     0.093 A 
HETATM    4  C3  UNK     1      19.681  -0.546  29.645  1.00  0.00     0.048 A 
HETATM    5  C4  UNK     1      19.908   0.011  30.903  1.00  0.00     0.090 A 
HETATM    6  C6  UNK     1      18.791   1.691  28.966  1.00  0.00     0.094 A 
HETATM    7  C7  UNK     1      19.097   0.296  28.591  1.00  0.00     0.187 A 
HETATM    8  C10 UNK     1      20.006  -1.883  29.396  1.00  0.00     0.018 A 
HETATM    9  C11 UNK     1      20.464  -0.766  31.919  1.00  0.00     0.038 A 
HETATM   10  C14 UNK     1      20.560  -2.657  30.414  1.00  0.00     0.001 A 
HETATM   11  C15 UNK     1      20.789  -2.101  31.673  1.00  0.00     0.003 A 
ENDROOT
BRANCH   3  12
HETATM   12  C1  UNK     1      18.774   3.496  30.643  1.00  0.00     0.034 A 
HETATM   13  C5  UNK     1      18.081   3.767  31.827  1.00  0.00     0.114 A 
HETATM   14  C9  UNK     1      17.834   5.085  32.210  1.00  0.00     0.102 A 
HETATM   15  C13 UNK     1      18.277   6.139  31.410  1.00  0.00     0.040 A 
HETATM   16  C12 UNK     1      18.969   5.874  30.228  1.00  0.00     0.004 A 
HETATM   17  C8  UNK     1      19.216   4.556  29.845  1.00  0.00     0.017 A 
BRANCH  13  18
HETATM   18  O2  UNK     1      17.642   2.747  32.619  1.00  0.00    -0.352 OA
HETATM   19  C16 UNK     1      18.280   2.590  33.884  1.00  0.00     0.210 C 
ENDBRANCH  13  18
BRANCH  14  20
HETATM   20  O3  UNK     1      17.160   5.359  33.362  1.00  0.00    -0.353 OA
HETATM   21  C17 UNK     1      17.437   6.608  33.992  1.00  0.00     0.210 C 
ENDBRANCH  14  20
ENDBRANCH   3  12
TORSDOF 3
ENDMDL
MODEL 4
REMARK VINA RESULT:      -7.8     22.487     24.804
REMARK  3 active torsions:
REMARK  status: ('A' for Active; 'I' for Inactive)
REMARK    1  A    between atoms: C5_9  and  O2_2 
REMARK    2  A    between atoms: C9_13  and  O3_3 
REMARK    3  A    between atoms: C1_5  and  C2_6 
ROOT
HETATM    1  O1  UNK     1      19.172   6.675  33.288  1.00  0.00    -0.309 OA
HETATM    2  O4  UNK     1      15.755   8.797  32.635  1.00  0.00    -0.287 OA
HETATM    3  C2  UNK     1      18.051   6.093  32.717  1.00  0.00     0.093 A 
HETATM    4  C3  UNK     1      17.981   8.787  33.429  1.00  0.00     0.048 A 
HETATM    5  C4  UNK     1      19.117   8.003  33.627  1.00  0.00     0.090 A 
HETATM    6  C6  UNK     1      16.899   6.739  32.483  1.00  0.00     0.094 A 
HETATM    7  C7  UNK     1      16.787   8.170  32.833  1.00  0.00     0.187 A 
HETATM    8  C10 UNK     1      17.982  10.136  33.795  1.00  0.00     0.018 A 
HETATM    9  C11 UNK     1      20.261   8.564  34.193  1.00  0.00     0.038 A 
HETATM   10  C14 UNK     1      19.128  10.694  34.361  1.00  0.00     0.001 A 
HETATM   11  C15 UNK     1      20.266   9.911  34.560  1.00  0.00     0.003 A 
ENDROOT
BRANCH   3  12
HETATM   12  C1  UNK     1      18.217   4.660  32.395  1.00  0.00     0.034 A 
HETATM   13  C5  UNK     1      18.526   4.236  31.099  1.00  0.00     0.114 A 
HETATM   14  C9  UNK     1      18.679   2.878  30.821  1.00  0.00     0.102 A 
HETATM   15  C13 UNK     1      18.522   1.937  31.839  1.00  0.00     0.040 A 
HETATM   16  C12 UNK     1      18.215   2.354  33.134  1.00  0.00     0.004 A 
HETATM   17  C8  UNK     1      18.062   3.712  33.411  1.00  0.00     0.017 A 
BRANCH  13  18
HETATM   18  O2  UNK     1      18.682   5.146  30.094  1.00  0.00    -0.352 OA
HETATM   19  C16 UNK     1      19.958   5.770  29.980  1.00  0.00     0.210 C 
ENDBRANCH  13  18
BRANCH  14  20
HETATM   20  O3  UNK     1      18.980   2.455  29.562  1.00  0.00    -0.353 OA
HETATM   21  C17 UNK     1      17.921   1.876  28.803  1.00  0.00     0.210 C 
ENDBRANCH  14  20
ENDBRANCH   3  12
TORSDOF 3
ENDMDL
MODEL 5
REMARK VINA RESULT:      -7.8     22.552     24.848
REMARK  3 active torsions:
REMARK  status: ('A' for Active; 'I' for Inactive)
REMARK    1  A    between atoms: C5_9  and  O2_2 
REMARK    2  A    between atoms: C9_13  and  O3_3 
REMARK    3  A    between atoms: C1_5  and  C2_6 
ROOT
HETATM    1  O1  UNK     1      16.994   6.780  32.802  1.00  0.00    -0.309 OA
HETATM    2  O4  UNK     1      20.092   8.842  34.463  1.00  0.00    -0.287 OA
HETATM    3  C2  UNK     1      18.233   6.193  33.007  1.00  0.00     0.093 A 
HETATM    4  C3  UNK     1      17.836   8.848  33.758  1.00  0.00     0.048 A 
HETATM    5  C4  UNK     1      16.820   8.087  33.183  1.00  0.00     0.090 A 
HETATM    6  C6  UNK     1      19.289   6.823  33.544  1.00  0.00     0.094 A 
HETATM    7  C7  UNK     1      19.154   8.231  33.968  1.00  0.00     0.187 A 
HETATM    8  C10 UNK     1      17.601  10.176  34.126  1.00  0.00     0.018 A 
HETATM    9  C11 UNK     1      15.561   8.649  32.971  1.00  0.00     0.038 A 
HETATM   10  C14 UNK     1      16.342  10.736  33.914  1.00  0.00     0.001 A 
HETATM   11  C15 UNK     1      15.324   9.975  33.338  1.00  0.00     0.003 A 
ENDROOT
BRANCH   3  12
HETATM   12  C1  UNK     1      18.313   4.788  32.557  1.00  0.00     0.034 A 
HETATM   13  C5  UNK     1      18.541   4.465  31.215  1.00  0.00     0.114 A 
HETATM   14  C9  UNK     1      18.613   3.131  30.816  1.00  0.00     0.102 A 
HETATM   15  C13 UNK     1      18.456   2.112  31.756  1.00  0.00     0.040 A 
HETATM   16  C12 UNK     1      18.229   2.428  33.096  1.00  0.00     0.004 A 
HETATM   17  C8  UNK     1      18.157   3.763  33.495  1.00  0.00     0.017 A 
BRANCH  13  18
HETATM   18  O2  UNK     1      18.697   5.451  30.285  1.00  0.00    -0.352 OA
HETATM   19  C16 UNK     1      20.027   5.888  30.022  1.00  0.00     0.210 C 
ENDBRANCH  13  18
BRANCH  14  20
HETATM   20  O3  UNK     1      18.835   2.807  29.512  1.00  0.00    -0.353 OA
HETATM   21  C17 UNK     1      17.865   1.977  28.877  1.00  0.00     0.210 C 
ENDBRANCH  14  20
ENDBRANCH   3  12
TORSDOF 3
ENDMDL
MODEL 6
REMARK VINA RESULT:      -7.8     21.477     23.916
REMARK  3 active torsions:
REMARK  status: ('A' for Active; 'I' for Inactive)
REMARK    1  A    between atoms: C5_9  and  O2_2 
REMARK    2  A    between atoms: C9_13  and  O3_3 
REMARK    3  A    between atoms: C1_5  and  C2_6 
ROOT
HETATM    1  O1  UNK     1      19.357   1.820  31.321  1.00  0.00    -0.309 OA
HETATM    2  O4  UNK     1      17.667   1.981  27.617  1.00  0.00    -0.287 OA
HETATM    3  C2  UNK     1      18.554   2.881  30.933  1.00  0.00     0.093 A 
HETATM    4  C3  UNK     1      19.021   0.792  29.146  1.00  0.00     0.048 A 
HETATM    5  C4  UNK     1      19.570   0.801  30.427  1.00  0.00     0.090 A 
HETATM    6  C6  UNK     1      17.976   2.990  29.727  1.00  0.00     0.094 A 
HETATM    7  C7  UNK     1      18.177   1.921  28.727  1.00  0.00     0.187 A 
HETATM    8  C10 UNK     1      19.273  -0.273  28.277  1.00  0.00     0.018 A 
HETATM    9  C11 UNK     1      20.376  -0.257  30.848  1.00  0.00     0.038 A 
HETATM   10  C14 UNK     1      20.080  -1.330  28.701  1.00  0.00     0.001 A 
HETATM   11  C15 UNK     1      20.630  -1.322  29.983  1.00  0.00     0.003 A 
ENDROOT
BRANCH   3  12
HETATM   12  C1  UNK     1      18.395   3.923  31.968  1.00  0.00     0.034 A 
HETATM   13  C5  UNK     1      18.465   5.283  31.648  1.00  0.00     0.114 A 
HETATM   14  C9  UNK     1      18.311   6.248  32.643  1.00  0.00     0.102 A 
HETATM   15  C13 UNK     1      18.086   5.857  33.963  1.00  0.00     0.040 A 
HETATM   16  C12 UNK     1      18.014   4.503  34.288  1.00  0.00     0.004 A 
HETATM   17  C8  UNK     1      18.168   3.538  33.292  1.00  0.00     0.017 A 
BRANCH  13  18
HETATM   18  O2  UNK     1      18.685   5.679  30.361  1.00  0.00    -0.352 OA
HETATM   19  C16 UNK     1      20.034   5.947  29.989  1.00  0.00     0.210 C 
ENDBRANCH  13  18
BRANCH  14  20
HETATM   20  O3  UNK     1      18.378   7.574  32.341  1.00  0.00    -0.353 OA
HETATM   21  C17 UNK     1      17.331   8.405  32.839  1.00  0.00     0.210 C 
ENDBRANCH  14  20
ENDBRANCH   3  12
TORSDOF 3
ENDMDL
MODEL 7
REMARK VINA RESULT:      -7.8     28.399     30.547
REMARK  3 active torsions:
REMARK  status: ('A' for Active; 'I' for Inactive)
REMARK    1  A    between atoms: C5_9  and  O2_2 
REMARK    2  A    between atoms: C9_13  and  O3_3 
REMARK    3  A    between atoms: C1_5  and  C2_6 
ROOT
HETATM    1  O1  UNK     1      18.717  -4.453  36.472  1.00  0.00    -0.309 OA
HETATM    2  O4  UNK     1      22.377  -5.234  38.082  1.00  0.00    -0.287 OA
HETATM    3  C2  UNK     1      19.538  -3.439  36.938  1.00  0.00     0.093 A 
HETATM    4  C3  UNK     1      20.408  -6.083  37.088  1.00  0.00     0.048 A 
HETATM    5  C4  UNK     1      19.167  -5.747  36.551  1.00  0.00     0.090 A 
HETATM    6  C6  UNK     1      20.749  -3.636  37.481  1.00  0.00     0.094 A 
HETATM    7  C7  UNK     1      21.278  -5.011  37.594  1.00  0.00     0.187 A 
HETATM    8  C10 UNK     1      20.814  -7.420  37.145  1.00  0.00     0.018 A 
HETATM    9  C11 UNK     1      18.322  -6.746  36.068  1.00  0.00     0.038 A 
HETATM   10  C14 UNK     1      19.967  -8.416  36.661  1.00  0.00     0.001 A 
HETATM   11  C15 UNK     1      18.724  -8.081  36.123  1.00  0.00     0.003 A 
ENDROOT
BRANCH   3  12
HETATM   12  C1  UNK     1      18.955  -2.087  36.809  1.00  0.00     0.034 A 
HETATM   13  C5  UNK     1      19.325  -1.232  35.765  1.00  0.00     0.114 A 
HETATM   14  C9  UNK     1      18.759   0.039  35.665  1.00  0.00     0.102 A 
HETATM   15  C13 UNK     1      17.821   0.461  36.607  1.00  0.00     0.040 A 
HETATM   16  C12 UNK     1      17.449  -0.388  37.649  1.00  0.00     0.004 A 
HETATM   17  C8  UNK     1      18.014  -1.659  37.750  1.00  0.00     0.017 A 
BRANCH  13  18
HETATM   18  O2  UNK     1      20.241  -1.632  34.837  1.00  0.00    -0.352 OA
HETATM   19  C16 UNK     1      19.735  -2.102  33.591  1.00  0.00     0.210 C 
ENDBRANCH  13  18
BRANCH  14  20
HETATM   20  O3  UNK     1      19.113   0.879  34.653  1.00  0.00    -0.353 OA
HETATM   21  C17 UNK     1      18.079   1.680  34.086  1.00  0.00     0.210 C 
ENDBRANCH  14  20
ENDBRANCH   3  12
TORSDOF 3
ENDMDL
MODEL 8
REMARK VINA RESULT:      -7.6     24.897     26.996
REMARK  3 active torsions:
REMARK  status: ('A' for Active; 'I' for Inactive)
REMARK    1  A    between atoms: C5_9  and  O2_2 
REMARK    2  A    between atoms: C9_13  and  O3_3 
REMARK    3  A    between atoms: C1_5  and  C2_6 
ROOT
HETATM    1  O1  UNK     1      18.459   0.171  32.431  1.00  0.00    -0.309 OA
HETATM    2  O4  UNK     1      20.975  -3.023  32.694  1.00  0.00    -0.287 OA
HETATM    3  C2  UNK     1      18.547  -0.594  33.583  1.00  0.00     0.093 A 
HETATM    4  C3  UNK     1      20.138  -1.241  31.387  1.00  0.00     0.048 A 
HETATM    5  C4  UNK     1      19.254  -0.163  31.363  1.00  0.00     0.090 A 
HETATM    6  C6  UNK     1      19.352  -1.657  33.726  1.00  0.00     0.094 A 
HETATM    7  C7  UNK     1      20.226  -2.061  32.605  1.00  0.00     0.187 A 
HETATM    8  C10 UNK     1      20.923  -1.535  30.269  1.00  0.00     0.018 A 
HETATM    9  C11 UNK     1      19.150   0.628  30.220  1.00  0.00     0.038 A 
HETATM   10  C14 UNK     1      20.817  -0.742  29.126  1.00  0.00     0.001 A 
HETATM   11  C15 UNK     1      19.933   0.337  29.101  1.00  0.00     0.003 A 
ENDROOT
BRANCH   3  12
HETATM   12  C1  UNK     1      17.646  -0.151  34.667  1.00  0.00     0.034 A 
HETATM   13  C5  UNK     1      18.102   0.673  35.702  1.00  0.00     0.114 A 
HETATM   14  C9  UNK     1      17.231   1.078  36.713  1.00  0.00     0.102 A 
HETATM   15  C13 UNK     1      15.899   0.662  36.694  1.00  0.00     0.040 A 
HETATM   16  C12 UNK     1      15.439  -0.159  35.664  1.00  0.00     0.004 A 
HETATM   17  C8  UNK     1      16.310  -0.564  34.653  1.00  0.00     0.017 A 
BRANCH  13  18
HETATM   18  O2  UNK     1      19.401   1.087  35.732  1.00  0.00    -0.352 OA
HETATM   19  C16 UNK     1      19.630   2.492  35.802  1.00  0.00     0.210 C 
ENDBRANCH  13  18
BRANCH  14  20
HETATM   20  O3  UNK     1      17.665   1.880  37.724  1.00  0.00    -0.353 OA
HETATM   21  C17 UNK     1      17.814   1.278  39.009  1.00  0.00     0.210 C 
ENDBRANCH  14  20
ENDBRANCH   3  12
TORSDOF 3
ENDMDL
MODEL 9
REMARK VINA RESULT:      -7.6     11.676     13.958
REMARK  3 active torsions:
REMARK  status: ('A' for Active; 'I' for Inactive)
REMARK    1  A    between atoms: C5_9  and  O2_2 
REMARK    2  A    between atoms: C9_13  and  O3_3 
REMARK    3  A    between atoms: C1_5  and  C2_6 
ROOT
HETATM    1  O1  UNK     1      19.222  -0.146  16.190  1.00  0.00    -0.309 OA
HETATM    2  O4  UNK     1      18.682  -0.199  20.228  1.00  0.00    -0.287 OA
HETATM    3  C2  UNK     1      19.010  -1.329  16.880  1.00  0.00     0.093 A 
HETATM    4  C3  UNK     1      19.057   1.083  18.279  1.00  0.00     0.048 A 
HETATM    5  C4  UNK     1      19.237   1.030  16.897  1.00  0.00     0.090 A 
HETATM    6  C6  UNK     1      18.831  -1.408  18.208  1.00  0.00     0.094 A 
HETATM    7  C7  UNK     1      18.842  -0.171  19.016  1.00  0.00     0.187 A 
HETATM    8  C10 UNK     1      19.082   2.310  18.947  1.00  0.00     0.018 A 
HETATM    9  C11 UNK     1      19.444   2.205  16.175  1.00  0.00     0.038 A 
HETATM   10  C14 UNK     1      19.290   3.483  18.223  1.00  0.00     0.001 A 
HETATM   11  C15 UNK     1      19.471   3.432  16.840  1.00  0.00     0.003 A 
ENDROOT
BRANCH   3  12
HETATM   12  C1  UNK     1      19.019  -2.533  16.024  1.00  0.00     0.034 A 
HETATM   13  C5  UNK     1      20.202  -3.229  15.759  1.00  0.00     0.114 A 
HETATM   14  C9  UNK     1      20.183  -4.364  14.949  1.00  0.00     0.102 A 
HETATM   15  C13 UNK     1      18.980  -4.808  14.399  1.00  0.00     0.040 A 
HETATM   16  C12 UNK     1      17.797  -4.117  14.660  1.00  0.00     0.004 A 
HETATM   17  C8  UNK     1      17.816  -2.983  15.471  1.00  0.00     0.017 A 
BRANCH  13  18
HETATM   18  O2  UNK     1      21.386  -2.807  16.291  1.00  0.00    -0.352 OA
HETATM   19  C16 UNK     1      21.872  -3.514  17.428  1.00  0.00     0.210 C 
ENDBRANCH  13  18
BRANCH  14  20
HETATM   20  O3  UNK     1      21.330  -5.049  14.685  1.00  0.00    -0.353 OA
HETATM   21  C17 UNK     1      21.353  -6.432  15.032  1.00  0.00     0.210 C 
ENDBRANCH  14  20
ENDBRANCH   3  12
TORSDOF 3
ENDMDL
MODEL 10
REMARK VINA RESULT:      -7.6     22.946     25.332
REMARK  3 active torsions:
REMARK  status: ('A' for Active; 'I' for Inactive)
REMARK    1  A    between atoms: C5_9  and  O2_2 
REMARK    2  A    between atoms: C9_13  and  O3_3 
REMARK    3  A    between atoms: C1_5  and  C2_6 
ROOT
HETATM    1  O1  UNK     1      18.910   6.307  31.722  1.00  0.00    -0.309 OA
HETATM    2  O4  UNK     1      18.033   3.203  34.212  1.00  0.00    -0.287 OA
HETATM    3  C2  UNK     1      18.775   6.486  33.090  1.00  0.00     0.093 A 
HETATM    4  C3  UNK     1      18.453   3.938  32.006  1.00  0.00     0.048 A 
HETATM    5  C4  UNK     1      18.751   5.043  31.211  1.00  0.00     0.090 A 
HETATM    6  C6  UNK     1      18.483   5.505  33.956  1.00  0.00     0.094 A 
HETATM    7  C7  UNK     1      18.299   4.127  33.456  1.00  0.00     0.187 A 
HETATM    8  C10 UNK     1      18.301   2.673  31.429  1.00  0.00     0.018 A 
HETATM    9  C11 UNK     1      18.900   4.891  29.832  1.00  0.00     0.038 A 
HETATM   10  C14 UNK     1      18.451   2.524  30.051  1.00  0.00     0.001 A 
HETATM   11  C15 UNK     1      18.750   3.629  29.253  1.00  0.00     0.003 A 
ENDROOT
BRANCH   3  12
HETATM   12  C1  UNK     1      18.960   7.884  33.532  1.00  0.00     0.034 A 
HETATM   13  C5  UNK     1      17.929   8.823  33.428  1.00  0.00     0.114 A 
HETATM   14  C9  UNK     1      18.129  10.136  33.854  1.00  0.00     0.102 A 
HETATM   15  C13 UNK     1      19.362  10.516  34.385  1.00  0.00     0.040 A 
HETATM   16  C12 UNK     1      20.394   9.583  34.492  1.00  0.00     0.004 A 
HETATM   17  C8  UNK     1      20.193   8.271  34.066  1.00  0.00     0.017 A 
BRANCH  13  18
HETATM   18  O2  UNK     1      16.719   8.465  32.910  1.00  0.00    -0.352 OA
HETATM   19  C16 UNK     1      15.713   8.063  33.837  1.00  0.00     0.210 C 
ENDBRANCH  13  18
BRANCH  14  20
HETATM   20  O3  UNK     1      17.131  11.058  33.757  1.00  0.00    -0.353 OA
HETATM   21  C17 UNK     1      17.423  12.377  34.211  1.00  0.00     0.210 C 
ENDBRANCH  14  20
ENDBRANCH   3  12
TORSDOF 3
ENDMDL
