MODEL 1
REMARK VINA RESULT:      -9.3      0.000      0.000
REMARK  6 active torsions:
REMARK  status: ('A' for Active; 'I' for Inactive)
REMARK    1  A    between atoms: C11_16  and  O1_1 
REMARK    2  A    between atoms: C4_9  and  O1_1 
REMARK    3  A    between atoms: C23_28  and  N1_4 
REMARK    4  A    between atoms: C2_7  and  C4_9 
REMARK    5  A    between atoms: C13_18  and  C18_23 
REMARK    6  A    between atoms: C19_24  and  C20_25 
ROOT
HETATM    1  N2  UNK     1      30.102  -2.702  29.824  1.00  0.00    -0.191 NA
HETATM    2  C18 UNK     1      30.067  -4.914  32.432  1.00  0.00     0.034 C 
HETATM    3  C20 UNK     1      30.030  -4.957  31.098  1.00  0.00     0.055 C 
HETATM    4  C26 UNK     1      30.069  -3.712  30.396  1.00  0.00     0.100 C 
ENDROOT
BRANCH   3   5
HETATM    5  C19 UNK     1      29.935  -6.194  30.297  1.00  0.00    -0.015 A 
HETATM    6  C21 UNK     1      28.726  -6.864  30.231  1.00  0.00     0.015 A 
HETATM    7  C24 UNK     1      28.635  -8.031  29.472  1.00  0.00     0.037 A 
HETATM    8  C23 UNK     1      29.756  -8.511  28.795  1.00  0.00     0.102 A 
HETATM    9  C25 UNK     1      30.967  -7.824  28.875  1.00  0.00     0.037 A 
HETATM   10  C22 UNK     1      31.057  -6.655  29.632  1.00  0.00     0.015 A 
BRANCH   8  11
HETATM   11  N1  UNK     1      29.665  -9.700  28.024  1.00  0.00    -0.116 N 
HETATM   12  O2  UNK     1      30.639 -10.037  27.308  1.00  0.00    -0.532 OA
HETATM   13  O3  UNK     1      28.614 -10.383  28.081  1.00  0.00    -0.532 OA
ENDBRANCH   8  11
ENDBRANCH   3   5
BRANCH   2  14
HETATM   14  C13 UNK     1      30.047  -6.099  33.276  1.00  0.00    -0.035 A 
HETATM   15  C16 UNK     1      28.845  -6.542  33.829  1.00  0.00     0.014 A 
HETATM   16  C14 UNK     1      28.827  -7.678  34.638  1.00  0.00     0.037 A 
HETATM   17  C11 UNK     1      30.010  -8.363  34.887  1.00  0.00     0.069 A 
HETATM   18  C15 UNK     1      31.211  -7.928  34.340  1.00  0.00     0.037 A 
HETATM   19  C17 UNK     1      31.229  -6.792  33.531  1.00  0.00     0.014 A 
BRANCH  17  20
HETATM   20  O1  UNK     1      29.991  -9.480  35.682  1.00  0.00    -0.347 OA
BRANCH  20  21
HETATM   21  C4  UNK     1      30.558  -9.355  36.978  1.00  0.00     0.215 C 
BRANCH  21  22
HETATM   22  C2  UNK     1      29.630  -8.564  37.848  1.00  0.00    -0.023 A 
HETATM   23  C1  UNK     1      29.853  -7.207  38.132  1.00  0.00    -0.018 A 
HETATM   24  C3  UNK     1      28.938  -6.515  38.961  1.00  0.00    -0.025 A 
HETATM   25  C6  UNK     1      30.963  -6.522  37.613  1.00  0.00     0.013 A 
HETATM   26  C7  UNK     1      27.828  -7.200  39.482  1.00  0.00     0.012 A 
HETATM   27  C8  UNK     1      29.161  -5.158  39.246  1.00  0.00     0.012 A 
HETATM   28  C9  UNK     1      27.623  -8.549  39.188  1.00  0.00     0.002 A 
HETATM   29  C5  UNK     1      28.523  -9.229  38.373  1.00  0.00     0.010 A 
HETATM   30  C12 UNK     1      30.269  -4.492  38.721  1.00  0.00     0.001 A 
HETATM   31  C10 UNK     1      31.169  -5.173  37.906  1.00  0.00     0.001 A 
ENDBRANCH  21  22
ENDBRANCH  20  21
ENDBRANCH  17  20
ENDBRANCH   2  14
TORSDOF 6
ENDMDL
MODEL 2
REMARK VINA RESULT:      -9.1      3.589      8.499
REMARK  6 active torsions:
REMARK  status: ('A' for Active; 'I' for Inactive)
REMARK    1  A    between atoms: C11_16  and  O1_1 
REMARK    2  A    between atoms: C4_9  and  O1_1 
REMARK    3  A    between atoms: C23_28  and  N1_4 
REMARK    4  A    between atoms: C2_7  and  C4_9 
REMARK    5  A    between atoms: C13_18  and  C18_23 
REMARK    6  A    between atoms: C19_24  and  C20_25 
ROOT
HETATM    1  N2  UNK     1      35.732  -5.546  36.439  1.00  0.00    -0.191 NA
HETATM    2  C18 UNK     1      33.080  -6.311  34.421  1.00  0.00     0.034 C 
HETATM    3  C20 UNK     1      33.282  -5.788  35.632  1.00  0.00     0.055 C 
HETATM    4  C26 UNK     1      34.635  -5.655  36.077  1.00  0.00     0.100 C 
ENDROOT
BRANCH   3   5
HETATM    5  C19 UNK     1      32.211  -5.352  36.551  1.00  0.00    -0.015 A 
HETATM    6  C21 UNK     1      31.790  -4.034  36.519  1.00  0.00     0.015 A 
HETATM    7  C24 UNK     1      30.778  -3.622  37.387  1.00  0.00     0.037 A 
HETATM    8  C23 UNK     1      30.205  -4.534  38.273  1.00  0.00     0.102 A 
HETATM    9  C25 UNK     1      30.643  -5.858  38.292  1.00  0.00     0.037 A 
HETATM   10  C22 UNK     1      31.654  -6.271  37.423  1.00  0.00     0.015 A 
BRANCH   8  11
HETATM   11  N1  UNK     1      29.175  -4.115  39.156  1.00  0.00    -0.116 N 
HETATM   12  O2  UNK     1      29.490  -3.582  40.248  1.00  0.00    -0.532 OA
HETATM   13  O3  UNK     1      27.979  -4.287  38.821  1.00  0.00    -0.532 OA
ENDBRANCH   8  11
ENDBRANCH   3   5
BRANCH   2  14
HETATM   14  C13 UNK     1      31.762  -6.494  33.833  1.00  0.00    -0.035 A 
HETATM   15  C16 UNK     1      31.084  -5.404  33.287  1.00  0.00     0.014 A 
HETATM   16  C14 UNK     1      29.820  -5.581  32.723  1.00  0.00     0.037 A 
HETATM   17  C11 UNK     1      29.244  -6.845  32.708  1.00  0.00     0.069 A 
HETATM   18  C15 UNK     1      29.913  -7.936  33.250  1.00  0.00     0.037 A 
HETATM   19  C17 UNK     1      31.177  -7.760  33.814  1.00  0.00     0.014 A 
BRANCH  17  20
HETATM   20  O1  UNK     1      28.003  -7.018  32.153  1.00  0.00    -0.347 OA
BRANCH  20  21
HETATM   21  C4  UNK     1      27.854  -6.655  30.789  1.00  0.00     0.215 C 
BRANCH  21  22
HETATM   22  C2  UNK     1      28.353  -7.773  29.925  1.00  0.00    -0.023 A 
HETATM   23  C1  UNK     1      29.673  -7.809  29.445  1.00  0.00    -0.018 A 
HETATM   24  C3  UNK     1      30.083  -8.893  28.633  1.00  0.00    -0.025 A 
HETATM   25  C6  UNK     1      30.593  -6.794  29.752  1.00  0.00     0.013 A 
HETATM   26  C7  UNK     1      29.163  -9.908  28.325  1.00  0.00     0.012 A 
HETATM   27  C8  UNK     1      31.402  -8.929  28.151  1.00  0.00     0.012 A 
HETATM   28  C9  UNK     1      27.856  -9.855  28.811  1.00  0.00     0.002 A 
HETATM   29  C5  UNK     1      27.452  -8.789  29.609  1.00  0.00     0.010 A 
HETATM   30  C12 UNK     1      32.304  -7.912  28.467  1.00  0.00     0.001 A 
HETATM   31  C10 UNK     1      31.900  -6.846  29.265  1.00  0.00     0.001 A 
ENDBRANCH  21  22
ENDBRANCH  20  21
ENDBRANCH  17  20
ENDBRANCH   2  14
TORSDOF 6
ENDMDL
MODEL 3
REMARK VINA RESULT:      -8.9      0.817      1.865
REMARK  6 active torsions:
REMARK  status: ('A' for Active; 'I' for Inactive)
REMARK    1  A    between atoms: C11_16  and  O1_1 
REMARK    2  A    between atoms: C4_9  and  O1_1 
REMARK    3  A    between atoms: C23_28  and  N1_4 
REMARK    4  A    between atoms: C2_7  and  C4_9 
REMARK    5  A    between atoms: C13_18  and  C18_23 
REMARK    6  A    between atoms: C19_24  and  C20_25 
ROOT
HETATM    1  N2  UNK     1      30.120  -2.753  29.762  1.00  0.00    -0.191 NA
HETATM    2  C18 UNK     1      29.830  -4.923  32.389  1.00  0.00     0.034 C 
HETATM    3  C20 UNK     1      29.894  -4.986  31.058  1.00  0.00     0.055 C 
HETATM    4  C26 UNK     1      30.019  -3.753  30.343  1.00  0.00     0.100 C 
ENDROOT
BRANCH   3   5
HETATM    5  C19 UNK     1      29.831  -6.233  30.269  1.00  0.00    -0.015 A 
HETATM    6  C21 UNK     1      28.633  -6.921  30.191  1.00  0.00     0.015 A 
HETATM    7  C24 UNK     1      28.572  -8.099  29.445  1.00  0.00     0.037 A 
HETATM    8  C23 UNK     1      29.711  -8.569  28.790  1.00  0.00     0.102 A 
HETATM    9  C25 UNK     1      30.910  -7.862  28.881  1.00  0.00     0.037 A 
HETATM   10  C22 UNK     1      30.971  -6.684  29.627  1.00  0.00     0.015 A 
BRANCH   8  11
HETATM   11  N1  UNK     1      29.649  -9.767  28.031  1.00  0.00    -0.116 N 
HETATM   12  O2  UNK     1      30.579 -10.027  27.229  1.00  0.00    -0.532 OA
HETATM   13  O3  UNK     1      28.669 -10.534  28.184  1.00  0.00    -0.532 OA
ENDBRANCH   8  11
ENDBRANCH   3   5
BRANCH   2  14
HETATM   14  C13 UNK     1      29.717  -6.093  33.246  1.00  0.00    -0.035 A 
HETATM   15  C16 UNK     1      30.842  -6.871  33.517  1.00  0.00     0.014 A 
HETATM   16  C14 UNK     1      30.732  -7.993  34.339  1.00  0.00     0.037 A 
HETATM   17  C11 UNK     1      29.499  -8.328  34.884  1.00  0.00     0.069 A 
HETATM   18  C15 UNK     1      28.373  -7.557  34.619  1.00  0.00     0.037 A 
HETATM   19  C17 UNK     1      28.483  -6.436  33.797  1.00  0.00     0.014 A 
BRANCH  17  20
HETATM   20  O1  UNK     1      29.392  -9.430  35.692  1.00  0.00    -0.347 OA
BRANCH  20  21
HETATM   21  C4  UNK     1      29.205  -9.193  37.079  1.00  0.00     0.215 C 
BRANCH  21  22
HETATM   22  C2  UNK     1      30.248  -8.231  37.560  1.00  0.00    -0.023 A 
HETATM   23  C1  UNK     1      29.925  -6.930  37.977  1.00  0.00    -0.018 A 
HETATM   24  C3  UNK     1      30.957  -6.070  38.421  1.00  0.00    -0.025 A 
HETATM   25  C6  UNK     1      28.601  -6.463  37.963  1.00  0.00     0.013 A 
HETATM   26  C7  UNK     1      32.282  -6.535  38.434  1.00  0.00     0.012 A 
HETATM   27  C8  UNK     1      30.634  -4.767  38.837  1.00  0.00     0.012 A 
HETATM   28  C9  UNK     1      32.584  -7.832  38.016  1.00  0.00     0.002 A 
HETATM   29  C5  UNK     1      31.569  -8.678  37.579  1.00  0.00     0.010 A 
HETATM   30  C12 UNK     1      29.313  -4.321  38.817  1.00  0.00     0.001 A 
HETATM   31  C10 UNK     1      28.298  -5.167  38.380  1.00  0.00     0.001 A 
ENDBRANCH  21  22
ENDBRANCH  20  21
ENDBRANCH  17  20
ENDBRANCH   2  14
TORSDOF 6
ENDMDL
MODEL 4
REMARK VINA RESULT:      -8.9      2.517      3.923
REMARK  6 active torsions:
REMARK  status: ('A' for Active; 'I' for Inactive)
REMARK    1  A    between atoms: C11_16  and  O1_1 
REMARK    2  A    between atoms: C4_9  and  O1_1 
REMARK    3  A    between atoms: C23_28  and  N1_4 
REMARK    4  A    between atoms: C2_7  and  C4_9 
REMARK    5  A    between atoms: C13_18  and  C18_23 
REMARK    6  A    between atoms: C19_24  and  C20_25 
ROOT
HETATM    1  N2  UNK     1      28.157  -9.558  28.984  1.00  0.00    -0.191 NA
HETATM    2  C18 UNK     1      29.368  -8.451  31.984  1.00  0.00     0.034 C 
HETATM    3  C20 UNK     1      29.799  -8.566  30.726  1.00  0.00     0.055 C 
HETATM    4  C26 UNK     1      28.892  -9.114  29.765  1.00  0.00     0.100 C 
ENDROOT
BRANCH   3   5
HETATM    5  C19 UNK     1      31.147  -8.184  30.258  1.00  0.00    -0.015 A 
HETATM    6  C21 UNK     1      32.182  -9.094  30.371  1.00  0.00     0.015 A 
HETATM    7  C24 UNK     1      33.456  -8.735  29.928  1.00  0.00     0.037 A 
HETATM    8  C23 UNK     1      33.672  -7.470  29.382  1.00  0.00     0.102 A 
HETATM    9  C25 UNK     1      32.616  -6.565  29.277  1.00  0.00     0.037 A 
HETATM   10  C22 UNK     1      31.342  -6.925  29.719  1.00  0.00     0.015 A 
BRANCH   8  11
HETATM   11  N1  UNK     1      34.968  -7.103  28.931  1.00  0.00    -0.116 N 
HETATM   12  O2  UNK     1      35.487  -7.744  27.986  1.00  0.00    -0.532 OA
HETATM   13  O3  UNK     1      35.558  -6.147  29.490  1.00  0.00    -0.532 OA
ENDBRANCH   8  11
ENDBRANCH   3   5
BRANCH   2  14
HETATM   14  C13 UNK     1      30.173  -7.900  33.063  1.00  0.00    -0.035 A 
HETATM   15  C16 UNK     1      30.195  -6.523  33.284  1.00  0.00     0.014 A 
HETATM   16  C14 UNK     1      30.967  -5.995  34.319  1.00  0.00     0.037 A 
HETATM   17  C11 UNK     1      31.710  -6.848  35.127  1.00  0.00     0.069 A 
HETATM   18  C15 UNK     1      31.692  -8.221  34.913  1.00  0.00     0.037 A 
HETATM   19  C17 UNK     1      30.920  -8.749  33.878  1.00  0.00     0.014 A 
BRANCH  17  20
HETATM   20  O1  UNK     1      32.468  -6.329  36.144  1.00  0.00    -0.347 OA
BRANCH  20  21
HETATM   21  C4  UNK     1      32.289  -6.899  37.432  1.00  0.00     0.215 C 
BRANCH  21  22
HETATM   22  C2  UNK     1      31.061  -6.315  38.063  1.00  0.00    -0.023 A 
HETATM   23  C1  UNK     1      29.948  -7.105  38.395  1.00  0.00    -0.018 A 
HETATM   24  C3  UNK     1      28.819  -6.493  38.989  1.00  0.00    -0.025 A 
HETATM   25  C6  UNK     1      29.932  -8.487  38.150  1.00  0.00     0.013 A 
HETATM   26  C7  UNK     1      28.835  -5.110  39.233  1.00  0.00     0.012 A 
HETATM   27  C8  UNK     1      27.706  -7.282  39.320  1.00  0.00     0.012 A 
HETATM   28  C9  UNK     1      29.950  -4.342  38.896  1.00  0.00     0.002 A 
HETATM   29  C5  UNK     1      31.060  -4.943  38.311  1.00  0.00     0.010 A 
HETATM   30  C12 UNK     1      27.706  -8.655  39.071  1.00  0.00     0.001 A 
HETATM   31  C10 UNK     1      28.817  -9.257  38.487  1.00  0.00     0.001 A 
ENDBRANCH  21  22
ENDBRANCH  20  21
ENDBRANCH  17  20
ENDBRANCH   2  14
TORSDOF 6
ENDMDL
MODEL 5
REMARK VINA RESULT:      -8.8      1.679      2.922
REMARK  6 active torsions:
REMARK  status: ('A' for Active; 'I' for Inactive)
REMARK    1  A    between atoms: C11_16  and  O1_1 
REMARK    2  A    between atoms: C4_9  and  O1_1 
REMARK    3  A    between atoms: C23_28  and  N1_4 
REMARK    4  A    between atoms: C2_7  and  C4_9 
REMARK    5  A    between atoms: C13_18  and  C18_23 
REMARK    6  A    between atoms: C19_24  and  C20_25 
ROOT
HETATM    1  N2  UNK     1      24.894  -6.211  30.042  1.00  0.00    -0.191 NA
HETATM    2  C18 UNK     1      27.339  -6.545  32.410  1.00  0.00     0.034 C 
HETATM    3  C20 UNK     1      27.169  -6.830  31.117  1.00  0.00     0.055 C 
HETATM    4  C26 UNK     1      25.913  -6.488  30.525  1.00  0.00     0.100 C 
ENDROOT
BRANCH   3   5
HETATM    5  C19 UNK     1      28.177  -7.485  30.258  1.00  0.00    -0.015 A 
HETATM    6  C21 UNK     1      28.014  -8.817  29.922  1.00  0.00     0.015 A 
HETATM    7  C24 UNK     1      28.965  -9.435  29.110  1.00  0.00     0.037 A 
HETATM    8  C23 UNK     1      30.064  -8.712  28.649  1.00  0.00     0.102 A 
HETATM    9  C25 UNK     1      30.213  -7.370  29.000  1.00  0.00     0.037 A 
HETATM   10  C22 UNK     1      29.262  -6.751  29.811  1.00  0.00     0.015 A 
BRANCH   8  11
HETATM   11  N1  UNK     1      31.033  -9.341  27.824  1.00  0.00    -0.116 N 
HETATM   12  O2  UNK     1      32.211  -8.908  27.830  1.00  0.00    -0.532 OA
HETATM   13  O3  UNK     1      30.686 -10.313  27.111  1.00  0.00    -0.532 OA
ENDBRANCH   8  11
ENDBRANCH   3   5
BRANCH   2  14
HETATM   14  C13 UNK     1      28.566  -6.822  33.140  1.00  0.00    -0.035 A 
HETATM   15  C16 UNK     1      29.532  -5.826  33.285  1.00  0.00     0.014 A 
HETATM   16  C14 UNK     1      30.708  -6.092  33.986  1.00  0.00     0.037 A 
HETATM   17  C11 UNK     1      30.909  -7.352  34.538  1.00  0.00     0.069 A 
HETATM   18  C15 UNK     1      29.952  -8.349  34.399  1.00  0.00     0.037 A 
HETATM   19  C17 UNK     1      28.776  -8.083  33.698  1.00  0.00     0.014 A 
BRANCH  17  20
HETATM   20  O1  UNK     1      32.065  -7.612  35.228  1.00  0.00    -0.347 OA
BRANCH  20  21
HETATM   21  C4  UNK     1      31.925  -8.098  36.554  1.00  0.00     0.215 C 
BRANCH  21  22
HETATM   22  C2  UNK     1      31.204  -7.077  37.379  1.00  0.00    -0.023 A 
HETATM   23  C1  UNK     1      30.009  -7.374  38.054  1.00  0.00    -0.018 A 
HETATM   24  C3  UNK     1      29.376  -6.365  38.818  1.00  0.00    -0.025 A 
HETATM   25  C6  UNK     1      29.427  -8.650  37.986  1.00  0.00     0.013 A 
HETATM   26  C7  UNK     1      29.957  -5.088  38.885  1.00  0.00     0.012 A 
HETATM   27  C8  UNK     1      28.180  -6.662  39.492  1.00  0.00     0.012 A 
HETATM   28  C9  UNK     1      31.146  -4.811  38.208  1.00  0.00     0.002 A 
HETATM   29  C5  UNK     1      31.767  -5.803  37.456  1.00  0.00     0.010 A 
HETATM   30  C12 UNK     1      27.617  -7.936  39.414  1.00  0.00     0.001 A 
HETATM   31  C10 UNK     1      28.239  -8.928  38.663  1.00  0.00     0.001 A 
ENDBRANCH  21  22
ENDBRANCH  20  21
ENDBRANCH  17  20
ENDBRANCH   2  14
TORSDOF 6
ENDMDL
MODEL 6
REMARK VINA RESULT:      -8.6      3.522      8.961
REMARK  6 active torsions:
REMARK  status: ('A' for Active; 'I' for Inactive)
REMARK    1  A    between atoms: C11_16  and  O1_1 
REMARK    2  A    between atoms: C4_9  and  O1_1 
REMARK    3  A    between atoms: C23_28  and  N1_4 
REMARK    4  A    between atoms: C2_7  and  C4_9 
REMARK    5  A    between atoms: C13_18  and  C18_23 
REMARK    6  A    between atoms: C19_24  and  C20_25 
ROOT
HETATM    1  N2  UNK     1      31.011 -10.788  39.030  1.00  0.00    -0.191 NA
HETATM    2  C18 UNK     1      30.975  -9.060  36.079  1.00  0.00     0.034 C 
HETATM    3  C20 UNK     1      30.373  -8.997  37.269  1.00  0.00     0.055 C 
HETATM    4  C26 UNK     1      30.725  -9.986  38.241  1.00  0.00     0.100 C 
ENDROOT
BRANCH   3   5
HETATM    5  C19 UNK     1      29.361  -7.991  37.650  1.00  0.00    -0.015 A 
HETATM    6  C21 UNK     1      28.025  -8.349  37.658  1.00  0.00     0.015 A 
HETATM    7  C24 UNK     1      27.068  -7.399  38.018  1.00  0.00     0.037 A 
HETATM    8  C23 UNK     1      27.464  -6.107  38.364  1.00  0.00     0.102 A 
HETATM    9  C25 UNK     1      28.816  -5.764  38.349  1.00  0.00     0.037 A 
HETATM   10  C22 UNK     1      29.773  -6.714  37.989  1.00  0.00     0.015 A 
BRANCH   8  11
HETATM   11  N1  UNK     1      26.491  -5.141  38.730  1.00  0.00    -0.116 N 
HETATM   12  O2  UNK     1      26.866  -3.978  39.016  1.00  0.00    -0.532 OA
HETATM   13  O3  UNK     1      25.282  -5.474  38.757  1.00  0.00    -0.532 OA
ENDBRANCH   8  11
ENDBRANCH   3   5
BRANCH   2  14
HETATM   14  C13 UNK     1      30.727  -8.116  35.001  1.00  0.00    -0.035 A 
HETATM   15  C16 UNK     1      29.548  -8.197  34.259  1.00  0.00     0.014 A 
HETATM   16  C14 UNK     1      29.311  -7.292  33.226  1.00  0.00     0.037 A 
HETATM   17  C11 UNK     1      30.253  -6.310  32.942  1.00  0.00     0.069 A 
HETATM   18  C15 UNK     1      31.429  -6.222  33.677  1.00  0.00     0.037 A 
HETATM   19  C17 UNK     1      31.666  -7.127  34.710  1.00  0.00     0.014 A 
BRANCH  17  20
HETATM   20  O1  UNK     1      30.018  -5.419  31.927  1.00  0.00    -0.347 OA
BRANCH  20  21
HETATM   21  C4  UNK     1      29.220  -5.875  30.845  1.00  0.00     0.215 C 
BRANCH  21  22
HETATM   22  C2  UNK     1      30.044  -6.763  29.964  1.00  0.00    -0.023 A 
HETATM   23  C1  UNK     1      29.525  -7.940  29.401  1.00  0.00    -0.018 A 
HETATM   24  C3  UNK     1      30.355  -8.736  28.576  1.00  0.00    -0.025 A 
HETATM   25  C6  UNK     1      28.202  -8.345  29.637  1.00  0.00     0.013 A 
HETATM   26  C7  UNK     1      31.679  -8.332  28.340  1.00  0.00     0.012 A 
HETATM   27  C8  UNK     1      29.837  -9.914  28.013  1.00  0.00     0.012 A 
HETATM   28  C9  UNK     1      32.177  -7.160  28.908  1.00  0.00     0.002 A 
HETATM   29  C5  UNK     1      31.361  -6.377  29.719  1.00  0.00     0.010 A 
HETATM   30  C12 UNK     1      28.519 -10.301  28.259  1.00  0.00     0.001 A 
HETATM   31  C10 UNK     1      27.703  -9.518  29.070  1.00  0.00     0.001 A 
ENDBRANCH  21  22
ENDBRANCH  20  21
ENDBRANCH  17  20
ENDBRANCH   2  14
TORSDOF 6
ENDMDL
MODEL 7
REMARK VINA RESULT:      -8.6      3.305      7.274
REMARK  6 active torsions:
REMARK  status: ('A' for Active; 'I' for Inactive)
REMARK    1  A    between atoms: C11_16  and  O1_1 
REMARK    2  A    between atoms: C4_9  and  O1_1 
REMARK    3  A    between atoms: C23_28  and  N1_4 
REMARK    4  A    between atoms: C2_7  and  C4_9 
REMARK    5  A    between atoms: C13_18  and  C18_23 
REMARK    6  A    between atoms: C19_24  and  C20_25 
ROOT
HETATM    1  N2  UNK     1      29.416  -3.553  40.175  1.00  0.00    -0.191 NA
HETATM    2  C18 UNK     1      28.814  -6.074  37.944  1.00  0.00     0.034 C 
HETATM    3  C20 UNK     1      29.818  -5.253  38.261  1.00  0.00     0.055 C 
HETATM    4  C26 UNK     1      29.595  -4.314  39.317  1.00  0.00     0.100 C 
ENDROOT
BRANCH   3   5
HETATM    5  C19 UNK     1      31.134  -5.232  37.590  1.00  0.00    -0.015 A 
HETATM    6  C21 UNK     1      31.248  -4.637  36.347  1.00  0.00     0.015 A 
HETATM    7  C24 UNK     1      32.491  -4.616  35.714  1.00  0.00     0.037 A 
HETATM    8  C23 UNK     1      33.599  -5.193  36.334  1.00  0.00     0.102 A 
HETATM    9  C25 UNK     1      33.464  -5.790  37.587  1.00  0.00     0.037 A 
HETATM   10  C22 UNK     1      32.221  -5.810  38.221  1.00  0.00     0.015 A 
BRANCH   8  11
HETATM   11  N1  UNK     1      34.864  -5.172  35.690  1.00  0.00    -0.116 N 
HETATM   12  O2  UNK     1      34.958  -4.655  34.551  1.00  0.00    -0.532 OA
HETATM   13  O3  UNK     1      35.854  -5.670  36.278  1.00  0.00    -0.532 OA
ENDBRANCH   8  11
ENDBRANCH   3   5
BRANCH   2  14
HETATM   14  C13 UNK     1      28.901  -7.086  36.903  1.00  0.00    -0.035 A 
HETATM   15  C16 UNK     1      28.008  -7.064  35.832  1.00  0.00     0.014 A 
HETATM   16  C14 UNK     1      28.091  -8.034  34.834  1.00  0.00     0.037 A 
HETATM   17  C11 UNK     1      29.067  -9.020  34.913  1.00  0.00     0.069 A 
HETATM   18  C15 UNK     1      29.961  -9.049  35.977  1.00  0.00     0.037 A 
HETATM   19  C17 UNK     1      29.877  -8.079  36.975  1.00  0.00     0.014 A 
BRANCH  17  20
HETATM   20  O1  UNK     1      29.149  -9.973  33.932  1.00  0.00    -0.347 OA
BRANCH  20  21
HETATM   21  C4  UNK     1      30.010  -9.695  32.837  1.00  0.00     0.215 C 
BRANCH  21  22
HETATM   22  C2  UNK     1      29.302  -8.795  31.871  1.00  0.00    -0.023 A 
HETATM   23  C1  UNK     1      29.542  -7.412  31.830  1.00  0.00    -0.018 A 
HETATM   24  C3  UNK     1      28.841  -6.616  30.894  1.00  0.00    -0.025 A 
HETATM   25  C6  UNK     1      30.461  -6.802  32.699  1.00  0.00     0.013 A 
HETATM   26  C7  UNK     1      27.922  -7.226  30.025  1.00  0.00     0.012 A 
HETATM   27  C8  UNK     1      29.080  -5.232  30.853  1.00  0.00     0.012 A 
HETATM   28  C9  UNK     1      27.697  -8.602  30.080  1.00  0.00     0.002 A 
HETATM   29  C5  UNK     1      28.385  -9.385  31.001  1.00  0.00     0.010 A 
HETATM   30  C12 UNK     1      29.997  -4.643  31.724  1.00  0.00     0.001 A 
HETATM   31  C10 UNK     1      30.686  -5.425  32.645  1.00  0.00     0.001 A 
ENDBRANCH  21  22
ENDBRANCH  20  21
ENDBRANCH  17  20
ENDBRANCH   2  14
TORSDOF 6
ENDMDL
MODEL 8
REMARK VINA RESULT:      -8.5      3.294      5.379
REMARK  6 active torsions:
REMARK  status: ('A' for Active; 'I' for Inactive)
REMARK    1  A    between atoms: C11_16  and  O1_1 
REMARK    2  A    between atoms: C4_9  and  O1_1 
REMARK    3  A    between atoms: C23_28  and  N1_4 
REMARK    4  A    between atoms: C2_7  and  C4_9 
REMARK    5  A    between atoms: C13_18  and  C18_23 
REMARK    6  A    between atoms: C19_24  and  C20_25 
ROOT
HETATM    1  N2  UNK     1      28.395 -10.317  27.839  1.00  0.00    -0.191 NA
HETATM    2  C18 UNK     1      28.589  -8.794  30.895  1.00  0.00     0.034 C 
HETATM    3  C20 UNK     1      29.386  -9.013  29.847  1.00  0.00     0.055 C 
HETATM    4  C26 UNK     1      28.838  -9.733  28.739  1.00  0.00     0.100 C 
ENDROOT
BRANCH   3   5
HETATM    5  C19 UNK     1      30.796  -8.580  29.754  1.00  0.00    -0.015 A 
HETATM    6  C21 UNK     1      31.080  -7.302  29.306  1.00  0.00     0.015 A 
HETATM    7  C24 UNK     1      32.411  -6.892  29.220  1.00  0.00     0.037 A 
HETATM    8  C23 UNK     1      33.435  -7.767  29.581  1.00  0.00     0.102 A 
HETATM    9  C25 UNK     1      33.129  -9.052  30.029  1.00  0.00     0.037 A 
HETATM   10  C22 UNK     1      31.798  -9.462  30.116  1.00  0.00     0.015 A 
BRANCH   8  11
HETATM   11  N1  UNK     1      34.789  -7.350  29.492  1.00  0.00    -0.116 N 
HETATM   12  O2  UNK     1      35.042  -6.129  29.349  1.00  0.00    -0.532 OA
HETATM   13  O3  UNK     1      35.697  -8.213  29.561  1.00  0.00    -0.532 OA
ENDBRANCH   8  11
ENDBRANCH   3   5
BRANCH   2  14
HETATM   14  C13 UNK     1      29.005  -8.067  32.084  1.00  0.00    -0.035 A 
HETATM   15  C16 UNK     1      29.460  -8.762  33.204  1.00  0.00     0.014 A 
HETATM   16  C14 UNK     1      29.859  -8.063  34.343  1.00  0.00     0.037 A 
HETATM   17  C11 UNK     1      29.800  -6.675  34.354  1.00  0.00     0.069 A 
HETATM   18  C15 UNK     1      29.348  -5.975  33.242  1.00  0.00     0.037 A 
HETATM   19  C17 UNK     1      28.949  -6.673  32.103  1.00  0.00     0.014 A 
BRANCH  17  20
HETATM   20  O1  UNK     1      30.193  -5.989  35.475  1.00  0.00    -0.347 OA
BRANCH  20  21
HETATM   21  C4  UNK     1      31.378  -6.434  36.117  1.00  0.00     0.215 C 
BRANCH  21  22
HETATM   22  C2  UNK     1      32.555  -5.717  35.529  1.00  0.00    -0.023 A 
HETATM   23  C1  UNK     1      33.475  -6.363  34.687  1.00  0.00    -0.018 A 
HETATM   24  C3  UNK     1      34.567  -5.630  34.164  1.00  0.00    -0.025 A 
HETATM   25  C6  UNK     1      33.336  -7.719  34.353  1.00  0.00     0.013 A 
HETATM   26  C7  UNK     1      34.707  -4.273  34.498  1.00  0.00     0.012 A 
HETATM   27  C8  UNK     1      35.487  -6.275  33.322  1.00  0.00     0.012 A 
HETATM   28  C9  UNK     1      33.783  -3.648  35.337  1.00  0.00     0.002 A 
HETATM   29  C5  UNK     1      32.710  -4.369  35.852  1.00  0.00     0.010 A 
HETATM   30  C12 UNK     1      35.333  -7.624  33.000  1.00  0.00     0.001 A 
HETATM   31  C10 UNK     1      34.260  -8.345  33.515  1.00  0.00     0.001 A 
ENDBRANCH  21  22
ENDBRANCH  20  21
ENDBRANCH  17  20
ENDBRANCH   2  14
TORSDOF 6
ENDMDL
MODEL 9
REMARK VINA RESULT:      -8.5      3.069      4.620
REMARK  6 active torsions:
REMARK  status: ('A' for Active; 'I' for Inactive)
REMARK    1  A    between atoms: C11_16  and  O1_1 
REMARK    2  A    between atoms: C4_9  and  O1_1 
REMARK    3  A    between atoms: C23_28  and  N1_4 
REMARK    4  A    between atoms: C2_7  and  C4_9 
REMARK    5  A    between atoms: C13_18  and  C18_23 
REMARK    6  A    between atoms: C19_24  and  C20_25 
ROOT
HETATM    1  N2  UNK     1      30.261 -12.430  30.092  1.00  0.00    -0.191 NA
HETATM    2  C18 UNK     1      30.904 -10.418  32.782  1.00  0.00     0.034 C 
HETATM    3  C20 UNK     1      31.307 -10.533  31.515  1.00  0.00     0.055 C 
HETATM    4  C26 UNK     1      30.729 -11.581  30.730  1.00  0.00     0.100 C 
ENDROOT
BRANCH   3   5
HETATM    5  C19 UNK     1      32.315  -9.668  30.869  1.00  0.00    -0.015 A 
HETATM    6  C21 UNK     1      31.892  -8.607  30.088  1.00  0.00     0.015 A 
HETATM    7  C24 UNK     1      32.844  -7.788  29.479  1.00  0.00     0.037 A 
HETATM    8  C23 UNK     1      34.203  -8.046  29.659  1.00  0.00     0.102 A 
HETATM    9  C25 UNK     1      34.610  -9.122  30.448  1.00  0.00     0.037 A 
HETATM   10  C22 UNK     1      33.658  -9.940  31.059  1.00  0.00     0.015 A 
BRANCH   8  11
HETATM   11  N1  UNK     1      35.172  -7.215  29.039  1.00  0.00    -0.116 N 
HETATM   12  O2  UNK     1      35.672  -7.575  27.946  1.00  0.00    -0.532 OA
HETATM   13  O3  UNK     1      35.501  -6.142  29.598  1.00  0.00    -0.532 OA
ENDBRANCH   8  11
ENDBRANCH   3   5
BRANCH   2  14
HETATM   14  C13 UNK     1      31.394  -9.395  33.692  1.00  0.00    -0.035 A 
HETATM   15  C16 UNK     1      30.831  -8.118  33.674  1.00  0.00     0.014 A 
HETATM   16  C14 UNK     1      31.301  -7.137  34.548  1.00  0.00     0.037 A 
HETATM   17  C11 UNK     1      32.328  -7.440  35.433  1.00  0.00     0.069 A 
HETATM   18  C15 UNK     1      32.893  -8.709  35.457  1.00  0.00     0.037 A 
HETATM   19  C17 UNK     1      32.424  -9.690  34.584  1.00  0.00     0.014 A 
BRANCH  17  20
HETATM   20  O1  UNK     1      32.788  -6.475  36.292  1.00  0.00    -0.347 OA
BRANCH  20  21
HETATM   21  C4  UNK     1      32.677  -6.747  37.681  1.00  0.00     0.215 C 
BRANCH  21  22
HETATM   22  C2  UNK     1      31.354  -6.247  38.176  1.00  0.00    -0.023 A 
HETATM   23  C1  UNK     1      30.274  -7.112  38.415  1.00  0.00    -0.018 A 
HETATM   24  C3  UNK     1      29.050  -6.578  38.883  1.00  0.00    -0.025 A 
HETATM   25  C6  UNK     1      30.382  -8.496  38.201  1.00  0.00     0.013 A 
HETATM   26  C7  UNK     1      28.942  -5.194  39.097  1.00  0.00     0.012 A 
HETATM   27  C8  UNK     1      27.970  -7.443  39.122  1.00  0.00     0.012 A 
HETATM   28  C9  UNK     1      30.025  -4.349  38.853  1.00  0.00     0.002 A 
HETATM   29  C5  UNK     1      31.229  -4.875  38.393  1.00  0.00     0.010 A 
HETATM   30  C12 UNK     1      28.095  -8.815  38.904  1.00  0.00     0.001 A 
HETATM   31  C10 UNK     1      29.298  -9.341  38.444  1.00  0.00     0.001 A 
ENDBRANCH  21  22
ENDBRANCH  20  21
ENDBRANCH  17  20
ENDBRANCH   2  14
TORSDOF 6
ENDMDL
MODEL 10
REMARK VINA RESULT:      -8.5      2.621      3.591
REMARK  6 active torsions:
REMARK  status: ('A' for Active; 'I' for Inactive)
REMARK    1  A    between atoms: C11_16  and  O1_1 
REMARK    2  A    between atoms: C4_9  and  O1_1 
REMARK    3  A    between atoms: C23_28  and  N1_4 
REMARK    4  A    between atoms: C2_7  and  C4_9 
REMARK    5  A    between atoms: C13_18  and  C18_23 
REMARK    6  A    between atoms: C19_24  and  C20_25 
ROOT
HETATM    1  N2  UNK     1      28.371  -9.931  28.475  1.00  0.00    -0.191 NA
HETATM    2  C18 UNK     1      29.494  -9.323  31.648  1.00  0.00     0.034 C 
HETATM    3  C20 UNK     1      29.937  -9.177  30.398  1.00  0.00     0.055 C 
HETATM    4  C26 UNK     1      29.072  -9.594  29.337  1.00  0.00     0.100 C 
ENDROOT
BRANCH   3   5
HETATM    5  C19 UNK     1      31.261  -8.633  30.031  1.00  0.00    -0.015 A 
HETATM    6  C21 UNK     1      32.362  -9.470  30.045  1.00  0.00     0.015 A 
HETATM    7  C24 UNK     1      33.611  -8.957  29.697  1.00  0.00     0.037 A 
HETATM    8  C23 UNK     1      33.739  -7.614  29.342  1.00  0.00     0.102 A 
HETATM    9  C25 UNK     1      32.618  -6.784  29.336  1.00  0.00     0.037 A 
HETATM   10  C22 UNK     1      31.368  -7.298  29.682  1.00  0.00     0.015 A 
BRANCH   8  11
HETATM   11  N1  UNK     1      35.011  -7.090  28.989  1.00  0.00    -0.116 N 
HETATM   12  O2  UNK     1      35.474  -6.124  29.642  1.00  0.00    -0.532 OA
HETATM   13  O3  UNK     1      35.638  -7.609  28.035  1.00  0.00    -0.532 OA
ENDBRANCH   8  11
ENDBRANCH   3   5
BRANCH   2  14
HETATM   14  C13 UNK     1      30.256  -8.932  32.823  1.00  0.00    -0.035 A 
HETATM   15  C16 UNK     1      30.188  -7.622  33.295  1.00  0.00     0.014 A 
HETATM   16  C14 UNK     1      30.920  -7.247  34.422  1.00  0.00     0.037 A 
HETATM   17  C11 UNK     1      31.713  -8.187  35.070  1.00  0.00     0.069 A 
HETATM   18  C15 UNK     1      31.786  -9.494  34.606  1.00  0.00     0.037 A 
HETATM   19  C17 UNK     1      31.055  -9.869  33.479  1.00  0.00     0.014 A 
BRANCH  17  20
HETATM   20  O1  UNK     1      32.431  -7.818  36.178  1.00  0.00    -0.347 OA
BRANCH  20  21
HETATM   21  C4  UNK     1      32.241  -8.593  37.353  1.00  0.00     0.215 C 
BRANCH  21  22
HETATM   22  C2  UNK     1      30.861  -8.352  37.883  1.00  0.00    -0.023 A 
HETATM   23  C1  UNK     1      30.422  -7.074  38.264  1.00  0.00    -0.018 A 
HETATM   24  C3  UNK     1      29.106  -6.912  38.757  1.00  0.00    -0.025 A 
HETATM   25  C6  UNK     1      31.261  -5.952  38.165  1.00  0.00     0.013 A 
HETATM   26  C7  UNK     1      28.267  -8.034  38.857  1.00  0.00     0.012 A 
HETATM   27  C8  UNK     1      28.667  -5.633  39.138  1.00  0.00     0.012 A 
HETATM   28  C9  UNK     1      28.720  -9.297  38.474  1.00  0.00     0.002 A 
HETATM   29  C5  UNK     1      30.014  -9.456  37.989  1.00  0.00     0.010 A 
HETATM   30  C12 UNK     1      29.514  -4.530  39.033  1.00  0.00     0.001 A 
HETATM   31  C10 UNK     1      30.809  -4.688  38.548  1.00  0.00     0.001 A 
ENDBRANCH  21  22
ENDBRANCH  20  21
ENDBRANCH  17  20
ENDBRANCH   2  14
TORSDOF 6
ENDMDL
