MODEL 1
REMARK VINA RESULT:     -10.6      0.000      0.000
REMARK  5 active torsions:
REMARK  status: ('A' for Active; 'I' for Inactive)
REMARK    1  A    between atoms: C5_12  and  N1_5 
REMARK    2  A    between atoms: C6_13  and  N2_6 
REMARK    3  A    between atoms: C17_24  and  N3_7 
REMARK       I    between atoms: C9_16  and  N3_7 
REMARK    4  A    between atoms: C5_12  and  C7_14 
REMARK    5  A    between atoms: C6_13  and  C9_16 
ROOT
HETATM    1  N1  UNK     1      19.295  -3.190  36.429  1.00  0.00     0.096 N 
HETATM    2  N2  UNK     1      18.320  -0.547  35.780  1.00  0.00     0.100 N 
HETATM    3  C1  UNK     1      18.583  -2.376  37.421  1.00  0.00     0.303 C 
HETATM    4  C2  UNK     1      20.002  -2.331  35.472  1.00  0.00     0.303 C 
HETATM    5  C3  UNK     1      17.613  -1.407  36.737  1.00  0.00     0.303 C 
HETATM    6  C4  UNK     1      19.030  -1.362  34.787  1.00  0.00     0.303 C 
ENDROOT
BRANCH   1   7
HETATM    7  C5  UNK     1      20.223  -4.112  37.082  1.00  0.00     0.312 C 
BRANCH   7   8
HETATM    8  C7  UNK     1      20.181  -5.473  36.479  1.00  0.00    -0.011 A 
HETATM    9  C10 UNK     1      20.262  -5.646  35.152  1.00  0.00     0.092 A 
HETATM   10  C13 UNK     1      20.225  -6.971  34.511  1.00  0.00     0.288 A 
HETATM   11  O1  UNK     1      20.100  -8.066  35.351  1.00  0.00    -0.275 OA
HETATM   12  O3  UNK     1      20.303  -7.091  33.293  1.00  0.00    -0.260 OA
HETATM   13  C11 UNK     1      20.013  -7.916  36.751  1.00  0.00     0.090 A 
HETATM   14  C8  UNK     1      20.050  -6.653  37.344  1.00  0.00     0.006 A 
HETATM   15  C14 UNK     1      19.890  -9.088  37.498  1.00  0.00     0.045 A 
HETATM   16  C12 UNK     1      19.957  -6.589  38.740  1.00  0.00     0.015 A 
HETATM   17  C16 UNK     1      19.833  -7.755  39.504  1.00  0.00     0.007 A 
HETATM   18  C15 UNK     1      19.799  -9.003  38.883  1.00  0.00    -0.059 A 
HETATM   19  C18 UNK     1      19.667 -10.242  39.702  1.00  0.00     0.048 C 
ENDBRANCH   7   8
ENDBRANCH   1   7
BRANCH   2  20
HETATM   20  C6  UNK     1      17.393   0.376  35.127  1.00  0.00     0.375 C 
BRANCH  20  21
HETATM   21  C9  UNK     1      18.169   1.548  34.551  1.00  0.00     0.250 C 
HETATM   22  O2  UNK     1      19.100   2.082  35.146  1.00  0.00    -0.271 OA
HETATM   23  N3  UNK     1      17.667   1.888  33.297  1.00  0.00    -0.326 N 
HETATM   24  H15 UNK     1      16.891   1.339  32.934  1.00  0.00     0.169 HD
BRANCH  23  25
HETATM   25  C17 UNK     1      18.114   2.920  32.439  1.00  0.00     0.037 A 
HETATM   26  C19 UNK     1      18.236   4.224  32.919  1.00  0.00     0.072 A 
HETATM   27  C21 UNK     1      18.676   5.241  32.073  1.00  0.00     0.124 A 
HETATM   28  F1  UNK     1      18.789   6.490  32.543  1.00  0.00    -0.205 F 
HETATM   29  C23 UNK     1      18.997   4.954  30.746  1.00  0.00    -0.023 A 
HETATM   30  C22 UNK     1      18.876   3.651  30.265  1.00  0.00     0.012 A 
HETATM   31  C24 UNK     1      19.468   6.040  29.837  1.00  0.00     0.051 C 
HETATM   32  C20 UNK     1      18.435   2.634  31.111  1.00  0.00     0.030 A 
ENDBRANCH  23  25
ENDBRANCH  20  21
ENDBRANCH   2  20
TORSDOF 5
ENDMDL
MODEL 2
REMARK VINA RESULT:     -10.1      1.235      1.438
REMARK  5 active torsions:
REMARK  status: ('A' for Active; 'I' for Inactive)
REMARK    1  A    between atoms: C5_12  and  N1_5 
REMARK    2  A    between atoms: C6_13  and  N2_6 
REMARK    3  A    between atoms: C17_24  and  N3_7 
REMARK       I    between atoms: C9_16  and  N3_7 
REMARK    4  A    between atoms: C5_12  and  C7_14 
REMARK    5  A    between atoms: C6_13  and  C9_16 
ROOT
HETATM    1  N1  UNK     1      19.515  -3.032  36.286  1.00  0.00     0.096 N 
HETATM    2  N2  UNK     1      18.428  -0.421  35.687  1.00  0.00     0.100 N 
HETATM    3  C1  UNK     1      18.971  -2.172  37.344  1.00  0.00     0.303 C 
HETATM    4  C2  UNK     1      20.048  -2.218  35.187  1.00  0.00     0.303 C 
HETATM    5  C3  UNK     1      17.893  -1.236  36.786  1.00  0.00     0.303 C 
HETATM    6  C4  UNK     1      18.970  -1.281  34.629  1.00  0.00     0.303 C 
ENDROOT
BRANCH   1   7
HETATM    7  C5  UNK     1      20.545  -3.923  36.818  1.00  0.00     0.312 C 
BRANCH   7   8
HETATM    8  C7  UNK     1      20.052  -5.318  36.979  1.00  0.00    -0.011 A 
HETATM    9  C10 UNK     1      18.998  -5.766  36.281  1.00  0.00     0.092 A 
HETATM   10  C13 UNK     1      18.476  -7.137  36.406  1.00  0.00     0.288 A 
HETATM   11  O1  UNK     1      19.130  -7.974  37.296  1.00  0.00    -0.275 OA
HETATM   12  O3  UNK     1      17.510  -7.512  35.751  1.00  0.00    -0.260 OA
HETATM   13  C11 UNK     1      20.241  -7.532  38.044  1.00  0.00     0.090 A 
HETATM   14  C8  UNK     1      20.725  -6.230  37.914  1.00  0.00     0.006 A 
HETATM   15  C14 UNK     1      20.821  -8.461  38.910  1.00  0.00     0.045 A 
HETATM   16  C12 UNK     1      21.832  -5.868  38.693  1.00  0.00     0.015 A 
HETATM   17  C16 UNK     1      22.425  -6.788  39.565  1.00  0.00     0.007 A 
HETATM   18  C15 UNK     1      21.919  -8.082  39.674  1.00  0.00    -0.059 A 
HETATM   19  C18 UNK     1      22.555  -9.058  40.605  1.00  0.00     0.048 C 
ENDBRANCH   7   8
ENDBRANCH   1   7
BRANCH   2  20
HETATM   20  C6  UNK     1      17.399   0.471  35.155  1.00  0.00     0.375 C 
BRANCH  20  21
HETATM   21  C9  UNK     1      18.055   1.720  34.592  1.00  0.00     0.250 C 
HETATM   22  O2  UNK     1      18.778   2.448  35.264  1.00  0.00    -0.271 OA
HETATM   23  N3  UNK     1      17.713   1.880  33.251  1.00  0.00    -0.326 N 
HETATM   24  H15 UNK     1      17.106   1.180  32.831  1.00  0.00     0.169 HD
BRANCH  23  25
HETATM   25  C17 UNK     1      18.118   2.914  32.374  1.00  0.00     0.037 A 
HETATM   26  C19 UNK     1      18.175   4.232  32.829  1.00  0.00     0.072 A 
HETATM   27  C21 UNK     1      18.574   5.251  31.965  1.00  0.00     0.124 A 
HETATM   28  F1  UNK     1      18.625   6.514  32.410  1.00  0.00    -0.205 F 
HETATM   29  C23 UNK     1      18.917   4.952  30.646  1.00  0.00    -0.023 A 
HETATM   30  C22 UNK     1      18.861   3.636  30.191  1.00  0.00     0.012 A 
HETATM   31  C24 UNK     1      19.344   6.041  29.718  1.00  0.00     0.051 C 
HETATM   32  C20 UNK     1      18.462   2.616  31.055  1.00  0.00     0.030 A 
ENDBRANCH  23  25
ENDBRANCH  20  21
ENDBRANCH   2  20
TORSDOF 5
ENDMDL
MODEL 3
REMARK VINA RESULT:      -9.7      6.043     12.872
REMARK  5 active torsions:
REMARK  status: ('A' for Active; 'I' for Inactive)
REMARK    1  A    between atoms: C5_12  and  N1_5 
REMARK    2  A    between atoms: C6_13  and  N2_6 
REMARK    3  A    between atoms: C17_24  and  N3_7 
REMARK       I    between atoms: C9_16  and  N3_7 
REMARK    4  A    between atoms: C5_12  and  C7_14 
REMARK    5  A    between atoms: C6_13  and  C9_16 
ROOT
HETATM    1  N1  UNK     1      18.192   6.022  32.146  1.00  0.00     0.096 N 
HETATM    2  N2  UNK     1      18.914   4.037  30.172  1.00  0.00     0.100 N 
HETATM    3  C1  UNK     1      19.188   6.308  31.106  1.00  0.00     0.303 C 
HETATM    4  C2  UNK     1      18.183   4.589  32.467  1.00  0.00     0.303 C 
HETATM    5  C3  UNK     1      18.922   5.469  29.851  1.00  0.00     0.303 C 
HETATM    6  C4  UNK     1      17.917   3.751  31.211  1.00  0.00     0.303 C 
ENDROOT
BRANCH   1   7
HETATM    7  C5  UNK     1      18.448   6.820  33.344  1.00  0.00     0.312 C 
BRANCH   7   8
HETATM    8  C7  UNK     1      17.331   7.757  33.644  1.00  0.00    -0.011 A 
HETATM    9  C10 UNK     1      16.061   7.329  33.695  1.00  0.00     0.092 A 
HETATM   10  C13 UNK     1      14.925   8.219  33.988  1.00  0.00     0.288 A 
HETATM   11  O1  UNK     1      15.221   9.553  34.215  1.00  0.00    -0.275 OA
HETATM   12  O3  UNK     1      13.777   7.791  34.028  1.00  0.00    -0.260 OA
HETATM   13  C11 UNK     1      16.546  10.033  34.168  1.00  0.00     0.090 A 
HETATM   14  C8  UNK     1      17.613   9.178  33.890  1.00  0.00     0.006 A 
HETATM   15  C14 UNK     1      16.726  11.396  34.413  1.00  0.00     0.045 A 
HETATM   16  C12 UNK     1      18.899   9.733  33.861  1.00  0.00     0.015 A 
HETATM   17  C16 UNK     1      19.096  11.097  34.104  1.00  0.00     0.007 A 
HETATM   18  C15 UNK     1      18.011  11.927  34.379  1.00  0.00    -0.059 A 
HETATM   19  C18 UNK     1      18.227  13.379  34.638  1.00  0.00     0.048 C 
ENDBRANCH   7   8
ENDBRANCH   1   7
BRANCH   2  20
HETATM   20  C6  UNK     1      18.659   3.238  28.975  1.00  0.00     0.375 C 
BRANCH  20  21
HETATM   21  C9  UNK     1      18.552   1.772  29.358  1.00  0.00     0.250 C 
HETATM   22  O2  UNK     1      17.511   1.133  29.244  1.00  0.00    -0.271 OA
HETATM   23  N3  UNK     1      19.777   1.306  29.830  1.00  0.00    -0.326 N 
HETATM   24  H15 UNK     1      20.554   1.963  29.856  1.00  0.00     0.169 HD
BRANCH  23  25
HETATM   25  C17 UNK     1      20.089   0.004  30.285  1.00  0.00     0.037 A 
HETATM   26  C19 UNK     1      19.824  -0.356  31.606  1.00  0.00     0.072 A 
HETATM   27  C21 UNK     1      20.132  -1.641  32.054  1.00  0.00     0.124 A 
HETATM   28  F1  UNK     1      19.875  -1.977  33.326  1.00  0.00    -0.205 F 
HETATM   29  C23 UNK     1      20.703  -2.566  31.180  1.00  0.00    -0.023 A 
HETATM   30  C22 UNK     1      20.967  -2.207  29.859  1.00  0.00     0.012 A 
HETATM   31  C24 UNK     1      21.034  -3.941  31.656  1.00  0.00     0.051 C 
HETATM   32  C20 UNK     1      20.660  -0.923  29.411  1.00  0.00     0.030 A 
ENDBRANCH  23  25
ENDBRANCH  20  21
ENDBRANCH   2  20
TORSDOF 5
ENDMDL
MODEL 4
REMARK VINA RESULT:      -9.7      4.332     12.627
REMARK  5 active torsions:
REMARK  status: ('A' for Active; 'I' for Inactive)
REMARK    1  A    between atoms: C5_12  and  N1_5 
REMARK    2  A    between atoms: C6_13  and  N2_6 
REMARK    3  A    between atoms: C17_24  and  N3_7 
REMARK       I    between atoms: C9_16  and  N3_7 
REMARK    4  A    between atoms: C5_12  and  C7_14 
REMARK    5  A    between atoms: C6_13  and  C9_16 
ROOT
HETATM    1  N1  UNK     1      18.049   5.399  31.545  1.00  0.00     0.096 N 
HETATM    2  N2  UNK     1      19.000   2.732  30.962  1.00  0.00     0.100 N 
HETATM    3  C1  UNK     1      18.952   5.141  30.416  1.00  0.00     0.303 C 
HETATM    4  C2  UNK     1      18.273   4.419  32.615  1.00  0.00     0.303 C 
HETATM    5  C3  UNK     1      18.776   3.712  29.892  1.00  0.00     0.303 C 
HETATM    6  C4  UNK     1      18.096   2.989  32.089  1.00  0.00     0.303 C 
ENDROOT
BRANCH   1   7
HETATM    7  C5  UNK     1      18.220   6.761  32.047  1.00  0.00     0.312 C 
BRANCH   7   8
HETATM    8  C7  UNK     1      16.918   7.412  32.359  1.00  0.00    -0.011 A 
HETATM    9  C10 UNK     1      15.756   6.844  32.006  1.00  0.00     0.092 A 
HETATM   10  C13 UNK     1      14.445   7.449  32.294  1.00  0.00     0.288 A 
HETATM   11  O1  UNK     1      14.453   8.663  32.963  1.00  0.00    -0.275 OA
HETATM   12  O3  UNK     1      13.403   6.899  31.956  1.00  0.00    -0.260 OA
HETATM   13  C11 UNK     1      15.658   9.285  33.347  1.00  0.00     0.090 A 
HETATM   14  C8  UNK     1      16.893   8.699  33.068  1.00  0.00     0.006 A 
HETATM   15  C14 UNK     1      15.546  10.506  34.016  1.00  0.00     0.045 A 
HETATM   16  C12 UNK     1      18.045   9.381  33.483  1.00  0.00     0.015 A 
HETATM   17  C16 UNK     1      17.949  10.606  34.154  1.00  0.00     0.007 A 
HETATM   18  C15 UNK     1      16.701  11.167  34.419  1.00  0.00    -0.059 A 
HETATM   19  C18 UNK     1      16.605  12.472  35.135  1.00  0.00     0.048 C 
ENDBRANCH   7   8
ENDBRANCH   1   7
BRANCH   2  20
HETATM   20  C6  UNK     1      18.831   1.369  30.461  1.00  0.00     0.375 C 
BRANCH  20  21
HETATM   21  C9  UNK     1      19.604   0.405  31.346  1.00  0.00     0.250 C 
HETATM   22  O2  UNK     1      20.771   0.097  31.126  1.00  0.00    -0.271 OA
HETATM   23  N3  UNK     1      18.800  -0.037  32.394  1.00  0.00    -0.326 N 
HETATM   24  H15 UNK     1      17.849   0.321  32.444  1.00  0.00     0.169 HD
BRANCH  23  25
HETATM   25  C17 UNK     1      19.148  -0.937  33.428  1.00  0.00     0.037 A 
HETATM   26  C19 UNK     1      18.674  -0.728  34.724  1.00  0.00     0.072 A 
HETATM   27  C21 UNK     1      19.017  -1.616  35.743  1.00  0.00     0.124 A 
HETATM   28  F1  UNK     1      18.559  -1.406  36.985  1.00  0.00    -0.205 F 
HETATM   29  C23 UNK     1      19.832  -2.713  35.467  1.00  0.00    -0.023 A 
HETATM   30  C22 UNK     1      20.306  -2.923  34.173  1.00  0.00     0.012 A 
HETATM   31  C24 UNK     1      20.202  -3.665  36.556  1.00  0.00     0.051 C 
HETATM   32  C20 UNK     1      19.963  -2.035  33.153  1.00  0.00     0.030 A 
ENDBRANCH  23  25
ENDBRANCH  20  21
ENDBRANCH   2  20
TORSDOF 5
ENDMDL
MODEL 5
REMARK VINA RESULT:      -9.4      6.427      9.624
REMARK  5 active torsions:
REMARK  status: ('A' for Active; 'I' for Inactive)
REMARK    1  A    between atoms: C5_12  and  N1_5 
REMARK    2  A    between atoms: C6_13  and  N2_6 
REMARK    3  A    between atoms: C17_24  and  N3_7 
REMARK       I    between atoms: C9_16  and  N3_7 
REMARK    4  A    between atoms: C5_12  and  C7_14 
REMARK    5  A    between atoms: C6_13  and  C9_16 
ROOT
HETATM    1  N1  UNK     1      18.439   4.968  32.570  1.00  0.00     0.096 N 
HETATM    2  N2  UNK     1      18.613   7.766  33.279  1.00  0.00     0.100 N 
HETATM    3  C1  UNK     1      19.529   5.814  32.070  1.00  0.00     0.303 C 
HETATM    4  C2  UNK     1      17.233   5.772  32.805  1.00  0.00     0.303 C 
HETATM    5  C3  UNK     1      19.819   6.962  33.044  1.00  0.00     0.303 C 
HETATM    6  C4  UNK     1      17.524   6.919  33.780  1.00  0.00     0.303 C 
ENDROOT
BRANCH   1   7
HETATM    7  C5  UNK     1      18.160   3.876  31.639  1.00  0.00     0.312 C 
BRANCH   7   8
HETATM    8  C7  UNK     1      18.375   2.540  32.260  1.00  0.00    -0.011 A 
HETATM    9  C10 UNK     1      18.069   2.316  33.547  1.00  0.00     0.092 A 
HETATM   10  C13 UNK     1      18.263   1.013  34.204  1.00  0.00     0.288 A 
HETATM   11  O1  UNK     1      18.789  -0.005  33.425  1.00  0.00    -0.275 OA
HETATM   12  O3  UNK     1      17.970   0.845  35.383  1.00  0.00    -0.260 OA
HETATM   13  C11 UNK     1      19.120   0.199  32.069  1.00  0.00     0.090 A 
HETATM   14  C8  UNK     1      18.930   1.440  31.460  1.00  0.00     0.006 A 
HETATM   15  C14 UNK     1      19.642  -0.898  31.382  1.00  0.00     0.045 A 
HETATM   16  C12 UNK     1      19.285   1.562  30.110  1.00  0.00     0.015 A 
HETATM   17  C16 UNK     1      19.810   0.471  29.407  1.00  0.00     0.007 A 
HETATM   18  C15 UNK     1      19.989  -0.756  30.042  1.00  0.00    -0.059 A 
HETATM   19  C18 UNK     1      20.548  -1.914  29.287  1.00  0.00     0.048 C 
ENDBRANCH   7   8
ENDBRANCH   1   7
BRANCH   2  20
HETATM   20  C6  UNK     1      18.891   8.859  34.208  1.00  0.00     0.375 C 
BRANCH  20  21
HETATM   21  C9  UNK     1      17.915   9.996  33.957  1.00  0.00     0.250 C 
HETATM   22  O2  UNK     1      18.240  11.033  33.387  1.00  0.00    -0.271 OA
HETATM   23  N3  UNK     1      16.656   9.670  34.455  1.00  0.00    -0.326 N 
HETATM   24  H15 UNK     1      16.544   8.760  34.897  1.00  0.00     0.169 HD
BRANCH  23  25
HETATM   25  C17 UNK     1      15.482  10.458  34.420  1.00  0.00     0.037 A 
HETATM   26  C19 UNK     1      14.485  10.183  33.483  1.00  0.00     0.072 A 
HETATM   27  C21 UNK     1      13.328  10.960  33.448  1.00  0.00     0.124 A 
HETATM   28  F1  UNK     1      12.376  10.689  32.544  1.00  0.00    -0.205 F 
HETATM   29  C23 UNK     1      13.167  12.012  34.349  1.00  0.00    -0.023 A 
HETATM   30  C22 UNK     1      14.162  12.288  35.285  1.00  0.00     0.012 A 
HETATM   31  C24 UNK     1      11.930  12.847  34.314  1.00  0.00     0.051 C 
HETATM   32  C20 UNK     1      15.320  11.510  35.321  1.00  0.00     0.030 A 
ENDBRANCH  23  25
ENDBRANCH  20  21
ENDBRANCH   2  20
TORSDOF 5
ENDMDL
MODEL 6
REMARK VINA RESULT:      -9.3      1.939      2.609
REMARK  5 active torsions:
REMARK  status: ('A' for Active; 'I' for Inactive)
REMARK    1  A    between atoms: C5_12  and  N1_5 
REMARK    2  A    between atoms: C6_13  and  N2_6 
REMARK    3  A    between atoms: C17_24  and  N3_7 
REMARK       I    between atoms: C9_16  and  N3_7 
REMARK    4  A    between atoms: C5_12  and  C7_14 
REMARK    5  A    between atoms: C6_13  and  C9_16 
ROOT
HETATM    1  N1  UNK     1      19.508  -3.442  36.553  1.00  0.00     0.096 N 
HETATM    2  N2  UNK     1      18.338  -0.810  36.306  1.00  0.00     0.100 N 
HETATM    3  C1  UNK     1      19.997  -2.482  35.556  1.00  0.00     0.303 C 
HETATM    4  C2  UNK     1      18.086  -3.210  36.834  1.00  0.00     0.303 C 
HETATM    5  C3  UNK     1      19.761  -1.042  36.025  1.00  0.00     0.303 C 
HETATM    6  C4  UNK     1      17.851  -1.769  37.303  1.00  0.00     0.303 C 
ENDROOT
BRANCH   1   7
HETATM    7  C5  UNK     1      19.730  -4.815  36.104  1.00  0.00     0.312 C 
BRANCH   7   8
HETATM    8  C7  UNK     1      20.572  -5.589  37.058  1.00  0.00    -0.011 A 
HETATM    9  C10 UNK     1      21.660  -5.045  37.621  1.00  0.00     0.092 A 
HETATM   10  C13 UNK     1      22.522  -5.770  38.569  1.00  0.00     0.288 A 
HETATM   11  O1  UNK     1      22.160  -7.074  38.868  1.00  0.00    -0.275 OA
HETATM   12  O3  UNK     1      23.510  -5.239  39.065  1.00  0.00    -0.260 OA
HETATM   13  C11 UNK     1      21.021  -7.674  38.292  1.00  0.00     0.090 A 
HETATM   14  C8  UNK     1      20.213  -6.973  37.396  1.00  0.00     0.006 A 
HETATM   15  C14 UNK     1      20.752  -8.991  38.667  1.00  0.00     0.045 A 
HETATM   16  C12 UNK     1      19.100  -7.640  36.867  1.00  0.00     0.015 A 
HETATM   17  C16 UNK     1      18.817  -8.961  37.232  1.00  0.00     0.007 A 
HETATM   18  C15 UNK     1      19.642  -9.635  38.130  1.00  0.00    -0.059 A 
HETATM   19  C18 UNK     1      19.335 -11.043  38.516  1.00  0.00     0.048 C 
ENDBRANCH   7   8
ENDBRANCH   1   7
BRANCH   2  20
HETATM   20  C6  UNK     1      18.115   0.564  36.753  1.00  0.00     0.375 C 
BRANCH  20  21
HETATM   21  C9  UNK     1      18.759   1.527  35.770  1.00  0.00     0.250 C 
HETATM   22  O2  UNK     1      19.847   2.052  35.977  1.00  0.00    -0.271 OA
HETATM   23  N3  UNK     1      17.942   1.694  34.654  1.00  0.00    -0.326 N 
HETATM   24  H15 UNK     1      17.066   1.177  34.628  1.00  0.00     0.169 HD
BRANCH  23  25
HETATM   25  C17 UNK     1      18.184   2.505  33.521  1.00  0.00     0.037 A 
HETATM   26  C19 UNK     1      18.389   1.917  32.273  1.00  0.00     0.072 A 
HETATM   27  C21 UNK     1      18.628   2.716  31.155  1.00  0.00     0.124 A 
HETATM   28  F1  UNK     1      18.824   2.142  29.961  1.00  0.00    -0.205 F 
HETATM   29  C23 UNK     1      18.660   4.105  31.286  1.00  0.00    -0.023 A 
HETATM   30  C22 UNK     1      18.456   4.693  32.533  1.00  0.00     0.012 A 
HETATM   31  C24 UNK     1      18.916   4.964  30.093  1.00  0.00     0.051 C 
HETATM   32  C20 UNK     1      18.217   3.894  33.650  1.00  0.00     0.030 A 
ENDBRANCH  23  25
ENDBRANCH  20  21
ENDBRANCH   2  20
TORSDOF 5
ENDMDL
MODEL 7
REMARK VINA RESULT:      -9.3      4.805     10.938
REMARK  5 active torsions:
REMARK  status: ('A' for Active; 'I' for Inactive)
REMARK    1  A    between atoms: C5_12  and  N1_5 
REMARK    2  A    between atoms: C6_13  and  N2_6 
REMARK    3  A    between atoms: C17_24  and  N3_7 
REMARK       I    between atoms: C9_16  and  N3_7 
REMARK    4  A    between atoms: C5_12  and  C7_14 
REMARK    5  A    between atoms: C6_13  and  C9_16 
ROOT
HETATM    1  N1  UNK     1      19.928  -3.673  36.845  1.00  0.00     0.096 N 
HETATM    2  N2  UNK     1      19.683  -6.476  37.508  1.00  0.00     0.100 N 
HETATM    3  C1  UNK     1      19.388  -4.639  35.881  1.00  0.00     0.303 C 
HETATM    4  C2  UNK     1      20.879  -4.327  37.751  1.00  0.00     0.303 C 
HETATM    5  C3  UNK     1      18.731  -5.821  36.603  1.00  0.00     0.303 C 
HETATM    6  C4  UNK     1      20.220  -5.509  38.473  1.00  0.00     0.303 C 
ENDROOT
BRANCH   1   7
HETATM    7  C5  UNK     1      20.558  -2.548  36.156  1.00  0.00     0.312 C 
BRANCH   7   8
HETATM    8  C7  UNK     1      19.604  -1.826  35.270  1.00  0.00    -0.011 A 
HETATM    9  C10 UNK     1      18.559  -1.154  35.777  1.00  0.00     0.092 A 
HETATM   10  C13 UNK     1      17.590  -0.426  34.941  1.00  0.00     0.288 A 
HETATM   11  O1  UNK     1      17.800  -0.459  33.571  1.00  0.00    -0.275 OA
HETATM   12  O3  UNK     1      16.647   0.178  35.440  1.00  0.00    -0.260 OA
HETATM   13  C11 UNK     1      18.889  -1.156  33.009  1.00  0.00     0.090 A 
HETATM   14  C8  UNK     1      19.800  -1.842  33.814  1.00  0.00     0.006 A 
HETATM   15  C14 UNK     1      19.002  -1.121  31.618  1.00  0.00     0.045 A 
HETATM   16  C12 UNK     1      20.854  -2.510  33.178  1.00  0.00     0.015 A 
HETATM   17  C16 UNK     1      20.981  -2.485  31.785  1.00  0.00     0.007 A 
HETATM   18  C15 UNK     1      20.056  -1.792  31.006  1.00  0.00    -0.059 A 
HETATM   19  C18 UNK     1      20.197  -1.768  29.522  1.00  0.00     0.048 C 
ENDBRANCH   7   8
ENDBRANCH   1   7
BRANCH   2  20
HETATM   20  C6  UNK     1      19.055  -7.601  38.197  1.00  0.00     0.375 C 
BRANCH  20  21
HETATM   21  C9  UNK     1      19.995  -8.794  38.179  1.00  0.00     0.250 C 
HETATM   22  O2  UNK     1      19.973  -9.667  39.041  1.00  0.00    -0.271 OA
HETATM   23  N3  UNK     1      20.836  -8.728  37.070  1.00  0.00    -0.326 N 
HETATM   24  H15 UNK     1      20.723  -7.939  36.438  1.00  0.00     0.169 HD
BRANCH  23  25
HETATM   25  C17 UNK     1      21.847  -9.645  36.698  1.00  0.00     0.037 A 
HETATM   26  C19 UNK     1      23.189  -9.322  36.899  1.00  0.00     0.072 A 
HETATM   27  C21 UNK     1      24.186 -10.226  36.532  1.00  0.00     0.124 A 
HETATM   28  F1  UNK     1      25.473  -9.907  36.728  1.00  0.00    -0.205 F 
HETATM   29  C23 UNK     1      23.841 -11.452  35.964  1.00  0.00    -0.023 A 
HETATM   30  C22 UNK     1      22.500 -11.775  35.762  1.00  0.00     0.012 A 
HETATM   31  C24 UNK     1      24.905 -12.421  35.568  1.00  0.00     0.051 C 
HETATM   32  C20 UNK     1      21.503 -10.871  36.129  1.00  0.00     0.030 A 
ENDBRANCH  23  25
ENDBRANCH  20  21
ENDBRANCH   2  20
TORSDOF 5
ENDMDL
MODEL 8
REMARK VINA RESULT:      -9.3      4.907      8.319
REMARK  5 active torsions:
REMARK  status: ('A' for Active; 'I' for Inactive)
REMARK    1  A    between atoms: C5_12  and  N1_5 
REMARK    2  A    between atoms: C6_13  and  N2_6 
REMARK    3  A    between atoms: C17_24  and  N3_7 
REMARK       I    between atoms: C9_16  and  N3_7 
REMARK    4  A    between atoms: C5_12  and  C7_14 
REMARK    5  A    between atoms: C6_13  and  C9_16 
ROOT
HETATM    1  N1  UNK     1      18.796   3.611  31.362  1.00  0.00     0.096 N 
HETATM    2  N2  UNK     1      19.164   6.304  32.345  1.00  0.00     0.100 N 
HETATM    3  C1  UNK     1      19.194   4.702  30.464  1.00  0.00     0.303 C 
HETATM    4  C2  UNK     1      17.998   4.130  32.478  1.00  0.00     0.303 C 
HETATM    5  C3  UNK     1      19.964   5.784  31.229  1.00  0.00     0.303 C 
HETATM    6  C4  UNK     1      18.769   5.213  33.243  1.00  0.00     0.303 C 
ENDROOT
BRANCH   1   7
HETATM    7  C5  UNK     1      18.059   2.580  30.632  1.00  0.00     0.312 C 
BRANCH   7   8
HETATM    8  C7  UNK     1      18.819   1.303  30.542  1.00  0.00    -0.011 A 
HETATM    9  C10 UNK     1      19.409   0.927  29.398  1.00  0.00     0.092 A 
HETATM   10  C13 UNK     1      20.171  -0.326  29.261  1.00  0.00     0.288 A 
HETATM   11  O1  UNK     1      20.260  -1.127  30.389  1.00  0.00    -0.275 OA
HETATM   12  O3  UNK     1      20.698  -0.637  28.199  1.00  0.00    -0.260 OA
HETATM   13  C11 UNK     1      19.651  -0.758  31.606  1.00  0.00     0.090 A 
HETATM   14  C8  UNK     1      18.932   0.433  31.720  1.00  0.00     0.006 A 
HETATM   15  C14 UNK     1      19.806  -1.641  32.676  1.00  0.00     0.045 A 
HETATM   16  C12 UNK     1      18.356   0.727  32.963  1.00  0.00     0.015 A 
HETATM   17  C16 UNK     1      18.503  -0.148  34.045  1.00  0.00     0.007 A 
HETATM   18  C15 UNK     1      19.226  -1.331  33.901  1.00  0.00    -0.059 A 
HETATM   19  C18 UNK     1      19.380  -2.259  35.058  1.00  0.00     0.048 C 
ENDBRANCH   7   8
ENDBRANCH   1   7
BRANCH   2  20
HETATM   20  C6  UNK     1      19.900   7.336  33.074  1.00  0.00     0.375 C 
BRANCH  20  21
HETATM   21  C9  UNK     1      18.960   8.045  34.034  1.00  0.00     0.250 C 
HETATM   22  O2  UNK     1      19.141   8.061  35.246  1.00  0.00    -0.271 OA
HETATM   23  N3  UNK     1      17.917   8.645  33.331  1.00  0.00    -0.326 N 
HETATM   24  H15 UNK     1      17.912   8.548  32.318  1.00  0.00     0.169 HD
BRANCH  23  25
HETATM   25  C17 UNK     1      16.840   9.396  33.858  1.00  0.00     0.037 A 
HETATM   26  C19 UNK     1      17.030  10.732  34.213  1.00  0.00     0.072 A 
HETATM   27  C21 UNK     1      15.968  11.472  34.733  1.00  0.00     0.124 A 
HETATM   28  F1  UNK     1      16.160  12.754  35.072  1.00  0.00    -0.205 F 
HETATM   29  C23 UNK     1      14.717  10.877  34.896  1.00  0.00    -0.023 A 
HETATM   30  C22 UNK     1      14.527   9.543  34.541  1.00  0.00     0.012 A 
HETATM   31  C24 UNK     1      13.579  11.667  35.453  1.00  0.00     0.051 C 
HETATM   32  C20 UNK     1      15.589   8.802  34.022  1.00  0.00     0.030 A 
ENDBRANCH  23  25
ENDBRANCH  20  21
ENDBRANCH   2  20
TORSDOF 5
ENDMDL
MODEL 9
REMARK VINA RESULT:      -9.2      6.447      9.878
REMARK  5 active torsions:
REMARK  status: ('A' for Active; 'I' for Inactive)
REMARK    1  A    between atoms: C5_12  and  N1_5 
REMARK    2  A    between atoms: C6_13  and  N2_6 
REMARK    3  A    between atoms: C17_24  and  N3_7 
REMARK       I    between atoms: C9_16  and  N3_7 
REMARK    4  A    between atoms: C5_12  and  C7_14 
REMARK    5  A    between atoms: C6_13  and  C9_16 
ROOT
HETATM    1  N1  UNK     1      18.485   4.926  32.595  1.00  0.00     0.096 N 
HETATM    2  N2  UNK     1      18.713   7.729  33.261  1.00  0.00     0.100 N 
HETATM    3  C1  UNK     1      19.541   5.763  32.014  1.00  0.00     0.303 C 
HETATM    4  C2  UNK     1      17.299   5.735  32.903  1.00  0.00     0.303 C 
HETATM    5  C3  UNK     1      19.899   6.920  32.954  1.00  0.00     0.303 C 
HETATM    6  C4  UNK     1      17.659   6.892  33.844  1.00  0.00     0.303 C 
ENDROOT
BRANCH   1   7
HETATM    7  C5  UNK     1      18.141   3.825  31.696  1.00  0.00     0.312 C 
BRANCH   7   8
HETATM    8  C7  UNK     1      18.366   2.494  32.326  1.00  0.00    -0.011 A 
HETATM    9  C10 UNK     1      18.067   2.278  33.615  1.00  0.00     0.092 A 
HETATM   10  C13 UNK     1      18.273   0.980  34.280  1.00  0.00     0.288 A 
HETATM   11  O1  UNK     1      18.801  -0.040  33.506  1.00  0.00    -0.275 OA
HETATM   12  O3  UNK     1      17.986   0.819  35.461  1.00  0.00    -0.260 OA
HETATM   13  C11 UNK     1      19.125   0.157  32.147  1.00  0.00     0.090 A 
HETATM   14  C8  UNK     1      18.925   1.393  31.531  1.00  0.00     0.006 A 
HETATM   15  C14 UNK     1      19.651  -0.941  31.465  1.00  0.00     0.045 A 
HETATM   16  C12 UNK     1      19.273   1.507  30.178  1.00  0.00     0.015 A 
HETATM   17  C16 UNK     1      19.801   0.415  29.480  1.00  0.00     0.007 A 
HETATM   18  C15 UNK     1      19.990  -0.807  30.123  1.00  0.00    -0.059 A 
HETATM   19  C18 UNK     1      20.553  -1.966  29.374  1.00  0.00     0.048 C 
ENDBRANCH   7   8
ENDBRANCH   1   7
BRANCH   2  20
HETATM   20  C6  UNK     1      19.056   8.831  34.158  1.00  0.00     0.375 C 
BRANCH  20  21
HETATM   21  C9  UNK     1      18.210  10.045  33.815  1.00  0.00     0.250 C 
HETATM   22  O2  UNK     1      17.102   9.953  33.297  1.00  0.00    -0.271 OA
HETATM   23  N3  UNK     1      18.875  11.215  34.177  1.00  0.00    -0.326 N 
HETATM   24  H15 UNK     1      19.792  11.122  34.608  1.00  0.00     0.169 HD
BRANCH  23  25
HETATM   25  C17 UNK     1      18.425  12.547  34.023  1.00  0.00     0.037 A 
HETATM   26  C19 UNK     1      17.526  13.089  34.942  1.00  0.00     0.072 A 
HETATM   27  C21 UNK     1      17.082  14.403  34.790  1.00  0.00     0.124 A 
HETATM   28  F1  UNK     1      16.217  14.915  35.677  1.00  0.00    -0.205 F 
HETATM   29  C23 UNK     1      17.538  15.174  33.721  1.00  0.00    -0.023 A 
HETATM   30  C22 UNK     1      18.437  14.633  32.804  1.00  0.00     0.012 A 
HETATM   31  C24 UNK     1      17.064  16.580  33.556  1.00  0.00     0.051 C 
HETATM   32  C20 UNK     1      18.881  13.319  32.955  1.00  0.00     0.030 A 
ENDBRANCH  23  25
ENDBRANCH  20  21
ENDBRANCH   2  20
TORSDOF 5
ENDMDL
MODEL 10
REMARK VINA RESULT:      -9.2      2.724      3.222
REMARK  5 active torsions:
REMARK  status: ('A' for Active; 'I' for Inactive)
REMARK    1  A    between atoms: C5_12  and  N1_5 
REMARK    2  A    between atoms: C6_13  and  N2_6 
REMARK    3  A    between atoms: C17_24  and  N3_7 
REMARK       I    between atoms: C9_16  and  N3_7 
REMARK    4  A    between atoms: C5_12  and  C7_14 
REMARK    5  A    between atoms: C6_13  and  C9_16 
ROOT
HETATM    1  N1  UNK     1      19.720  -3.695  36.601  1.00  0.00     0.096 N 
HETATM    2  N2  UNK     1      18.486  -1.081  36.554  1.00  0.00     0.100 N 
HETATM    3  C1  UNK     1      18.401  -3.464  37.202  1.00  0.00     0.303 C 
HETATM    4  C2  UNK     1      20.527  -2.470  36.649  1.00  0.00     0.303 C 
HETATM    5  C3  UNK     1      17.679  -2.307  36.505  1.00  0.00     0.303 C 
HETATM    6  C4  UNK     1      19.804  -1.312  35.951  1.00  0.00     0.303 C 
ENDROOT
BRANCH   1   7
HETATM    7  C5  UNK     1      20.411  -4.797  37.269  1.00  0.00     0.312 C 
BRANCH   7   8
HETATM    8  C7  UNK     1      20.345  -6.060  36.483  1.00  0.00    -0.011 A 
HETATM    9  C10 UNK     1      20.518  -6.058  35.153  1.00  0.00     0.092 A 
HETATM   10  C13 UNK     1      20.463  -7.281  34.335  1.00  0.00     0.288 A 
HETATM   11  O1  UNK     1      20.218  -8.469  35.005  1.00  0.00    -0.275 OA
HETATM   12  O3  UNK     1      20.627  -7.241  33.120  1.00  0.00    -0.260 OA
HETATM   13  C11 UNK     1      20.032  -8.502  36.403  1.00  0.00     0.090 A 
HETATM   14  C8  UNK     1      20.088  -7.335  37.165  1.00  0.00     0.006 A 
HETATM   15  C14 UNK     1      19.793  -9.755  36.971  1.00  0.00     0.045 A 
HETATM   16  C12 UNK     1      19.892  -7.453  38.548  1.00  0.00     0.015 A 
HETATM   17  C16 UNK     1      19.651  -8.701  39.133  1.00  0.00     0.007 A 
HETATM   18  C15 UNK     1      19.601  -9.850  38.345  1.00  0.00    -0.059 A 
HETATM   19  C18 UNK     1      19.344 -11.177  38.975  1.00  0.00     0.048 C 
ENDBRANCH   7   8
ENDBRANCH   1   7
BRANCH   2  20
HETATM   20  C6  UNK     1      17.796   0.022  35.888  1.00  0.00     0.375 C 
BRANCH  20  21
HETATM   21  C9  UNK     1      17.687  -0.274  34.402  1.00  0.00     0.250 C 
HETATM   22  O2  UNK     1      16.648  -0.661  33.879  1.00  0.00    -0.271 OA
HETATM   23  N3  UNK     1      18.908  -0.036  33.773  1.00  0.00    -0.326 N 
HETATM   24  H15 UNK     1      19.680   0.294  34.348  1.00  0.00     0.169 HD
BRANCH  23  25
HETATM   25  C17 UNK     1      19.217  -0.192  32.401  1.00  0.00     0.037 A 
HETATM   26  C19 UNK     1      19.710  -1.409  31.931  1.00  0.00     0.072 A 
HETATM   27  C21 UNK     1      20.015  -1.563  30.579  1.00  0.00     0.124 A 
HETATM   28  F1  UNK     1      20.489  -2.735  30.137  1.00  0.00    -0.205 F 
HETATM   29  C23 UNK     1      19.826  -0.499  29.696  1.00  0.00    -0.023 A 
HETATM   30  C22 UNK     1      19.332   0.718  30.165  1.00  0.00     0.012 A 
HETATM   31  C24 UNK     1      20.152  -0.659  28.249  1.00  0.00     0.051 C 
HETATM   32  C20 UNK     1      19.027   0.871  31.518  1.00  0.00     0.030 A 
ENDBRANCH  23  25
ENDBRANCH  20  21
ENDBRANCH   2  20
TORSDOF 5
ENDMDL
