MODEL 1
REMARK VINA RESULT:      -9.3      0.000      0.000
REMARK  6 active torsions:
REMARK  status: ('A' for Active; 'I' for Inactive)
REMARK    1  A    between atoms: C7_13  and  O2_2 
REMARK    2  A    between atoms: C10_16  and  O3_3 
REMARK    3  A    between atoms: C2_8  and  N1_6 
REMARK       I    between atoms: C8_14  and  N1_6 
REMARK    4  A    between atoms: C1_7  and  C2_8 
REMARK    5  A    between atoms: C1_7  and  C3_9 
REMARK    6  A    between atoms: C6_12  and  C8_14 
ROOT
HETATM    1  O4  UNK     1      17.451   3.468  31.666  1.00  0.00    -0.267 OA
HETATM    2  N1  UNK     1      19.064   4.403  30.268  1.00  0.00    -0.356 N 
HETATM    3  C8  UNK     1      18.355   3.363  30.840  1.00  0.00     0.257 C 
HETATM    4  H5  UNK     1      19.813   4.210  29.610  1.00  0.00     0.162 HD
ENDROOT
BRANCH   2   5
HETATM    5  C2  UNK     1      18.819   5.792  30.585  1.00  0.00     0.127 C 
BRANCH   5   6
HETATM    6  C1  UNK     1      19.497   6.183  31.898  1.00  0.00     0.058 C 
BRANCH   6   7
HETATM    7  C3  UNK     1      18.574   6.982  32.783  1.00  0.00    -0.054 A 
HETATM    8  C4  UNK     1      17.214   6.710  32.768  1.00  0.00     0.046 A 
HETATM    9  C7  UNK     1      16.359   7.449  33.586  1.00  0.00     0.102 A 
HETATM   10  C10 UNK     1      16.874   8.451  34.409  1.00  0.00     0.101 A 
HETATM   11  C11 UNK     1      18.245   8.714  34.412  1.00  0.00     0.040 A 
HETATM   12  C5  UNK     1      19.099   7.975  33.594  1.00  0.00     0.010 A 
BRANCH   9  13
HETATM   13  O2  UNK     1      15.023   7.184  33.573  1.00  0.00    -0.353 OA
HETATM   14  C19 UNK     1      14.348   7.319  32.324  1.00  0.00     0.210 C 
ENDBRANCH   9  13
BRANCH  10  15
HETATM   15  O3  UNK     1      16.050   9.180  35.211  1.00  0.00    -0.353 OA
HETATM   16  C20 UNK     1      15.699  10.488  34.764  1.00  0.00     0.210 C 
ENDBRANCH  10  15
ENDBRANCH   6   7
ENDBRANCH   5   6
ENDBRANCH   2   5
BRANCH   3  17
HETATM   17  C6  UNK     1      18.785   2.045  30.357  1.00  0.00     0.108 A 
HETATM   18  C12 UNK     1      19.313   1.223  31.272  1.00  0.00     0.037 A 
HETATM   19  C9  UNK     1      19.769  -0.104  30.889  1.00  0.00    -0.001 A 
HETATM   20  C13 UNK     1      19.649  -0.500  29.562  1.00  0.00     0.089 A 
HETATM   21  C15 UNK     1      20.325  -0.995  31.811  1.00  0.00     0.014 A 
HETATM   22  O1  UNK     1      19.093   0.370  28.602  1.00  0.00    -0.274 OA
HETATM   23  C16 UNK     1      20.067  -1.757  29.129  1.00  0.00     0.038 A 
HETATM   24  C14 UNK     1      18.648   1.645  28.939  1.00  0.00     0.304 A 
HETATM   25  O5  UNK     1      18.167   2.395  28.097  1.00  0.00    -0.259 OA
HETATM   26  C18 UNK     1      20.620  -2.640  30.055  1.00  0.00     0.003 A 
HETATM   27  C17 UNK     1      20.748  -2.259  31.393  1.00  0.00     0.001 A 
ENDBRANCH   3  17
TORSDOF 6
ENDMDL
MODEL 2
REMARK VINA RESULT:      -8.9      1.252      2.185
REMARK  6 active torsions:
REMARK  status: ('A' for Active; 'I' for Inactive)
REMARK    1  A    between atoms: C7_13  and  O2_2 
REMARK    2  A    between atoms: C10_16  and  O3_3 
REMARK    3  A    between atoms: C2_8  and  N1_6 
REMARK       I    between atoms: C8_14  and  N1_6 
REMARK    4  A    between atoms: C1_7  and  C2_8 
REMARK    5  A    between atoms: C1_7  and  C3_9 
REMARK    6  A    between atoms: C6_12  and  C8_14 
ROOT
HETATM    1  O4  UNK     1      17.602   2.804  31.403  1.00  0.00    -0.267 OA
HETATM    2  N1  UNK     1      19.191   3.576  29.882  1.00  0.00    -0.356 N 
HETATM    3  C8  UNK     1      18.533   2.612  30.624  1.00  0.00     0.257 C 
HETATM    4  H5  UNK     1      19.969   3.317  29.283  1.00  0.00     0.162 HD
ENDROOT
BRANCH   2   5
HETATM    5  C2  UNK     1      18.849   4.980  29.934  1.00  0.00     0.127 C 
BRANCH   5   6
HETATM    6  C1  UNK     1      19.780   5.735  30.883  1.00  0.00     0.058 C 
BRANCH   6   7
HETATM    7  C3  UNK     1      19.020   6.349  32.033  1.00  0.00    -0.054 A 
HETATM    8  C4  UNK     1      19.709   7.071  32.995  1.00  0.00     0.046 A 
HETATM    9  C7  UNK     1      19.007   7.639  34.059  1.00  0.00     0.102 A 
HETATM   10  C10 UNK     1      17.625   7.478  34.147  1.00  0.00     0.101 A 
HETATM   11  C11 UNK     1      16.944   6.748  33.171  1.00  0.00     0.040 A 
HETATM   12  C5  UNK     1      17.647   6.181  32.108  1.00  0.00     0.010 A 
BRANCH   9  13
HETATM   13  O2  UNK     1      19.683   8.347  35.005  1.00  0.00    -0.353 OA
HETATM   14  C19 UNK     1      20.444   9.468  34.557  1.00  0.00     0.210 C 
ENDBRANCH   9  13
BRANCH  10  15
HETATM   15  O3  UNK     1      16.928   8.027  35.180  1.00  0.00    -0.353 OA
HETATM   16  C20 UNK     1      15.918   8.978  34.850  1.00  0.00     0.210 C 
ENDBRANCH  10  15
ENDBRANCH   6   7
ENDBRANCH   5   6
ENDBRANCH   2   5
BRANCH   3  17
HETATM   17  C6  UNK     1      19.060   1.260  30.398  1.00  0.00     0.108 A 
HETATM   18  C12 UNK     1      19.469   0.595  31.485  1.00  0.00     0.037 A 
HETATM   19  C9  UNK     1      20.006  -0.751  31.363  1.00  0.00    -0.001 A 
HETATM   20  C13 UNK     1      20.088  -1.330  30.102  1.00  0.00     0.089 A 
HETATM   21  C15 UNK     1      20.445  -1.481  32.470  1.00  0.00     0.014 A 
HETATM   22  O1  UNK     1      19.656  -0.625  28.960  1.00  0.00    -0.274 OA
HETATM   23  C16 UNK     1      20.594  -2.616  29.915  1.00  0.00     0.038 A 
HETATM   24  C14 UNK     1      19.137   0.663  29.047  1.00  0.00     0.304 A 
HETATM   25  O5  UNK     1      18.765   1.269  28.048  1.00  0.00    -0.259 OA
HETATM   26  C18 UNK     1      21.028  -3.337  31.024  1.00  0.00     0.003 A 
HETATM   27  C17 UNK     1      20.954  -2.772  32.299  1.00  0.00     0.001 A 
ENDBRANCH   3  17
TORSDOF 6
ENDMDL
MODEL 3
REMARK VINA RESULT:      -8.8      8.356     13.754
REMARK  6 active torsions:
REMARK  status: ('A' for Active; 'I' for Inactive)
REMARK    1  A    between atoms: C7_13  and  O2_2 
REMARK    2  A    between atoms: C10_16  and  O3_3 
REMARK    3  A    between atoms: C2_8  and  N1_6 
REMARK       I    between atoms: C8_14  and  N1_6 
REMARK    4  A    between atoms: C1_7  and  C2_8 
REMARK    5  A    between atoms: C1_7  and  C3_9 
REMARK    6  A    between atoms: C6_12  and  C8_14 
ROOT
HETATM    1  O4  UNK     1      20.604  -4.752  36.525  1.00  0.00    -0.267 OA
HETATM    2  N1  UNK     1      18.283  -4.929  36.660  1.00  0.00    -0.356 N 
HETATM    3  C8  UNK     1      19.480  -4.257  36.486  1.00  0.00     0.257 C 
HETATM    4  H5  UNK     1      17.404  -4.422  36.633  1.00  0.00     0.162 HD
ENDROOT
BRANCH   2   5
HETATM    5  C2  UNK     1      18.208  -6.349  36.920  1.00  0.00     0.127 C 
BRANCH   5   6
HETATM    6  C1  UNK     1      18.477  -7.154  35.649  1.00  0.00     0.058 C 
BRANCH   6   7
HETATM    7  C3  UNK     1      19.450  -8.279  35.900  1.00  0.00    -0.054 A 
HETATM    8  C4  UNK     1      19.089  -9.312  36.751  1.00  0.00     0.046 A 
HETATM    9  C7  UNK     1      19.989 -10.353  36.985  1.00  0.00     0.102 A 
HETATM   10  C10 UNK     1      21.238 -10.348  36.363  1.00  0.00     0.101 A 
HETATM   11  C11 UNK     1      21.587  -9.300  35.509  1.00  0.00     0.040 A 
HETATM   12  C5  UNK     1      20.687  -8.260  35.277  1.00  0.00     0.010 A 
BRANCH   9  13
HETATM   13  O2  UNK     1      19.637 -11.368  37.821  1.00  0.00    -0.353 OA
HETATM   14  C19 UNK     1      19.349 -11.023  39.175  1.00  0.00     0.210 C 
ENDBRANCH   9  13
BRANCH  10  15
HETATM   15  O3  UNK     1      22.125 -11.357  36.583  1.00  0.00    -0.353 OA
HETATM   16  C20 UNK     1      23.287 -11.391  35.758  1.00  0.00     0.210 C 
ENDBRANCH  10  15
ENDBRANCH   6   7
ENDBRANCH   5   6
ENDBRANCH   2   5
BRANCH   3  17
HETATM   17  C6  UNK     1      19.296  -2.823  36.232  1.00  0.00     0.108 A 
HETATM   18  C12 UNK     1      18.562  -2.152  37.128  1.00  0.00     0.037 A 
HETATM   19  C9  UNK     1      18.324  -0.727  36.963  1.00  0.00    -0.001 A 
HETATM   20  C13 UNK     1      18.870  -0.077  35.861  1.00  0.00     0.089 A 
HETATM   21  C15 UNK     1      17.564   0.012  37.873  1.00  0.00     0.014 A 
HETATM   22  O1  UNK     1      19.642  -0.788  34.920  1.00  0.00    -0.274 OA
HETATM   23  C16 UNK     1      18.679   1.286  35.643  1.00  0.00     0.038 A 
HETATM   24  C14 UNK     1      19.887  -2.152  35.052  1.00  0.00     0.304 A 
HETATM   25  O5  UNK     1      20.560  -2.762  34.228  1.00  0.00    -0.259 OA
HETATM   26  C18 UNK     1      17.920   2.015  36.555  1.00  0.00     0.003 A 
HETATM   27  C17 UNK     1      17.364   1.380  37.668  1.00  0.00     0.001 A 
ENDBRANCH   3  17
TORSDOF 6
ENDMDL
MODEL 4
REMARK VINA RESULT:      -8.8      1.351      2.015
REMARK  6 active torsions:
REMARK  status: ('A' for Active; 'I' for Inactive)
REMARK    1  A    between atoms: C7_13  and  O2_2 
REMARK    2  A    between atoms: C10_16  and  O3_3 
REMARK    3  A    between atoms: C2_8  and  N1_6 
REMARK       I    between atoms: C8_14  and  N1_6 
REMARK    4  A    between atoms: C1_7  and  C2_8 
REMARK    5  A    between atoms: C1_7  and  C3_9 
REMARK    6  A    between atoms: C6_12  and  C8_14 
ROOT
HETATM    1  O4  UNK     1      17.087   3.077  30.886  1.00  0.00    -0.267 OA
HETATM    2  N1  UNK     1      19.300   3.661  30.442  1.00  0.00    -0.356 N 
HETATM    3  C8  UNK     1      18.286   2.809  30.842  1.00  0.00     0.257 C 
HETATM    4  H5  UNK     1      20.266   3.352  30.466  1.00  0.00     0.162 HD
ENDROOT
BRANCH   2   5
HETATM    5  C2  UNK     1      19.062   5.021  30.011  1.00  0.00     0.127 C 
BRANCH   5   6
HETATM    6  C1  UNK     1      19.858   6.012  30.860  1.00  0.00     0.058 C 
BRANCH   6   7
HETATM    7  C3  UNK     1      19.037   6.541  32.009  1.00  0.00    -0.054 A 
HETATM    8  C4  UNK     1      17.657   6.418  31.972  1.00  0.00     0.046 A 
HETATM    9  C7  UNK     1      16.896   6.908  33.035  1.00  0.00     0.102 A 
HETATM   10  C10 UNK     1      17.526   7.515  34.121  1.00  0.00     0.101 A 
HETATM   11  C11 UNK     1      18.917   7.632  34.145  1.00  0.00     0.040 A 
HETATM   12  C5  UNK     1      19.676   7.142  33.082  1.00  0.00     0.010 A 
BRANCH   9  13
HETATM   13  O2  UNK     1      15.540   6.789  32.999  1.00  0.00    -0.353 OA
HETATM   14  C19 UNK     1      14.872   7.320  31.856  1.00  0.00     0.210 C 
ENDBRANCH   9  13
BRANCH  10  15
HETATM   15  O3  UNK     1      16.795   7.997  35.164  1.00  0.00    -0.353 OA
HETATM   16  C20 UNK     1      16.090   9.218  34.952  1.00  0.00     0.210 C 
ENDBRANCH  10  15
ENDBRANCH   6   7
ENDBRANCH   5   6
ENDBRANCH   2   5
BRANCH   3  17
HETATM   17  C6  UNK     1      18.777   1.482  31.232  1.00  0.00     0.108 A 
HETATM   18  C12 UNK     1      19.364   0.762  30.267  1.00  0.00     0.037 A 
HETATM   19  C9  UNK     1      19.883  -0.566  30.556  1.00  0.00    -0.001 A 
HETATM   20  C13 UNK     1      19.757  -1.071  31.845  1.00  0.00     0.089 A 
HETATM   21  C15 UNK     1      20.502  -1.351  29.581  1.00  0.00     0.014 A 
HETATM   22  O1  UNK     1      19.138  -0.309  32.856  1.00  0.00    -0.274 OA
HETATM   23  C16 UNK     1      20.232  -2.336  32.187  1.00  0.00     0.038 A 
HETATM   24  C14 UNK     1      18.633   0.964  32.610  1.00  0.00     0.304 A 
HETATM   25  O5  UNK     1      18.096   1.619  33.496  1.00  0.00    -0.259 OA
HETATM   26  C18 UNK     1      20.848  -3.113  31.209  1.00  0.00     0.003 A 
HETATM   27  C17 UNK     1      20.983  -2.622  29.909  1.00  0.00     0.001 A 
ENDBRANCH   3  17
TORSDOF 6
ENDMDL
MODEL 5
REMARK VINA RESULT:      -8.8      1.726      2.663
REMARK  6 active torsions:
REMARK  status: ('A' for Active; 'I' for Inactive)
REMARK    1  A    between atoms: C7_13  and  O2_2 
REMARK    2  A    between atoms: C10_16  and  O3_3 
REMARK    3  A    between atoms: C2_8  and  N1_6 
REMARK       I    between atoms: C8_14  and  N1_6 
REMARK    4  A    between atoms: C1_7  and  C2_8 
REMARK    5  A    between atoms: C1_7  and  C3_9 
REMARK    6  A    between atoms: C6_12  and  C8_14 
ROOT
HETATM    1  O4  UNK     1      17.107   4.330  31.597  1.00  0.00    -0.267 OA
HETATM    2  N1  UNK     1      19.391   4.788  31.548  1.00  0.00    -0.356 N 
HETATM    3  C8  UNK     1      18.280   3.965  31.582  1.00  0.00     0.257 C 
HETATM    4  H5  UNK     1      20.324   4.388  31.564  1.00  0.00     0.162 HD
ENDROOT
BRANCH   2   5
HETATM    5  C2  UNK     1      19.303   6.231  31.525  1.00  0.00     0.127 C 
BRANCH   5   6
HETATM    6  C1  UNK     1      19.706   6.826  32.874  1.00  0.00     0.058 C 
BRANCH   6   7
HETATM    7  C3  UNK     1      18.561   7.565  33.519  1.00  0.00    -0.054 A 
HETATM    8  C4  UNK     1      18.472   8.941  33.375  1.00  0.00     0.046 A 
HETATM    9  C7  UNK     1      17.413   9.626  33.971  1.00  0.00     0.102 A 
HETATM   10  C10 UNK     1      16.454   8.926  34.703  1.00  0.00     0.101 A 
HETATM   11  C11 UNK     1      16.556   7.541  34.840  1.00  0.00     0.040 A 
HETATM   12  C5  UNK     1      17.616   6.857  34.244  1.00  0.00     0.010 A 
BRANCH   9  13
HETATM   13  O2  UNK     1      17.325  10.978  33.831  1.00  0.00    -0.353 OA
HETATM   14  C19 UNK     1      18.509  11.734  34.083  1.00  0.00     0.210 C 
ENDBRANCH   9  13
BRANCH  10  15
HETATM   15  O3  UNK     1      15.415   9.582  35.290  1.00  0.00    -0.353 OA
HETATM   16  C20 UNK     1      14.226   9.737  34.519  1.00  0.00     0.210 C 
ENDBRANCH  10  15
ENDBRANCH   6   7
ENDBRANCH   5   6
ENDBRANCH   2   5
BRANCH   3  17
HETATM   17  C6  UNK     1      18.627   2.539  31.598  1.00  0.00     0.108 A 
HETATM   18  C12 UNK     1      19.163   2.048  30.474  1.00  0.00     0.037 A 
HETATM   19  C9  UNK     1      19.540   0.645  30.392  1.00  0.00    -0.001 A 
HETATM   20  C13 UNK     1      19.332  -0.172  31.498  1.00  0.00     0.089 A 
HETATM   21  C15 UNK     1      20.102   0.091  29.240  1.00  0.00     0.014 A 
HETATM   22  O1  UNK     1      18.767   0.350  32.678  1.00  0.00    -0.274 OA
HETATM   23  C16 UNK     1      19.669  -1.524  31.485  1.00  0.00     0.038 A 
HETATM   24  C14 UNK     1      18.397   1.687  32.786  1.00  0.00     0.304 A 
HETATM   25  O5  UNK     1      17.906   2.132  33.818  1.00  0.00    -0.259 OA
HETATM   26  C18 UNK     1      20.230  -2.069  30.332  1.00  0.00     0.003 A 
HETATM   27  C17 UNK     1      20.446  -1.263  29.212  1.00  0.00     0.001 A 
ENDBRANCH   3  17
TORSDOF 6
ENDMDL
MODEL 6
REMARK VINA RESULT:      -8.7      7.177      9.660
REMARK  6 active torsions:
REMARK  status: ('A' for Active; 'I' for Inactive)
REMARK    1  A    between atoms: C7_13  and  O2_2 
REMARK    2  A    between atoms: C10_16  and  O3_3 
REMARK    3  A    between atoms: C2_8  and  N1_6 
REMARK       I    between atoms: C8_14  and  N1_6 
REMARK    4  A    between atoms: C1_7  and  C2_8 
REMARK    5  A    between atoms: C1_7  and  C3_9 
REMARK    6  A    between atoms: C6_12  and  C8_14 
ROOT
HETATM    1  O4  UNK     1      20.241  -4.316  35.045  1.00  0.00    -0.267 OA
HETATM    2  N1  UNK     1      19.534  -3.901  37.227  1.00  0.00    -0.356 N 
HETATM    3  C8  UNK     1      19.850  -4.702  36.145  1.00  0.00     0.257 C 
HETATM    4  H5  UNK     1      19.194  -4.316  38.089  1.00  0.00     0.162 HD
ENDROOT
BRANCH   2   5
HETATM    5  C2  UNK     1      19.628  -2.458  37.194  1.00  0.00     0.127 C 
BRANCH   5   6
HETATM    6  C1  UNK     1      18.239  -1.819  37.191  1.00  0.00     0.058 C 
BRANCH   6   7
HETATM    7  C3  UNK     1      18.150  -0.691  36.193  1.00  0.00    -0.054 A 
HETATM    8  C4  UNK     1      18.355  -0.956  34.848  1.00  0.00     0.046 A 
HETATM    9  C7  UNK     1      18.274   0.087  33.924  1.00  0.00     0.102 A 
HETATM   10  C10 UNK     1      17.988   1.381  34.357  1.00  0.00     0.101 A 
HETATM   11  C11 UNK     1      17.784   1.633  35.715  1.00  0.00     0.040 A 
HETATM   12  C5  UNK     1      17.866   0.590  36.638  1.00  0.00     0.010 A 
BRANCH   9  13
HETATM   13  O2  UNK     1      18.476  -0.172  32.602  1.00  0.00    -0.353 OA
HETATM   14  C19 UNK     1      19.144  -1.388  32.274  1.00  0.00     0.210 C 
ENDBRANCH   9  13
BRANCH  10  15
HETATM   15  O3  UNK     1      17.906   2.408  33.466  1.00  0.00    -0.353 OA
HETATM   16  C20 UNK     1      18.326   3.694  33.917  1.00  0.00     0.210 C 
ENDBRANCH  10  15
ENDBRANCH   6   7
ENDBRANCH   5   6
ENDBRANCH   2   5
BRANCH   3  17
HETATM   17  C6  UNK     1      19.677  -6.132  36.425  1.00  0.00     0.108 A 
HETATM   18  C12 UNK     1      20.780  -6.887  36.348  1.00  0.00     0.037 A 
HETATM   19  C9  UNK     1      20.710  -8.317  36.607  1.00  0.00    -0.001 A 
HETATM   20  C13 UNK     1      19.481  -8.881  36.934  1.00  0.00     0.089 A 
HETATM   21  C15 UNK     1      21.834  -9.142  36.538  1.00  0.00     0.014 A 
HETATM   22  O1  UNK     1      18.324  -8.082  37.014  1.00  0.00    -0.274 OA
HETATM   23  C16 UNK     1      19.345 -10.244  37.194  1.00  0.00     0.038 A 
HETATM   24  C14 UNK     1      18.360  -6.712  36.771  1.00  0.00     0.304 A 
HETATM   25  O5  UNK     1      17.347  -6.024  36.842  1.00  0.00    -0.259 OA
HETATM   26  C18 UNK     1      20.472 -11.060  37.123  1.00  0.00     0.003 A 
HETATM   27  C17 UNK     1      21.714 -10.511  36.797  1.00  0.00     0.001 A 
ENDBRANCH   3  17
TORSDOF 6
ENDMDL
MODEL 7
REMARK VINA RESULT:      -8.7      5.986     10.802
REMARK  6 active torsions:
REMARK  status: ('A' for Active; 'I' for Inactive)
REMARK    1  A    between atoms: C7_13  and  O2_2 
REMARK    2  A    between atoms: C10_16  and  O3_3 
REMARK    3  A    between atoms: C2_8  and  N1_6 
REMARK       I    between atoms: C8_14  and  N1_6 
REMARK    4  A    between atoms: C1_7  and  C2_8 
REMARK    5  A    between atoms: C1_7  and  C3_9 
REMARK    6  A    between atoms: C6_12  and  C8_14 
ROOT
HETATM    1  O4  UNK     1      17.147  -0.975  35.617  1.00  0.00    -0.267 OA
HETATM    2  N1  UNK     1      19.235  -2.011  35.629  1.00  0.00    -0.356 N 
HETATM    3  C8  UNK     1      18.231  -1.223  35.095  1.00  0.00     0.257 C 
HETATM    4  H5  UNK     1      20.088  -2.176  35.105  1.00  0.00     0.162 HD
ENDROOT
BRANCH   2   5
HETATM    5  C2  UNK     1      19.125  -2.662  36.915  1.00  0.00     0.127 C 
BRANCH   5   6
HETATM    6  C1  UNK     1      20.440  -3.341  37.299  1.00  0.00     0.058 C 
BRANCH   6   7
HETATM    7  C3  UNK     1      20.346  -4.841  37.173  1.00  0.00    -0.054 A 
HETATM    8  C4  UNK     1      19.545  -5.392  36.185  1.00  0.00     0.046 A 
HETATM    9  C7  UNK     1      19.457  -6.780  36.067  1.00  0.00     0.102 A 
HETATM   10  C10 UNK     1      20.173  -7.600  36.940  1.00  0.00     0.101 A 
HETATM   11  C11 UNK     1      20.975  -7.031  37.931  1.00  0.00     0.040 A 
HETATM   12  C5  UNK     1      21.062  -5.644  38.047  1.00  0.00     0.010 A 
BRANCH   9  13
HETATM   13  O2  UNK     1      18.670  -7.322  35.098  1.00  0.00    -0.353 OA
HETATM   14  C19 UNK     1      17.267  -7.364  35.350  1.00  0.00     0.210 C 
ENDBRANCH   9  13
BRANCH  10  15
HETATM   15  O3  UNK     1      20.096  -8.955  36.837  1.00  0.00    -0.353 OA
HETATM   16  C20 UNK     1      19.158  -9.618  37.682  1.00  0.00     0.210 C 
ENDBRANCH  10  15
ENDBRANCH   6   7
ENDBRANCH   5   6
ENDBRANCH   2   5
BRANCH   3  17
HETATM   17  C6  UNK     1      18.579  -0.670  33.780  1.00  0.00     0.108 A 
HETATM   18  C12 UNK     1      19.155  -1.515  32.917  1.00  0.00     0.037 A 
HETATM   19  C9  UNK     1      19.537  -1.060  31.588  1.00  0.00    -0.001 A 
HETATM   20  C13 UNK     1      19.294   0.263  31.236  1.00  0.00     0.089 A 
HETATM   21  C15 UNK     1      20.140  -1.908  30.656  1.00  0.00     0.014 A 
HETATM   22  O1  UNK     1      18.688   1.148  32.149  1.00  0.00    -0.274 OA
HETATM   23  C16 UNK     1      19.636   0.762  29.980  1.00  0.00     0.038 A 
HETATM   24  C14 UNK     1      18.312   0.741  33.426  1.00  0.00     0.304 A 
HETATM   25  O5  UNK     1      17.786   1.520  34.214  1.00  0.00    -0.259 OA
HETATM   26  C18 UNK     1      20.237  -0.089  29.056  1.00  0.00     0.003 A 
HETATM   27  C17 UNK     1      20.488  -1.421  29.393  1.00  0.00     0.001 A 
ENDBRANCH   3  17
TORSDOF 6
ENDMDL
MODEL 8
REMARK VINA RESULT:      -8.6      6.197     10.954
REMARK  6 active torsions:
REMARK  status: ('A' for Active; 'I' for Inactive)
REMARK    1  A    between atoms: C7_13  and  O2_2 
REMARK    2  A    between atoms: C10_16  and  O3_3 
REMARK    3  A    between atoms: C2_8  and  N1_6 
REMARK       I    between atoms: C8_14  and  N1_6 
REMARK    4  A    between atoms: C1_7  and  C2_8 
REMARK    5  A    between atoms: C1_7  and  C3_9 
REMARK    6  A    between atoms: C6_12  and  C8_14 
ROOT
HETATM    1  O4  UNK     1      17.125  -0.495  35.539  1.00  0.00    -0.267 OA
HETATM    2  N1  UNK     1      18.940  -1.956  35.477  1.00  0.00    -0.356 N 
HETATM    3  C8  UNK     1      18.105  -0.975  34.973  1.00  0.00     0.257 C 
HETATM    4  H5  UNK     1      19.712  -2.306  34.918  1.00  0.00     0.162 HD
ENDROOT
BRANCH   2   5
HETATM    5  C2  UNK     1      18.755  -2.556  36.779  1.00  0.00     0.127 C 
BRANCH   5   6
HETATM    6  C1  UNK     1      20.092  -3.004  37.370  1.00  0.00     0.058 C 
BRANCH   6   7
HETATM    7  C3  UNK     1      20.283  -4.495  37.242  1.00  0.00    -0.054 A 
HETATM    8  C4  UNK     1      21.407  -5.086  37.797  1.00  0.00     0.046 A 
HETATM    9  C7  UNK     1      21.586  -6.465  37.678  1.00  0.00     0.102 A 
HETATM   10  C10 UNK     1      20.636  -7.235  37.006  1.00  0.00     0.101 A 
HETATM   11  C11 UNK     1      19.509  -6.626  36.452  1.00  0.00     0.040 A 
HETATM   12  C5  UNK     1      19.332  -5.248  36.572  1.00  0.00     0.010 A 
BRANCH   9  13
HETATM   13  O2  UNK     1      22.690  -7.047  38.221  1.00  0.00    -0.353 OA
HETATM   14  C19 UNK     1      22.676  -7.279  39.629  1.00  0.00     0.210 C 
ENDBRANCH   9  13
BRANCH  10  15
HETATM   15  O3  UNK     1      20.799  -8.582  36.883  1.00  0.00    -0.353 OA
HETATM   16  C20 UNK     1      19.934  -9.413  37.654  1.00  0.00     0.210 C 
ENDBRANCH  10  15
ENDBRANCH   6   7
ENDBRANCH   5   6
ENDBRANCH   2   5
BRANCH   3  17
HETATM   17  C6  UNK     1      18.499  -0.523  33.634  1.00  0.00     0.108 A 
HETATM   18  C12 UNK     1      19.142  -1.417  32.872  1.00  0.00     0.037 A 
HETATM   19  C9  UNK     1      19.574  -1.062  31.529  1.00  0.00    -0.001 A 
HETATM   20  C13 UNK     1      19.309   0.218  31.054  1.00  0.00     0.089 A 
HETATM   21  C15 UNK     1      20.246  -1.963  30.701  1.00  0.00     0.014 A 
HETATM   22  O1  UNK     1      18.633   1.155  31.860  1.00  0.00    -0.274 OA
HETATM   23  C16 UNK     1      19.696   0.622  29.778  1.00  0.00     0.038 A 
HETATM   24  C14 UNK     1      18.207   0.844  33.148  1.00  0.00     0.304 A 
HETATM   25  O5  UNK     1      17.620   1.667  33.842  1.00  0.00    -0.259 OA
HETATM   26  C18 UNK     1      20.367  -0.283  28.958  1.00  0.00     0.003 A 
HETATM   27  C17 UNK     1      20.641  -1.573  29.418  1.00  0.00     0.001 A 
ENDBRANCH   3  17
TORSDOF 6
ENDMDL
MODEL 9
REMARK VINA RESULT:      -8.6      3.471      5.642
REMARK  6 active torsions:
REMARK  status: ('A' for Active; 'I' for Inactive)
REMARK    1  A    between atoms: C7_13  and  O2_2 
REMARK    2  A    between atoms: C10_16  and  O3_3 
REMARK    3  A    between atoms: C2_8  and  N1_6 
REMARK       I    between atoms: C8_14  and  N1_6 
REMARK    4  A    between atoms: C1_7  and  C2_8 
REMARK    5  A    between atoms: C1_7  and  C3_9 
REMARK    6  A    between atoms: C6_12  and  C8_14 
ROOT
HETATM    1  O4  UNK     1      19.917  -2.113  30.480  1.00  0.00    -0.267 OA
HETATM    2  N1  UNK     1      19.368   0.109  30.923  1.00  0.00    -0.356 N 
HETATM    3  C8  UNK     1      19.622  -1.209  31.258  1.00  0.00     0.257 C 
HETATM    4  H5  UNK     1      19.107   0.778  31.640  1.00  0.00     0.162 HD
ENDROOT
BRANCH   2   5
HETATM    5  C2  UNK     1      19.423   0.601  29.564  1.00  0.00     0.127 C 
BRANCH   5   6
HETATM    6  C1  UNK     1      18.281   1.580  29.290  1.00  0.00     0.058 C 
BRANCH   6   7
HETATM    7  C3  UNK     1      18.462   2.869  30.051  1.00  0.00    -0.054 A 
HETATM    8  C4  UNK     1      18.108   2.923  31.391  1.00  0.00     0.046 A 
HETATM    9  C7  UNK     1      18.274   4.115  32.096  1.00  0.00     0.102 A 
HETATM   10  C10 UNK     1      18.793   5.239  31.453  1.00  0.00     0.101 A 
HETATM   11  C11 UNK     1      19.145   5.170  30.104  1.00  0.00     0.040 A 
HETATM   12  C5  UNK     1      18.978   3.978  29.400  1.00  0.00     0.010 A 
BRANCH   9  13
HETATM   13  O2  UNK     1      17.926   4.170  33.412  1.00  0.00    -0.353 OA
HETATM   14  C19 UNK     1      18.299   3.061  34.228  1.00  0.00     0.210 C 
ENDBRANCH   9  13
BRANCH  10  15
HETATM   15  O3  UNK     1      18.960   6.409  32.130  1.00  0.00    -0.353 OA
HETATM   16  C20 UNK     1      20.184   6.578  32.842  1.00  0.00     0.210 C 
ENDBRANCH  10  15
ENDBRANCH   6   7
ENDBRANCH   5   6
ENDBRANCH   2   5
BRANCH   3  17
HETATM   17  C6  UNK     1      19.507  -1.462  32.699  1.00  0.00     0.108 A 
HETATM   18  C12 UNK     1      18.551  -0.784  33.345  1.00  0.00     0.037 A 
HETATM   19  C9  UNK     1      18.359  -0.968  34.775  1.00  0.00    -0.001 A 
HETATM   20  C13 UNK     1      19.186  -1.855  35.456  1.00  0.00     0.089 A 
HETATM   21  C15 UNK     1      17.374  -0.282  35.489  1.00  0.00     0.014 A 
HETATM   22  O1  UNK     1      20.192  -2.566  34.771  1.00  0.00    -0.274 OA
HETATM   23  C16 UNK     1      19.056  -2.076  36.826  1.00  0.00     0.038 A 
HETATM   24  C14 UNK     1      20.398  -2.411  33.404  1.00  0.00     0.304 A 
HETATM   25  O5  UNK     1      21.277  -3.034  32.817  1.00  0.00    -0.259 OA
HETATM   26  C18 UNK     1      18.070  -1.388  37.530  1.00  0.00     0.003 A 
HETATM   27  C17 UNK     1      17.231  -0.493  36.863  1.00  0.00     0.001 A 
ENDBRANCH   3  17
TORSDOF 6
ENDMDL
MODEL 10
REMARK VINA RESULT:      -8.5     11.061     15.095
REMARK  6 active torsions:
REMARK  status: ('A' for Active; 'I' for Inactive)
REMARK    1  A    between atoms: C7_13  and  O2_2 
REMARK    2  A    between atoms: C10_16  and  O3_3 
REMARK    3  A    between atoms: C2_8  and  N1_6 
REMARK       I    between atoms: C8_14  and  N1_6 
REMARK    4  A    between atoms: C1_7  and  C2_8 
REMARK    5  A    between atoms: C1_7  and  C3_9 
REMARK    6  A    between atoms: C6_12  and  C8_14 
ROOT
HETATM    1  O4  UNK     1      26.073  -9.076  38.125  1.00  0.00    -0.267 OA
HETATM    2  N1  UNK     1      24.798  -7.330  38.997  1.00  0.00    -0.356 N 
HETATM    3  C8  UNK     1      25.959  -7.921  38.531  1.00  0.00     0.257 C 
HETATM    4  H5  UNK     1      24.813  -6.373  39.335  1.00  0.00     0.162 HD
ENDROOT
BRANCH   2   5
HETATM    5  C2  UNK     1      23.533  -8.025  39.067  1.00  0.00     0.127 C 
BRANCH   5   6
HETATM    6  C1  UNK     1      22.475  -7.169  39.764  1.00  0.00     0.058 C 
BRANCH   6   7
HETATM    7  C3  UNK     1      21.271  -6.948  38.883  1.00  0.00    -0.054 A 
HETATM    8  C4  UNK     1      21.326  -5.986  37.886  1.00  0.00     0.046 A 
HETATM    9  C7  UNK     1      20.213  -5.781  37.070  1.00  0.00     0.102 A 
HETATM   10  C10 UNK     1      19.058  -6.540  37.262  1.00  0.00     0.101 A 
HETATM   11  C11 UNK     1      19.018  -7.504  38.271  1.00  0.00     0.040 A 
HETATM   12  C5  UNK     1      20.131  -7.708  39.085  1.00  0.00     0.010 A 
BRANCH   9  13
HETATM   13  O2  UNK     1      20.265  -4.836  36.091  1.00  0.00    -0.353 OA
HETATM   14  C19 UNK     1      20.169  -3.472  36.499  1.00  0.00     0.210 C 
ENDBRANCH   9  13
BRANCH  10  15
HETATM   15  O3  UNK     1      17.965  -6.348  36.474  1.00  0.00    -0.353 OA
HETATM   16  C20 UNK     1      17.691  -7.345  35.491  1.00  0.00     0.210 C 
ENDBRANCH  10  15
ENDBRANCH   6   7
ENDBRANCH   5   6
ENDBRANCH   2   5
BRANCH   3  17
HETATM   17  C6  UNK     1      27.111  -7.013  38.555  1.00  0.00     0.108 A 
HETATM   18  C12 UNK     1      28.316  -7.583  38.429  1.00  0.00     0.037 A 
HETATM   19  C9  UNK     1      29.519  -6.765  38.442  1.00  0.00    -0.001 A 
HETATM   20  C13 UNK     1      29.395  -5.388  38.587  1.00  0.00     0.089 A 
HETATM   21  C15 UNK     1      30.796  -7.317  38.314  1.00  0.00     0.014 A 
HETATM   22  O1  UNK     1      28.124  -4.793  38.719  1.00  0.00    -0.274 OA
HETATM   23  C16 UNK     1      30.507  -4.548  38.608  1.00  0.00     0.038 A 
HETATM   24  C14 UNK     1      26.956  -5.550  38.711  1.00  0.00     0.304 A 
HETATM   25  O5  UNK     1      25.854  -5.023  38.827  1.00  0.00    -0.259 OA
HETATM   26  C18 UNK     1      31.777  -5.107  38.479  1.00  0.00     0.003 A 
HETATM   27  C17 UNK     1      31.921  -6.488  38.332  1.00  0.00     0.001 A 
ENDBRANCH   3  17
TORSDOF 6
ENDMDL
