MODEL 1
REMARK VINA RESULT:      -8.9      0.000      0.000
REMARK  6 active torsions:
REMARK  status: ('A' for Active; 'I' for Inactive)
REMARK    1  A    between atoms: C20_25  and  O2_2 
REMARK    2  A    between atoms: C23_28  and  O2_2 
REMARK    3  A    between atoms: C5_10  and  N1_4 
REMARK    4  A    between atoms: C6_11  and  N2_5 
REMARK    5  A    between atoms: C5_10  and  C7_12 
REMARK    6  A    between atoms: C6_11  and  C8_13 
ROOT
HETATM    1  C5  UNK     1      18.104   2.302  30.674  1.00  0.00     0.312 C 
ENDROOT
BRANCH   1   2
HETATM    2  N1  UNK     1      18.775   3.372  31.410  1.00  0.00     0.096 N 
HETATM    3  C1  UNK     1      17.981   3.782  32.574  1.00  0.00     0.303 C 
HETATM    4  C3  UNK     1      18.682   4.905  33.345  1.00  0.00     0.303 C 
HETATM    5  N2  UNK     1      18.943   6.056  32.472  1.00  0.00     0.096 N 
HETATM    6  C4  UNK     1      19.736   5.647  31.306  1.00  0.00     0.303 C 
HETATM    7  C2  UNK     1      19.035   4.523  30.536  1.00  0.00     0.303 C 
BRANCH   5   8
HETATM    8  C6  UNK     1      19.615   7.125  33.208  1.00  0.00     0.311 C 
BRANCH   8   9
HETATM    9  C8  UNK     1      18.693   8.281  33.486  1.00  0.00    -0.024 A 
HETATM   10  C10 UNK     1      19.165   9.449  34.085  1.00  0.00    -0.054 A 
HETATM   11  C15 UNK     1      18.292  10.508  34.333  1.00  0.00     0.007 A 
HETATM   12  C17 UNK     1      20.601   9.589  34.470  1.00  0.00     0.049 C 
HETATM   13  C21 UNK     1      16.946  10.400  33.982  1.00  0.00     0.001 A 
HETATM   14  C18 UNK     1      16.474   9.232  33.383  1.00  0.00     0.001 A 
HETATM   15  C12 UNK     1      17.347   8.173  33.135  1.00  0.00     0.009 A 
ENDBRANCH   8   9
ENDBRANCH   5   8
ENDBRANCH   1   2
BRANCH   1  16
HETATM   16  C7  UNK     1      18.955   1.086  30.551  1.00  0.00    -0.011 A 
HETATM   17  C11 UNK     1      19.620   0.819  29.418  1.00  0.00     0.092 A 
HETATM   18  C16 UNK     1      20.472  -0.370  29.249  1.00  0.00     0.288 A 
HETATM   19  O1  UNK     1      20.569  -1.227  30.335  1.00  0.00    -0.275 OA
HETATM   20  O3  UNK     1      21.066  -0.583  28.197  1.00  0.00    -0.260 OA
HETATM   21  C13 UNK     1      19.882  -0.972  31.539  1.00  0.00     0.090 A 
HETATM   22  C9  UNK     1      19.076   0.159  31.684  1.00  0.00     0.009 A 
HETATM   23  C19 UNK     1      20.051  -1.903  32.564  1.00  0.00     0.041 A 
HETATM   24  C14 UNK     1      18.427   0.340  32.911  1.00  0.00     0.051 A 
HETATM   25  C20 UNK     1      18.586  -0.585  33.949  1.00  0.00     0.069 A 
HETATM   26  C22 UNK     1      19.398  -1.705  33.776  1.00  0.00     0.039 A 
BRANCH  25  27
HETATM   27  O2  UNK     1      17.946  -0.390  35.135  1.00  0.00    -0.351 OA
BRANCH  27  28
HETATM   28  C23 UNK     1      16.633  -0.934  35.261  1.00  0.00     0.171 C 
HETATM   29  C24 UNK     1      15.653   0.194  35.500  1.00  0.00     0.034 C 
ENDBRANCH  27  28
ENDBRANCH  25  27
ENDBRANCH   1  16
TORSDOF 6
ENDMDL
MODEL 2
REMARK VINA RESULT:      -8.5     14.837     16.982
REMARK  6 active torsions:
REMARK  status: ('A' for Active; 'I' for Inactive)
REMARK    1  A    between atoms: C20_25  and  O2_2 
REMARK    2  A    between atoms: C23_28  and  O2_2 
REMARK    3  A    between atoms: C5_10  and  N1_4 
REMARK    4  A    between atoms: C6_11  and  N2_5 
REMARK    5  A    between atoms: C5_10  and  C7_12 
REMARK    6  A    between atoms: C6_11  and  C8_13 
ROOT
HETATM    1  C5  UNK     1      32.019  -6.601  35.272  1.00  0.00     0.312 C 
ENDROOT
BRANCH   1   2
HETATM    2  N1  UNK     1      31.707  -6.373  33.862  1.00  0.00     0.096 N 
HETATM    3  C1  UNK     1      30.265  -6.186  33.670  1.00  0.00     0.303 C 
HETATM    4  C3  UNK     1      29.937  -5.949  32.191  1.00  0.00     0.303 C 
HETATM    5  N2  UNK     1      30.425  -7.058  31.362  1.00  0.00     0.096 N 
HETATM    6  C4  UNK     1      31.868  -7.247  31.556  1.00  0.00     0.303 C 
HETATM    7  C2  UNK     1      32.195  -7.483  33.034  1.00  0.00     0.303 C 
BRANCH   5   8
HETATM    8  C6  UNK     1      30.115  -6.828  29.953  1.00  0.00     0.311 C 
BRANCH   8   9
HETATM    9  C8  UNK     1      29.618  -8.078  29.277  1.00  0.00    -0.024 A 
HETATM   10  C10 UNK     1      28.307  -8.519  29.460  1.00  0.00    -0.054 A 
HETATM   11  C15 UNK     1      27.867  -9.680  28.823  1.00  0.00     0.007 A 
HETATM   12  C17 UNK     1      27.357  -7.766  30.331  1.00  0.00     0.049 C 
HETATM   13  C21 UNK     1      28.738 -10.400  28.005  1.00  0.00     0.001 A 
HETATM   14  C18 UNK     1      30.048  -9.958  27.822  1.00  0.00     0.001 A 
HETATM   15  C12 UNK     1      30.488  -8.798  28.458  1.00  0.00     0.009 A 
ENDBRANCH   8   9
ENDBRANCH   5   8
ENDBRANCH   1   2
BRANCH   1  16
HETATM   16  C7  UNK     1      31.519  -5.501  36.142  1.00  0.00    -0.011 A 
HETATM   17  C11 UNK     1      31.967  -4.245  35.995  1.00  0.00     0.092 A 
HETATM   18  C16 UNK     1      31.503  -3.125  36.831  1.00  0.00     0.288 A 
HETATM   19  O1  UNK     1      30.560  -3.422  37.803  1.00  0.00    -0.275 OA
HETATM   20  O3  UNK     1      31.935  -1.989  36.668  1.00  0.00    -0.260 OA
HETATM   21  C13 UNK     1      30.071  -4.731  37.981  1.00  0.00     0.090 A 
HETATM   22  C9  UNK     1      30.520  -5.784  37.181  1.00  0.00     0.009 A 
HETATM   23  C19 UNK     1      29.125  -4.913  38.990  1.00  0.00     0.041 A 
HETATM   24  C14 UNK     1      29.986  -7.056  37.422  1.00  0.00     0.051 A 
HETATM   25  C20 UNK     1      29.037  -7.255  38.431  1.00  0.00     0.069 A 
HETATM   26  C22 UNK     1      28.606  -6.184  39.214  1.00  0.00     0.039 A 
BRANCH  25  27
HETATM   27  O2  UNK     1      28.529  -8.500  38.649  1.00  0.00    -0.351 OA
BRANCH  27  28
HETATM   28  C23 UNK     1      27.542  -8.628  39.669  1.00  0.00     0.171 C 
HETATM   29  C24 UNK     1      27.285 -10.097  39.926  1.00  0.00     0.034 C 
ENDBRANCH  27  28
ENDBRANCH  25  27
ENDBRANCH   1  16
TORSDOF 6
ENDMDL
MODEL 3
REMARK VINA RESULT:      -8.3      1.738      4.116
REMARK  6 active torsions:
REMARK  status: ('A' for Active; 'I' for Inactive)
REMARK    1  A    between atoms: C20_25  and  O2_2 
REMARK    2  A    between atoms: C23_28  and  O2_2 
REMARK    3  A    between atoms: C5_10  and  N1_4 
REMARK    4  A    between atoms: C6_11  and  N2_5 
REMARK    5  A    between atoms: C5_10  and  C7_12 
REMARK    6  A    between atoms: C6_11  and  C8_13 
ROOT
HETATM    1  C5  UNK     1      17.734   0.215  34.000  1.00  0.00     0.312 C 
ENDROOT
BRANCH   1   2
HETATM    2  N1  UNK     1      18.360   1.504  33.712  1.00  0.00     0.096 N 
HETATM    3  C1  UNK     1      18.090   2.467  34.786  1.00  0.00     0.303 C 
HETATM    4  C3  UNK     1      18.744   3.819  34.484  1.00  0.00     0.303 C 
HETATM    5  N2  UNK     1      18.283   4.348  33.195  1.00  0.00     0.096 N 
HETATM    6  C4  UNK     1      18.551   3.384  32.120  1.00  0.00     0.303 C 
HETATM    7  C2  UNK     1      17.898   2.032  32.422  1.00  0.00     0.303 C 
BRANCH   5   8
HETATM    8  C6  UNK     1      18.910   5.635  32.906  1.00  0.00     0.311 C 
BRANCH   8   9
HETATM    9  C8  UNK     1      17.914   6.763  32.931  1.00  0.00    -0.024 A 
HETATM   10  C10 UNK     1      18.217   7.975  33.550  1.00  0.00    -0.054 A 
HETATM   11  C15 UNK     1      17.277   9.007  33.560  1.00  0.00     0.007 A 
HETATM   12  C17 UNK     1      19.539   8.193  34.209  1.00  0.00     0.049 C 
HETATM   13  C21 UNK     1      16.036   8.826  32.952  1.00  0.00     0.001 A 
HETATM   14  C18 UNK     1      15.733   7.614  32.331  1.00  0.00     0.001 A 
HETATM   15  C12 UNK     1      16.672   6.583  32.321  1.00  0.00     0.009 A 
ENDBRANCH   8   9
ENDBRANCH   5   8
ENDBRANCH   1   2
BRANCH   1  16
HETATM   16  C7  UNK     1      18.737  -0.834  34.338  1.00  0.00    -0.011 A 
HETATM   17  C11 UNK     1      18.988  -1.166  35.612  1.00  0.00     0.092 A 
HETATM   18  C16 UNK     1      19.969  -2.194  35.995  1.00  0.00     0.288 A 
HETATM   19  O1  UNK     1      20.645  -2.827  34.962  1.00  0.00    -0.275 OA
HETATM   20  O3  UNK     1      20.174  -2.473  37.172  1.00  0.00    -0.260 OA
HETATM   21  C13 UNK     1      20.402  -2.499  33.613  1.00  0.00     0.090 A 
HETATM   22  C9  UNK     1      19.468  -1.521  33.265  1.00  0.00     0.009 A 
HETATM   23  C19 UNK     1      21.140  -3.198  32.657  1.00  0.00     0.041 A 
HETATM   24  C14 UNK     1      19.287  -1.252  31.902  1.00  0.00     0.051 A 
HETATM   25  C20 UNK     1      20.020  -1.945  30.932  1.00  0.00     0.069 A 
HETATM   26  C22 UNK     1      20.945  -2.917  31.309  1.00  0.00     0.039 A 
BRANCH  25  27
HETATM   27  O2  UNK     1      19.827  -1.669  29.612  1.00  0.00    -0.351 OA
BRANCH  27  28
HETATM   28  C23 UNK     1      20.447  -0.491  29.099  1.00  0.00     0.171 C 
HETATM   29  C24 UNK     1      19.400   0.591  28.947  1.00  0.00     0.034 C 
ENDBRANCH  27  28
ENDBRANCH  25  27
ENDBRANCH   1  16
TORSDOF 6
ENDMDL
MODEL 4
REMARK VINA RESULT:      -8.2     23.089     25.475
REMARK  6 active torsions:
REMARK  status: ('A' for Active; 'I' for Inactive)
REMARK    1  A    between atoms: C20_25  and  O2_2 
REMARK    2  A    between atoms: C23_28  and  O2_2 
REMARK    3  A    between atoms: C5_10  and  N1_4 
REMARK    4  A    between atoms: C6_11  and  N2_5 
REMARK    5  A    between atoms: C5_10  and  C7_12 
REMARK    6  A    between atoms: C6_11  and  C8_13 
ROOT
HETATM    1  C5  UNK     1      13.193   6.916   7.169  1.00  0.00     0.312 C 
ENDROOT
BRANCH   1   2
HETATM    2  N1  UNK     1      11.898   6.278   7.400  1.00  0.00     0.096 N 
HETATM    3  C1  UNK     1      10.884   6.808   6.480  1.00  0.00     0.303 C 
HETATM    4  C3  UNK     1       9.526   6.141   6.723  1.00  0.00     0.303 C 
HETATM    5  N2  UNK     1       9.097   6.318   8.115  1.00  0.00     0.096 N 
HETATM    6  C4  UNK     1      10.112   5.789   9.036  1.00  0.00     0.303 C 
HETATM    7  C2  UNK     1      11.470   6.455   8.793  1.00  0.00     0.303 C 
BRANCH   5   8
HETATM    8  C6  UNK     1       7.804   5.678   8.346  1.00  0.00     0.311 C 
BRANCH   8   9
HETATM    9  C8  UNK     1       7.222   6.055   9.682  1.00  0.00    -0.024 A 
HETATM   10  C10 UNK     1       6.779   5.078  10.573  1.00  0.00    -0.054 A 
HETATM   11  C15 UNK     1       6.243   5.450  11.807  1.00  0.00     0.007 A 
HETATM   12  C17 UNK     1       6.866   3.627  10.229  1.00  0.00     0.049 C 
HETATM   13  C21 UNK     1       6.151   6.798  12.149  1.00  0.00     0.001 A 
HETATM   14  C18 UNK     1       6.596   7.775  11.259  1.00  0.00     0.001 A 
HETATM   15  C12 UNK     1       7.131   7.404  10.025  1.00  0.00     0.009 A 
ENDBRANCH   8   9
ENDBRANCH   5   8
ENDBRANCH   1   2
BRANCH   1  16
HETATM   16  C7  UNK     1      14.161   6.635   8.266  1.00  0.00    -0.011 A 
HETATM   17  C11 UNK     1      14.551   5.382   8.540  1.00  0.00     0.092 A 
HETATM   18  C16 UNK     1      15.504   5.055   9.614  1.00  0.00     0.288 A 
HETATM   19  O1  UNK     1      15.999   6.119  10.353  1.00  0.00    -0.275 OA
HETATM   20  O3  UNK     1      15.839   3.896   9.837  1.00  0.00    -0.260 OA
HETATM   21  C13 UNK     1      15.607   7.446  10.088  1.00  0.00     0.090 A 
HETATM   22  C9  UNK     1      14.702   7.741   9.067  1.00  0.00     0.009 A 
HETATM   23  C19 UNK     1      16.168   8.437  10.896  1.00  0.00     0.041 A 
HETATM   24  C14 UNK     1      14.362   9.085   8.869  1.00  0.00     0.051 A 
HETATM   25  C20 UNK     1      14.916  10.090   9.671  1.00  0.00     0.069 A 
HETATM   26  C22 UNK     1      15.818   9.766  10.683  1.00  0.00     0.039 A 
BRANCH  25  27
HETATM   27  O2  UNK     1      14.573  11.391   9.461  1.00  0.00    -0.351 OA
BRANCH  27  28
HETATM   28  C23 UNK     1      15.593  12.259   8.972  1.00  0.00     0.171 C 
HETATM   29  C24 UNK     1      15.650  12.153   7.463  1.00  0.00     0.034 C 
ENDBRANCH  27  28
ENDBRANCH  25  27
ENDBRANCH   1  16
TORSDOF 6
ENDMDL
MODEL 5
REMARK VINA RESULT:      -8.2     14.427     17.612
REMARK  6 active torsions:
REMARK  status: ('A' for Active; 'I' for Inactive)
REMARK    1  A    between atoms: C20_25  and  O2_2 
REMARK    2  A    between atoms: C23_28  and  O2_2 
REMARK    3  A    between atoms: C5_10  and  N1_4 
REMARK    4  A    between atoms: C6_11  and  N2_5 
REMARK    5  A    between atoms: C5_10  and  C7_12 
REMARK    6  A    between atoms: C6_11  and  C8_13 
ROOT
HETATM    1  C5  UNK     1      29.228  -7.549  36.180  1.00  0.00     0.312 C 
ENDROOT
BRANCH   1   2
HETATM    2  N1  UNK     1      29.338  -7.100  34.793  1.00  0.00     0.096 N 
HETATM    3  C1  UNK     1      28.044  -6.620  34.296  1.00  0.00     0.303 C 
HETATM    4  C3  UNK     1      28.157  -6.151  32.842  1.00  0.00     0.303 C 
HETATM    5  N2  UNK     1      28.668  -7.227  31.983  1.00  0.00     0.096 N 
HETATM    6  C4  UNK     1      29.962  -7.710  32.481  1.00  0.00     0.303 C 
HETATM    7  C2  UNK     1      29.848  -8.177  33.936  1.00  0.00     0.303 C 
BRANCH   5   8
HETATM    8  C6  UNK     1      28.780  -6.778  30.598  1.00  0.00     0.311 C 
BRANCH   8   9
HETATM    9  C8  UNK     1      28.989  -7.928  29.650  1.00  0.00    -0.024 A 
HETATM   10  C10 UNK     1      30.171  -8.052  28.920  1.00  0.00    -0.054 A 
HETATM   11  C15 UNK     1      30.343  -9.128  28.048  1.00  0.00     0.007 A 
HETATM   12  C17 UNK     1      31.266  -7.046  29.055  1.00  0.00     0.049 C 
HETATM   13  C21 UNK     1      29.333 -10.078  27.906  1.00  0.00     0.001 A 
HETATM   14  C18 UNK     1      28.151  -9.955  28.636  1.00  0.00     0.001 A 
HETATM   15  C12 UNK     1      27.979  -8.881  29.508  1.00  0.00     0.009 A 
ENDBRANCH   8   9
ENDBRANCH   5   8
ENDBRANCH   1   2
BRANCH   1  16
HETATM   16  C7  UNK     1      29.738  -6.532  37.141  1.00  0.00    -0.011 A 
HETATM   17  C11 UNK     1      28.896  -5.764  37.848  1.00  0.00     0.092 A 
HETATM   18  C16 UNK     1      29.353  -4.746  38.809  1.00  0.00     0.288 A 
HETATM   19  O1  UNK     1      30.724  -4.605  38.963  1.00  0.00    -0.275 OA
HETATM   20  O3  UNK     1      28.553  -4.061  39.438  1.00  0.00    -0.260 OA
HETATM   21  C13 UNK     1      31.633  -5.398  38.234  1.00  0.00     0.090 A 
HETATM   22  C9  UNK     1      31.185  -6.359  37.326  1.00  0.00     0.009 A 
HETATM   23  C19 UNK     1      32.990  -5.169  38.469  1.00  0.00     0.041 A 
HETATM   24  C14 UNK     1      32.153  -7.104  36.640  1.00  0.00     0.051 A 
HETATM   25  C20 UNK     1      33.517  -6.886  36.864  1.00  0.00     0.069 A 
HETATM   26  C22 UNK     1      33.934  -5.920  37.778  1.00  0.00     0.039 A 
BRANCH  25  27
HETATM   27  O2  UNK     1      34.441  -7.623  36.188  1.00  0.00    -0.351 OA
BRANCH  27  28
HETATM   28  C23 UNK     1      34.827  -7.152  34.899  1.00  0.00     0.171 C 
HETATM   29  C24 UNK     1      36.326  -6.943  34.878  1.00  0.00     0.034 C 
ENDBRANCH  27  28
ENDBRANCH  25  27
ENDBRANCH   1  16
TORSDOF 6
ENDMDL
MODEL 6
REMARK VINA RESULT:      -8.2     12.921     16.363
REMARK  6 active torsions:
REMARK  status: ('A' for Active; 'I' for Inactive)
REMARK    1  A    between atoms: C20_25  and  O2_2 
REMARK    2  A    between atoms: C23_28  and  O2_2 
REMARK    3  A    between atoms: C5_10  and  N1_4 
REMARK    4  A    between atoms: C6_11  and  N2_5 
REMARK    5  A    between atoms: C5_10  and  C7_12 
REMARK    6  A    between atoms: C6_11  and  C8_13 
ROOT
HETATM    1  C5  UNK     1      25.426  -8.922  37.606  1.00  0.00     0.312 C 
ENDROOT
BRANCH   1   2
HETATM    2  N1  UNK     1      26.831  -9.310  37.506  1.00  0.00     0.096 N 
HETATM    3  C1  UNK     1      27.454  -9.365  38.834  1.00  0.00     0.303 C 
HETATM    4  C3  UNK     1      28.928  -9.771  38.730  1.00  0.00     0.303 C 
HETATM    5  N2  UNK     1      29.664  -8.848  37.857  1.00  0.00     0.096 N 
HETATM    6  C4  UNK     1      29.041  -8.790  36.529  1.00  0.00     0.303 C 
HETATM    7  C2  UNK     1      27.567  -8.386  36.633  1.00  0.00     0.303 C 
BRANCH   5   8
HETATM    8  C6  UNK     1      31.069  -9.237  37.755  1.00  0.00     0.311 C 
BRANCH   8   9
HETATM    9  C8  UNK     1      31.961  -8.055  37.490  1.00  0.00    -0.024 A 
HETATM   10  C10 UNK     1      32.782  -8.013  36.364  1.00  0.00    -0.054 A 
HETATM   11  C15 UNK     1      33.601  -6.906  36.137  1.00  0.00     0.007 A 
HETATM   12  C17 UNK     1      32.803  -9.142  35.385  1.00  0.00     0.049 C 
HETATM   13  C21 UNK     1      33.599  -5.842  37.038  1.00  0.00     0.001 A 
HETATM   14  C18 UNK     1      32.777  -5.882  38.164  1.00  0.00     0.001 A 
HETATM   15  C12 UNK     1      31.958  -6.989  38.390  1.00  0.00     0.009 A 
ENDBRANCH   8   9
ENDBRANCH   5   8
ENDBRANCH   1   2
BRANCH   1  16
HETATM   16  C7  UNK     1      24.536  -9.829  36.828  1.00  0.00    -0.011 A 
HETATM   17  C11 UNK     1      24.990 -10.992  36.340  1.00  0.00     0.092 A 
HETATM   18  C16 UNK     1      24.149 -11.920  35.566  1.00  0.00     0.288 A 
HETATM   19  O1  UNK     1      22.833 -11.539  35.354  1.00  0.00    -0.275 OA
HETATM   20  O3  UNK     1      24.599 -12.976  35.133  1.00  0.00    -0.260 OA
HETATM   21  C13 UNK     1      22.327 -10.323  35.855  1.00  0.00     0.090 A 
HETATM   22  C9  UNK     1      23.137  -9.452  36.587  1.00  0.00     0.009 A 
HETATM   23  C19 UNK     1      20.988 -10.042  35.580  1.00  0.00     0.041 A 
HETATM   24  C14 UNK     1      22.559  -8.263  37.049  1.00  0.00     0.051 A 
HETATM   25  C20 UNK     1      21.218  -7.967  36.781  1.00  0.00     0.069 A 
HETATM   26  C22 UNK     1      20.433  -8.856  36.048  1.00  0.00     0.039 A 
BRANCH  25  27
HETATM   27  O2  UNK     1      20.675  -6.805  37.240  1.00  0.00    -0.351 OA
BRANCH  27  28
HETATM   28  C23 UNK     1      20.882  -6.493  38.616  1.00  0.00     0.171 C 
HETATM   29  C24 UNK     1      19.972  -7.358  39.461  1.00  0.00     0.034 C 
ENDBRANCH  27  28
ENDBRANCH  25  27
ENDBRANCH   1  16
TORSDOF 6
ENDMDL
MODEL 7
REMARK VINA RESULT:      -8.1      2.656      4.318
REMARK  6 active torsions:
REMARK  status: ('A' for Active; 'I' for Inactive)
REMARK    1  A    between atoms: C20_25  and  O2_2 
REMARK    2  A    between atoms: C23_28  and  O2_2 
REMARK    3  A    between atoms: C5_10  and  N1_4 
REMARK    4  A    between atoms: C6_11  and  N2_5 
REMARK    5  A    between atoms: C5_10  and  C7_12 
REMARK    6  A    between atoms: C6_11  and  C8_13 
ROOT
HETATM    1  C5  UNK     1      18.442   5.474  33.362  1.00  0.00     0.312 C 
ENDROOT
BRANCH   1   2
HETATM    2  N1  UNK     1      17.219   6.248  33.160  1.00  0.00     0.096 N 
HETATM    3  C1  UNK     1      17.449   7.350  32.218  1.00  0.00     0.303 C 
HETATM    4  C3  UNK     1      16.168   8.163  32.006  1.00  0.00     0.303 C 
HETATM    5  N2  UNK     1      15.658   8.679  33.283  1.00  0.00     0.096 N 
HETATM    6  C4  UNK     1      15.430   7.578  34.227  1.00  0.00     0.303 C 
HETATM    7  C2  UNK     1      16.710   6.764  34.437  1.00  0.00     0.303 C 
BRANCH   5   8
HETATM    8  C6  UNK     1      14.434   9.452  33.080  1.00  0.00     0.311 C 
BRANCH   8   9
HETATM    9  C8  UNK     1      14.622  10.903  33.433  1.00  0.00    -0.024 A 
HETATM   10  C10 UNK     1      13.595  11.827  33.242  1.00  0.00    -0.054 A 
HETATM   11  C15 UNK     1      13.791  13.167  33.577  1.00  0.00     0.007 A 
HETATM   12  C17 UNK     1      12.276  11.406  32.681  1.00  0.00     0.049 C 
HETATM   13  C21 UNK     1      15.014  13.583  34.102  1.00  0.00     0.001 A 
HETATM   14  C18 UNK     1      16.041  12.659  34.293  1.00  0.00     0.001 A 
HETATM   15  C12 UNK     1      15.845  11.319  33.959  1.00  0.00     0.009 A 
ENDBRANCH   8   9
ENDBRANCH   5   8
ENDBRANCH   1   2
BRANCH   1  16
HETATM   16  C7  UNK     1      18.372   4.134  32.714  1.00  0.00    -0.011 A 
HETATM   17  C11 UNK     1      18.288   4.014  31.382  1.00  0.00     0.092 A 
HETATM   18  C16 UNK     1      18.216   2.713  30.696  1.00  0.00     0.288 A 
HETATM   19  O1  UNK     1      18.241   1.583  31.500  1.00  0.00    -0.275 OA
HETATM   20  O3  UNK     1      18.139   2.641  29.474  1.00  0.00    -0.260 OA
HETATM   21  C13 UNK     1      18.330   1.678  32.903  1.00  0.00     0.090 A 
HETATM   22  C9  UNK     1      18.396   2.919  33.539  1.00  0.00     0.009 A 
HETATM   23  C19 UNK     1      18.346   0.476  33.611  1.00  0.00     0.041 A 
HETATM   24  C14 UNK     1      18.481   2.928  34.937  1.00  0.00     0.051 A 
HETATM   25  C20 UNK     1      18.498   1.731  35.662  1.00  0.00     0.069 A 
HETATM   26  C22 UNK     1      18.431   0.506  34.999  1.00  0.00     0.039 A 
BRANCH  25  27
HETATM   27  O2  UNK     1      18.582   1.762  37.020  1.00  0.00    -0.351 OA
BRANCH  27  28
HETATM   28  C23 UNK     1      17.637   0.978  37.746  1.00  0.00     0.171 C 
HETATM   29  C24 UNK     1      16.250   1.540  37.517  1.00  0.00     0.034 C 
ENDBRANCH  27  28
ENDBRANCH  25  27
ENDBRANCH   1  16
TORSDOF 6
ENDMDL
MODEL 8
REMARK VINA RESULT:      -8.0     15.109     16.818
REMARK  6 active torsions:
REMARK  status: ('A' for Active; 'I' for Inactive)
REMARK    1  A    between atoms: C20_25  and  O2_2 
REMARK    2  A    between atoms: C23_28  and  O2_2 
REMARK    3  A    between atoms: C5_10  and  N1_4 
REMARK    4  A    between atoms: C6_11  and  N2_5 
REMARK    5  A    between atoms: C5_10  and  C7_12 
REMARK    6  A    between atoms: C6_11  and  C8_13 
ROOT
HETATM    1  C5  UNK     1      30.798  -7.084  36.227  1.00  0.00     0.312 C 
ENDROOT
BRANCH   1   2
HETATM    2  N1  UNK     1      30.148  -6.831  34.942  1.00  0.00     0.096 N 
HETATM    3  C1  UNK     1      29.917  -8.086  34.218  1.00  0.00     0.303 C 
HETATM    4  C3  UNK     1      29.238  -7.821  32.870  1.00  0.00     0.303 C 
HETATM    5  N2  UNK     1      30.036  -6.898  32.053  1.00  0.00     0.096 N 
HETATM    6  C4  UNK     1      30.270  -5.642  32.779  1.00  0.00     0.303 C 
HETATM    7  C2  UNK     1      30.947  -5.908  34.126  1.00  0.00     0.303 C 
BRANCH   5   8
HETATM    8  C6  UNK     1      29.386  -6.643  30.770  1.00  0.00     0.311 C 
BRANCH   8   9
HETATM    9  C8  UNK     1      29.653  -7.743  29.778  1.00  0.00    -0.024 A 
HETATM   10  C10 UNK     1      28.666  -8.676  29.458  1.00  0.00    -0.054 A 
HETATM   11  C15 UNK     1      28.935  -9.687  28.535  1.00  0.00     0.007 A 
HETATM   12  C17 UNK     1      27.314  -8.613  30.089  1.00  0.00     0.049 C 
HETATM   13  C21 UNK     1      30.191  -9.766  27.933  1.00  0.00     0.001 A 
HETATM   14  C18 UNK     1      31.177  -8.833  28.253  1.00  0.00     0.001 A 
HETATM   15  C12 UNK     1      30.908  -7.822  29.175  1.00  0.00     0.009 A 
ENDBRANCH   8   9
ENDBRANCH   5   8
ENDBRANCH   1   2
BRANCH   1  16
HETATM   16  C7  UNK     1      30.012  -6.540  37.370  1.00  0.00    -0.011 A 
HETATM   17  C11 UNK     1      30.329  -5.363  37.928  1.00  0.00     0.092 A 
HETATM   18  C16 UNK     1      29.583  -4.785  39.059  1.00  0.00     0.288 A 
HETATM   19  O1  UNK     1      28.510  -5.521  39.539  1.00  0.00    -0.275 OA
HETATM   20  O3  UNK     1      29.901  -3.705  39.545  1.00  0.00    -0.260 OA
HETATM   21  C13 UNK     1      28.154  -6.761  38.972  1.00  0.00     0.090 A 
HETATM   22  C9  UNK     1      28.871  -7.297  37.901  1.00  0.00     0.009 A 
HETATM   23  C19 UNK     1      27.058  -7.414  39.537  1.00  0.00     0.041 A 
HETATM   24  C14 UNK     1      28.454  -8.535  37.396  1.00  0.00     0.051 A 
HETATM   25  C20 UNK     1      27.357  -9.203  37.951  1.00  0.00     0.069 A 
HETATM   26  C22 UNK     1      26.660  -8.642  39.020  1.00  0.00     0.039 A 
BRANCH  25  27
HETATM   27  O2  UNK     1      26.968 -10.405  37.444  1.00  0.00    -0.351 OA
BRANCH  27  28
HETATM   28  C23 UNK     1      25.897 -10.395  36.502  1.00  0.00     0.171 C 
HETATM   29  C24 UNK     1      25.345 -11.797  36.367  1.00  0.00     0.034 C 
ENDBRANCH  27  28
ENDBRANCH  25  27
ENDBRANCH   1  16
TORSDOF 6
ENDMDL
MODEL 9
REMARK VINA RESULT:      -8.0     14.400     16.397
REMARK  6 active torsions:
REMARK  status: ('A' for Active; 'I' for Inactive)
REMARK    1  A    between atoms: C20_25  and  O2_2 
REMARK    2  A    between atoms: C23_28  and  O2_2 
REMARK    3  A    between atoms: C5_10  and  N1_4 
REMARK    4  A    between atoms: C6_11  and  N2_5 
REMARK    5  A    between atoms: C5_10  and  C7_12 
REMARK    6  A    between atoms: C6_11  and  C8_13 
ROOT
HETATM    1  C5  UNK     1      31.218  -7.695  37.768  1.00  0.00     0.312 C 
ENDROOT
BRANCH   1   2
HETATM    2  N1  UNK     1      31.402  -7.482  36.334  1.00  0.00     0.096 N 
HETATM    3  C1  UNK     1      30.391  -6.555  35.810  1.00  0.00     0.303 C 
HETATM    4  C3  UNK     1      30.582  -6.332  34.306  1.00  0.00     0.303 C 
HETATM    5  N2  UNK     1      30.536  -7.605  33.578  1.00  0.00     0.096 N 
HETATM    6  C4  UNK     1      31.545  -8.534  34.102  1.00  0.00     0.303 C 
HETATM    7  C2  UNK     1      31.355  -8.756  35.606  1.00  0.00     0.303 C 
BRANCH   5   8
HETATM    8  C6  UNK     1      30.722  -7.392  32.144  1.00  0.00     0.311 C 
BRANCH   8   9
HETATM    9  C8  UNK     1      29.409  -7.345  31.409  1.00  0.00    -0.024 A 
HETATM   10  C10 UNK     1      28.933  -6.152  30.866  1.00  0.00    -0.054 A 
HETATM   11  C15 UNK     1      27.713  -6.132  30.188  1.00  0.00     0.007 A 
HETATM   12  C17 UNK     1      29.709  -4.883  30.998  1.00  0.00     0.049 C 
HETATM   13  C21 UNK     1      26.971  -7.305  30.054  1.00  0.00     0.001 A 
HETATM   14  C18 UNK     1      27.448  -8.498  30.596  1.00  0.00     0.001 A 
HETATM   15  C12 UNK     1      28.667  -8.518  31.274  1.00  0.00     0.009 A 
ENDBRANCH   8   9
ENDBRANCH   5   8
ENDBRANCH   1   2
BRANCH   1  16
HETATM   16  C7  UNK     1      30.121  -6.854  38.325  1.00  0.00    -0.011 A 
HETATM   17  C11 UNK     1      30.359  -5.610  38.765  1.00  0.00     0.092 A 
HETATM   18  C16 UNK     1      29.309  -4.742  39.323  1.00  0.00     0.288 A 
HETATM   19  O1  UNK     1      28.028  -5.271  39.378  1.00  0.00    -0.275 OA
HETATM   20  O3  UNK     1      29.563  -3.609  39.717  1.00  0.00    -0.260 OA
HETATM   21  C13 UNK     1      27.748  -6.574  38.923  1.00  0.00     0.090 A 
HETATM   22  C9  UNK     1      28.754  -7.387  38.396  1.00  0.00     0.009 A 
HETATM   23  C19 UNK     1      26.423  -7.002  39.028  1.00  0.00     0.041 A 
HETATM   24  C14 UNK     1      28.394  -8.670  37.967  1.00  0.00     0.051 A 
HETATM   25  C20 UNK     1      27.070  -9.114  38.066  1.00  0.00     0.069 A 
HETATM   26  C22 UNK     1      26.086  -8.280  38.595  1.00  0.00     0.039 A 
BRANCH  25  27
HETATM   27  O2  UNK     1      26.741 -10.365  37.642  1.00  0.00    -0.351 OA
BRANCH  27  28
HETATM   28  C23 UNK     1      26.101 -10.472  36.372  1.00  0.00     0.171 C 
HETATM   29  C24 UNK     1      25.305 -11.758  36.327  1.00  0.00     0.034 C 
ENDBRANCH  27  28
ENDBRANCH  25  27
ENDBRANCH   1  16
TORSDOF 6
ENDMDL
MODEL 10
REMARK VINA RESULT:      -8.0      6.032     11.875
REMARK  6 active torsions:
REMARK  status: ('A' for Active; 'I' for Inactive)
REMARK    1  A    between atoms: C20_25  and  O2_2 
REMARK    2  A    between atoms: C23_28  and  O2_2 
REMARK    3  A    between atoms: C5_10  and  N1_4 
REMARK    4  A    between atoms: C6_11  and  N2_5 
REMARK    5  A    between atoms: C5_10  and  C7_12 
REMARK    6  A    between atoms: C6_11  and  C8_13 
ROOT
HETATM    1  C5  UNK     1      19.475  -2.710  36.383  1.00  0.00     0.312 C 
ENDROOT
BRANCH   1   2
HETATM    2  N1  UNK     1      20.319  -3.899  36.484  1.00  0.00     0.096 N 
HETATM    3  C1  UNK     1      19.542  -5.115  36.217  1.00  0.00     0.303 C 
HETATM    4  C3  UNK     1      20.427  -6.362  36.324  1.00  0.00     0.303 C 
HETATM    5  N2  UNK     1      21.063  -6.441  37.644  1.00  0.00     0.096 N 
HETATM    6  C4  UNK     1      21.839  -5.223  37.913  1.00  0.00     0.303 C 
HETATM    7  C2  UNK     1      20.955  -3.977  37.805  1.00  0.00     0.303 C 
BRANCH   5   8
HETATM    8  C6  UNK     1      21.909  -7.628  37.744  1.00  0.00     0.311 C 
BRANCH   8   9
HETATM    9  C8  UNK     1      21.095  -8.886  37.885  1.00  0.00    -0.024 A 
HETATM   10  C10 UNK     1      21.156  -9.892  36.921  1.00  0.00    -0.054 A 
HETATM   11  C15 UNK     1      20.393 -11.051  37.073  1.00  0.00     0.007 A 
HETATM   12  C17 UNK     1      22.029  -9.753  35.718  1.00  0.00     0.049 C 
HETATM   13  C21 UNK     1      19.569 -11.202  38.188  1.00  0.00     0.001 A 
HETATM   14  C18 UNK     1      19.510 -10.196  39.153  1.00  0.00     0.001 A 
HETATM   15  C12 UNK     1      20.272  -9.038  39.001  1.00  0.00     0.009 A 
ENDBRANCH   8   9
ENDBRANCH   5   8
ENDBRANCH   1   2
BRANCH   1  16
HETATM   16  C7  UNK     1      19.553  -2.078  35.036  1.00  0.00    -0.011 A 
HETATM   17  C11 UNK     1      20.154  -2.702  34.013  1.00  0.00     0.092 A 
HETATM   18  C16 UNK     1      20.256  -2.118  32.666  1.00  0.00     0.288 A 
HETATM   19  O1  UNK     1      19.692  -0.864  32.485  1.00  0.00    -0.275 OA
HETATM   20  O3  UNK     1      20.814  -2.718  31.753  1.00  0.00    -0.260 OA
HETATM   21  C13 UNK     1      19.054  -0.184  33.542  1.00  0.00     0.090 A 
HETATM   22  C9  UNK     1      18.965  -0.750  34.815  1.00  0.00     0.009 A 
HETATM   23  C19 UNK     1      18.523   1.072  33.246  1.00  0.00     0.041 A 
HETATM   24  C14 UNK     1      18.316  -0.010  35.811  1.00  0.00     0.051 A 
HETATM   25  C20 UNK     1      17.779   1.252  35.530  1.00  0.00     0.069 A 
HETATM   26  C22 UNK     1      17.882   1.792  34.249  1.00  0.00     0.039 A 
BRANCH  25  27
HETATM   27  O2  UNK     1      17.151   1.955  36.513  1.00  0.00    -0.351 OA
BRANCH  27  28
HETATM   28  C23 UNK     1      16.272   1.229  37.369  1.00  0.00     0.171 C 
HETATM   29  C24 UNK     1      15.018   0.874  36.601  1.00  0.00     0.034 C 
ENDBRANCH  27  28
ENDBRANCH  25  27
ENDBRANCH   1  16
TORSDOF 6
ENDMDL
