MODEL 1
REMARK VINA RESULT:      -8.9      0.000      0.000
REMARK  5 active torsions:
REMARK  status: ('A' for Active; 'I' for Inactive)
REMARK    1  A    between atoms: C6_16  and  S1_2 
REMARK    2  A    between atoms: N1_8  and  S1_2 
REMARK    3  A    between atoms: C5_15  and  N2_9 
REMARK    4  A    between atoms: C5_15  and  N3_10 
REMARK    5  A    between atoms: C9_19  and  N3_10 
ROOT
HETATM    1  N1  UNK     1      31.098  -6.235  32.958  1.00  0.00    -0.203 NA
HETATM    2  N2  UNK     1      33.503  -7.009  34.228  1.00  0.00    -0.356 N 
HETATM    3  C1  UNK     1      31.319  -7.670  33.321  1.00  0.00     0.127 C 
HETATM    4  C2  UNK     1      31.756  -5.311  33.933  1.00  0.00     0.127 C 
HETATM    5  C3  UNK     1      32.817  -7.957  33.358  1.00  0.00     0.140 C 
HETATM    6  C4  UNK     1      33.252  -5.597  33.970  1.00  0.00     0.140 C 
ENDROOT
BRANCH   2   7
HETATM    7  C5  UNK     1      34.385  -7.418  35.172  1.00  0.00     0.174 C 
HETATM    8  S2  UNK     1      36.030  -7.404  34.844  1.00  0.00    -0.041 SA
BRANCH   7   9
HETATM    9  N3  UNK     1      33.929  -7.902  36.370  1.00  0.00    -0.333 N 
HETATM   10  H9  UNK     1      34.623  -8.403  36.922  1.00  0.00     0.168 HD
BRANCH   9  11
HETATM   11  C9  UNK     1      32.659  -7.813  36.989  1.00  0.00     0.036 A 
HETATM   12  C12 UNK     1      32.212  -6.588  37.444  1.00  0.00     0.067 A 
HETATM   13  C15 UNK     1      30.956  -6.521  38.050  1.00  0.00     0.092 A 
HETATM   14  C14 UNK     1      30.145  -7.646  38.210  1.00  0.00     0.004 A 
HETATM   15  O3  UNK     1      30.539  -5.252  38.499  1.00  0.00    -0.275 OA
HETATM   16  C17 UNK     1      30.633  -8.871  37.737  1.00  0.00     0.017 A 
HETATM   17  C18 UNK     1      28.838  -7.484  38.860  1.00  0.00    -0.043 A 
HETATM   18  C13 UNK     1      31.890  -8.953  37.126  1.00  0.00     0.030 A 
HETATM   19  C19 UNK     1      28.467  -6.265  39.277  1.00  0.00     0.090 A 
HETATM   20  C20 UNK     1      27.943  -8.674  39.048  1.00  0.00     0.049 C 
HETATM   21  C21 UNK     1      29.311  -5.069  39.115  1.00  0.00     0.288 A 
HETATM   22  O4  UNK     1      28.938  -3.970  39.509  1.00  0.00    -0.260 OA
ENDBRANCH   9  11
ENDBRANCH   7   9
ENDBRANCH   2   7
BRANCH   1  23
HETATM   23  S1  UNK     1      29.487  -5.828  32.537  1.00  0.00     0.243 S 
HETATM   24  O1  UNK     1      29.480  -4.526  31.906  1.00  0.00    -0.206 OA
HETATM   25  O2  UNK     1      28.622  -6.119  33.660  1.00  0.00    -0.206 OA
BRANCH  23  26
HETATM   26  C6  UNK     1      29.181  -7.037  31.287  1.00  0.00     0.074 A 
HETATM   27  C8  UNK     1      28.145  -7.940  31.458  1.00  0.00     0.026 A 
HETATM   28  C11 UNK     1      27.902  -8.895  30.470  1.00  0.00     0.025 A 
HETATM   29  C16 UNK     1      28.699  -8.932  29.325  1.00  0.00     0.034 A 
HETATM   30  C10 UNK     1      29.739  -8.016  29.169  1.00  0.00     0.025 A 
HETATM   31 Cl1  UNK     1      28.399 -10.109  28.107  1.00  0.00    -0.084 Cl
HETATM   32  C7  UNK     1      29.981  -7.061  30.157  1.00  0.00     0.026 A 
ENDBRANCH  23  26
ENDBRANCH   1  23
TORSDOF 5
ENDMDL
MODEL 2
REMARK VINA RESULT:      -8.6      2.586      3.192
REMARK  5 active torsions:
REMARK  status: ('A' for Active; 'I' for Inactive)
REMARK    1  A    between atoms: C6_16  and  S1_2 
REMARK    2  A    between atoms: N1_8  and  S1_2 
REMARK    3  A    between atoms: C5_15  and  N2_9 
REMARK    4  A    between atoms: C5_15  and  N3_10 
REMARK    5  A    between atoms: C9_19  and  N3_10 
ROOT
HETATM    1  N1  UNK     1      34.904  -7.816  31.704  1.00  0.00    -0.203 NA
HETATM    2  N2  UNK     1      34.776  -7.597  34.520  1.00  0.00    -0.356 N 
HETATM    3  C1  UNK     1      33.637  -7.363  32.359  1.00  0.00     0.127 C 
HETATM    4  C2  UNK     1      36.110  -7.376  32.472  1.00  0.00     0.127 C 
HETATM    5  C3  UNK     1      33.568  -7.928  33.774  1.00  0.00     0.140 C 
HETATM    6  C4  UNK     1      36.042  -7.940  33.886  1.00  0.00     0.140 C 
ENDROOT
BRANCH   2   7
HETATM    7  C5  UNK     1      34.721  -7.072  35.769  1.00  0.00     0.174 C 
HETATM    8  S2  UNK     1      35.478  -5.612  36.099  1.00  0.00    -0.041 SA
BRANCH   7   9
HETATM    9  N3  UNK     1      34.099  -7.765  36.775  1.00  0.00    -0.333 N 
HETATM   10  H9  UNK     1      34.686  -8.447  37.250  1.00  0.00     0.168 HD
BRANCH   9  11
HETATM   11  C9  UNK     1      32.781  -7.686  37.285  1.00  0.00     0.036 A 
HETATM   12  C12 UNK     1      32.291  -6.467  37.710  1.00  0.00     0.067 A 
HETATM   13  C15 UNK     1      30.988  -6.412  38.209  1.00  0.00     0.092 A 
HETATM   14  C14 UNK     1      30.173  -7.542  38.292  1.00  0.00     0.004 A 
HETATM   15  O3  UNK     1      30.528  -5.148  38.631  1.00  0.00    -0.275 OA
HETATM   16  C17 UNK     1      30.705  -8.761  37.852  1.00  0.00     0.017 A 
HETATM   17  C18 UNK     1      28.815  -7.390  38.830  1.00  0.00    -0.043 A 
HETATM   18  C13 UNK     1      32.010  -8.832  37.348  1.00  0.00     0.030 A 
HETATM   19  C19 UNK     1      28.403  -6.177  39.224  1.00  0.00     0.090 A 
HETATM   20  C20 UNK     1      27.914  -8.586  38.933  1.00  0.00     0.049 C 
HETATM   21  C21 UNK     1      29.252  -4.976  39.143  1.00  0.00     0.288 A 
HETATM   22  O4  UNK     1      28.841  -3.881  39.512  1.00  0.00    -0.260 OA
ENDBRANCH   9  11
ENDBRANCH   7   9
ENDBRANCH   2   7
BRANCH   1  23
HETATM   23  S1  UNK     1      34.982  -7.564  30.010  1.00  0.00     0.243 S 
HETATM   24  O1  UNK     1      35.911  -8.512  29.435  1.00  0.00    -0.206 OA
HETATM   25  O2  UNK     1      35.110  -6.145  29.754  1.00  0.00    -0.206 OA
BRANCH  23  26
HETATM   26  C6  UNK     1      33.351  -8.056  29.550  1.00  0.00     0.074 A 
HETATM   27  C8  UNK     1      32.997  -9.392  29.641  1.00  0.00     0.026 A 
HETATM   28  C11 UNK     1      31.707  -9.782  29.278  1.00  0.00     0.025 A 
HETATM   29  C16 UNK     1      30.791  -8.830  28.830  1.00  0.00     0.034 A 
HETATM   30  C10 UNK     1      31.163  -7.489  28.745  1.00  0.00     0.025 A 
HETATM   31 Cl1  UNK     1      29.200  -9.310  28.384  1.00  0.00    -0.084 Cl
HETATM   32  C7  UNK     1      32.453  -7.100  29.107  1.00  0.00     0.026 A 
ENDBRANCH  23  26
ENDBRANCH   1  23
TORSDOF 5
ENDMDL
MODEL 3
REMARK VINA RESULT:      -8.6      2.828      3.537
REMARK  5 active torsions:
REMARK  status: ('A' for Active; 'I' for Inactive)
REMARK    1  A    between atoms: C6_16  and  S1_2 
REMARK    2  A    between atoms: N1_8  and  S1_2 
REMARK    3  A    between atoms: C5_15  and  N2_9 
REMARK    4  A    between atoms: C5_15  and  N3_10 
REMARK    5  A    between atoms: C9_19  and  N3_10 
ROOT
HETATM    1  N1  UNK     1      32.999  -8.871  30.737  1.00  0.00    -0.203 NA
HETATM    2  N2  UNK     1      33.945  -7.448  32.989  1.00  0.00    -0.356 N 
HETATM    3  C1  UNK     1      32.227  -8.906  32.018  1.00  0.00     0.127 C 
HETATM    4  C2  UNK     1      33.699  -7.562  30.550  1.00  0.00     0.127 C 
HETATM    5  C3  UNK     1      33.176  -8.670  33.187  1.00  0.00     0.140 C 
HETATM    6  C4  UNK     1      34.649  -7.326  31.719  1.00  0.00     0.140 C 
ENDROOT
BRANCH   2   7
HETATM    7  C5  UNK     1      34.064  -6.514  33.965  1.00  0.00     0.174 C 
HETATM    8  S2  UNK     1      35.379  -6.549  35.004  1.00  0.00    -0.041 SA
BRANCH   7   9
HETATM    9  N3  UNK     1      33.076  -5.580  34.140  1.00  0.00    -0.333 N 
HETATM   10  H9  UNK     1      32.986  -4.905  33.384  1.00  0.00     0.168 HD
BRANCH   9  11
HETATM   11  C9  UNK     1      32.140  -5.398  35.186  1.00  0.00     0.036 A 
HETATM   12  C12 UNK     1      30.995  -6.170  35.213  1.00  0.00     0.067 A 
HETATM   13  C15 UNK     1      30.085  -5.975  36.254  1.00  0.00     0.092 A 
HETATM   14  C14 UNK     1      30.296  -5.031  37.261  1.00  0.00     0.004 A 
HETATM   15  O3  UNK     1      28.931  -6.784  36.243  1.00  0.00    -0.275 OA
HETATM   16  C17 UNK     1      31.468  -4.267  37.200  1.00  0.00     0.017 A 
HETATM   17  C18 UNK     1      29.285  -4.894  38.318  1.00  0.00    -0.043 A 
HETATM   18  C13 UNK     1      32.390  -4.452  36.163  1.00  0.00     0.030 A 
HETATM   19  C19 UNK     1      28.197  -5.676  38.282  1.00  0.00     0.090 A 
HETATM   20  C20 UNK     1      29.482  -3.888  39.414  1.00  0.00     0.049 C 
HETATM   21  C21 UNK     1      27.962  -6.676  37.227  1.00  0.00     0.288 A 
HETATM   22  O4  UNK     1      26.954  -7.375  37.227  1.00  0.00    -0.260 OA
ENDBRANCH   9  11
ENDBRANCH   7   9
ENDBRANCH   2   7
BRANCH   1  23
HETATM   23  S1  UNK     1      32.160  -9.454  29.360  1.00  0.00     0.243 S 
HETATM   24  O1  UNK     1      32.036 -10.892  29.459  1.00  0.00    -0.206 OA
HETATM   25  O2  UNK     1      32.713  -8.831  28.177  1.00  0.00    -0.206 OA
BRANCH  23  26
HETATM   26  C6  UNK     1      30.566  -8.752  29.652  1.00  0.00     0.074 A 
HETATM   27  C8  UNK     1      29.502  -9.589  29.946  1.00  0.00     0.026 A 
HETATM   28  C11 UNK     1      28.243  -9.035  30.178  1.00  0.00     0.025 A 
HETATM   29  C16 UNK     1      28.066  -7.652  30.111  1.00  0.00     0.034 A 
HETATM   30  C10 UNK     1      29.148  -6.824  29.813  1.00  0.00     0.025 A 
HETATM   31 Cl1  UNK     1      26.513  -6.968  30.397  1.00  0.00    -0.084 Cl
HETATM   32  C7  UNK     1      30.407  -7.379  29.582  1.00  0.00     0.026 A 
ENDBRANCH  23  26
ENDBRANCH   1  23
TORSDOF 5
ENDMDL
MODEL 4
REMARK VINA RESULT:      -8.6      2.694      3.156
REMARK  5 active torsions:
REMARK  status: ('A' for Active; 'I' for Inactive)
REMARK    1  A    between atoms: C6_16  and  S1_2 
REMARK    2  A    between atoms: N1_8  and  S1_2 
REMARK    3  A    between atoms: C5_15  and  N2_9 
REMARK    4  A    between atoms: C5_15  and  N3_10 
REMARK    5  A    between atoms: C9_19  and  N3_10 
ROOT
HETATM    1  N1  UNK     1      33.010  -8.899  30.664  1.00  0.00    -0.203 NA
HETATM    2  N2  UNK     1      33.962  -7.566  32.969  1.00  0.00    -0.356 N 
HETATM    3  C1  UNK     1      32.353  -9.137  31.987  1.00  0.00     0.127 C 
HETATM    4  C2  UNK     1      33.536  -7.502  30.553  1.00  0.00     0.127 C 
HETATM    5  C3  UNK     1      33.358  -8.886  33.105  1.00  0.00     0.140 C 
HETATM    6  C4  UNK     1      34.543  -7.251  31.670  1.00  0.00     0.140 C 
ENDROOT
BRANCH   2   7
HETATM    7  C5  UNK     1      34.049  -6.710  34.017  1.00  0.00     0.174 C 
HETATM    8  S2  UNK     1      35.371  -6.776  35.046  1.00  0.00    -0.041 SA
BRANCH   7   9
HETATM    9  N3  UNK     1      33.025  -5.834  34.271  1.00  0.00    -0.333 N 
HETATM   10  H9  UNK     1      33.062  -4.968  33.739  1.00  0.00     0.168 HD
BRANCH   9  11
HETATM   11  C9  UNK     1      31.908  -5.932  35.135  1.00  0.00     0.036 A 
HETATM   12  C12 UNK     1      31.821  -5.093  36.229  1.00  0.00     0.067 A 
HETATM   13  C15 UNK     1      30.711  -5.206  37.067  1.00  0.00     0.092 A 
HETATM   14  C14 UNK     1      29.693  -6.133  36.836  1.00  0.00     0.004 A 
HETATM   15  O3  UNK     1      30.663  -4.331  38.171  1.00  0.00    -0.275 OA
HETATM   16  C17 UNK     1      29.816  -6.967  35.717  1.00  0.00     0.017 A 
HETATM   17  C18 UNK     1      28.561  -6.181  37.771  1.00  0.00    -0.043 A 
HETATM   18  C13 UNK     1      30.923  -6.865  34.867  1.00  0.00     0.030 A 
HETATM   19  C19 UNK     1      28.542  -5.338  38.812  1.00  0.00     0.090 A 
HETATM   20  C20 UNK     1      27.451  -7.167  37.551  1.00  0.00     0.049 C 
HETATM   21  C21 UNK     1      29.608  -4.354  39.069  1.00  0.00     0.288 A 
HETATM   22  O4  UNK     1      29.556  -3.597  40.032  1.00  0.00    -0.260 OA
ENDBRANCH   9  11
ENDBRANCH   7   9
ENDBRANCH   2   7
BRANCH   1  23
HETATM   23  S1  UNK     1      32.137  -9.462  29.301  1.00  0.00     0.243 S 
HETATM   24  O1  UNK     1      32.010 -10.901  29.385  1.00  0.00    -0.206 OA
HETATM   25  O2  UNK     1      32.666  -8.827  28.112  1.00  0.00    -0.206 OA
BRANCH  23  26
HETATM   26  C6  UNK     1      30.554  -8.758  29.637  1.00  0.00     0.074 A 
HETATM   27  C8  UNK     1      30.366  -7.398  29.452  1.00  0.00     0.026 A 
HETATM   28  C11 UNK     1      29.114  -6.841  29.716  1.00  0.00     0.025 A 
HETATM   29  C16 UNK     1      28.069  -7.652  30.162  1.00  0.00     0.034 A 
HETATM   30  C10 UNK     1      28.276  -9.019  30.343  1.00  0.00     0.025 A 
HETATM   31 Cl1  UNK     1      26.526  -6.965  30.487  1.00  0.00    -0.084 Cl
HETATM   32  C7  UNK     1      29.528  -9.576  30.079  1.00  0.00     0.026 A 
ENDBRANCH  23  26
ENDBRANCH   1  23
TORSDOF 5
ENDMDL
MODEL 5
REMARK VINA RESULT:      -8.5      1.396      2.181
REMARK  5 active torsions:
REMARK  status: ('A' for Active; 'I' for Inactive)
REMARK    1  A    between atoms: C6_16  and  S1_2 
REMARK    2  A    between atoms: N1_8  and  S1_2 
REMARK    3  A    between atoms: C5_15  and  N2_9 
REMARK    4  A    between atoms: C5_15  and  N3_10 
REMARK    5  A    between atoms: C9_19  and  N3_10 
ROOT
HETATM    1  N1  UNK     1      30.983  -6.321  32.990  1.00  0.00    -0.203 NA
HETATM    2  N2  UNK     1      33.357  -7.071  34.331  1.00  0.00    -0.356 N 
HETATM    3  C1  UNK     1      31.147  -7.723  33.484  1.00  0.00     0.127 C 
HETATM    4  C2  UNK     1      31.680  -5.338  33.876  1.00  0.00     0.127 C 
HETATM    5  C3  UNK     1      32.631  -8.066  33.551  1.00  0.00     0.140 C 
HETATM    6  C4  UNK     1      33.164  -5.680  33.942  1.00  0.00     0.140 C 
ENDROOT
BRANCH   2   7
HETATM    7  C5  UNK     1      34.224  -7.426  35.310  1.00  0.00     0.174 C 
HETATM    8  S2  UNK     1      35.872  -7.448  35.003  1.00  0.00    -0.041 SA
BRANCH   7   9
HETATM    9  N3  UNK     1      33.748  -7.829  36.531  1.00  0.00    -0.333 N 
HETATM   10  H9  UNK     1      34.417  -8.337  37.105  1.00  0.00     0.168 HD
BRANCH   9  11
HETATM   11  C9  UNK     1      32.487  -7.644  37.147  1.00  0.00     0.036 A 
HETATM   12  C12 UNK     1      31.722  -8.747  37.469  1.00  0.00     0.067 A 
HETATM   13  C15 UNK     1      30.481  -8.543  38.076  1.00  0.00     0.092 A 
HETATM   14  C14 UNK     1      29.994  -7.267  38.365  1.00  0.00     0.004 A 
HETATM   15  O3  UNK     1      29.734  -9.696  38.387  1.00  0.00    -0.275 OA
HETATM   16  C17 UNK     1      30.798  -6.172  38.023  1.00  0.00     0.017 A 
HETATM   17  C18 UNK     1      28.678  -7.145  39.005  1.00  0.00    -0.043 A 
HETATM   18  C13 UNK     1      32.045  -6.361  37.415  1.00  0.00     0.030 A 
HETATM   19  C19 UNK     1      27.988  -8.259  39.290  1.00  0.00     0.090 A 
HETATM   20  C20 UNK     1      28.126  -5.788  39.328  1.00  0.00     0.049 C 
HETATM   21  C21 UNK     1      28.489  -9.612  38.992  1.00  0.00     0.288 A 
HETATM   22  O4  UNK     1      27.831 -10.608  39.268  1.00  0.00    -0.260 OA
ENDBRANCH   9  11
ENDBRANCH   7   9
ENDBRANCH   2   7
BRANCH   1  23
HETATM   23  S1  UNK     1      29.390  -5.889  32.529  1.00  0.00     0.243 S 
HETATM   24  O1  UNK     1      29.418  -4.586  31.900  1.00  0.00    -0.206 OA
HETATM   25  O2  UNK     1      28.493  -6.168  33.630  1.00  0.00    -0.206 OA
BRANCH  23  26
HETATM   26  C6  UNK     1      29.097  -7.092  31.270  1.00  0.00     0.074 A 
HETATM   27  C8  UNK     1      29.958  -7.161  30.187  1.00  0.00     0.026 A 
HETATM   28  C11 UNK     1      29.729  -8.112  29.193  1.00  0.00     0.025 A 
HETATM   29  C16 UNK     1      28.641  -8.980  29.296  1.00  0.00     0.034 A 
HETATM   30  C10 UNK     1      27.784  -8.897  30.393  1.00  0.00     0.025 A 
HETATM   31 Cl1  UNK     1      28.358 -10.154  28.070  1.00  0.00    -0.084 Cl
HETATM   32  C7  UNK     1      28.014  -7.946  31.387  1.00  0.00     0.026 A 
ENDBRANCH  23  26
ENDBRANCH   1  23
TORSDOF 5
ENDMDL
MODEL 6
REMARK VINA RESULT:      -8.4      3.426      5.649
REMARK  5 active torsions:
REMARK  status: ('A' for Active; 'I' for Inactive)
REMARK    1  A    between atoms: C6_16  and  S1_2 
REMARK    2  A    between atoms: N1_8  and  S1_2 
REMARK    3  A    between atoms: C5_15  and  N2_9 
REMARK    4  A    between atoms: C5_15  and  N3_10 
REMARK    5  A    between atoms: C9_19  and  N3_10 
ROOT
HETATM    1  N1  UNK     1      33.067  -6.774  34.227  1.00  0.00    -0.203 NA
HETATM    2  N2  UNK     1      31.034  -7.985  32.680  1.00  0.00    -0.356 N 
HETATM    3  C1  UNK     1      31.892  -5.964  33.778  1.00  0.00     0.127 C 
HETATM    4  C2  UNK     1      32.692  -8.201  34.476  1.00  0.00     0.127 C 
HETATM    5  C3  UNK     1      31.322  -6.567  32.498  1.00  0.00     0.140 C 
HETATM    6  C4  UNK     1      32.122  -8.804  33.197  1.00  0.00     0.140 C 
ENDROOT
BRANCH   2   7
HETATM    7  C5  UNK     1      29.846  -8.524  32.311  1.00  0.00     0.174 C 
HETATM    8  S2  UNK     1      29.727  -9.394  30.883  1.00  0.00    -0.041 SA
BRANCH   7   9
HETATM    9  N3  UNK     1      28.729  -8.304  33.076  1.00  0.00    -0.333 N 
HETATM   10  H9  UNK     1      27.887  -8.084  32.549  1.00  0.00     0.168 HD
BRANCH   9  11
HETATM   11  C9  UNK     1      28.536  -8.346  34.478  1.00  0.00     0.036 A 
HETATM   12  C12 UNK     1      27.973  -7.260  35.118  1.00  0.00     0.067 A 
HETATM   13  C15 UNK     1      27.791  -7.323  36.500  1.00  0.00     0.092 A 
HETATM   14  C14 UNK     1      28.158  -8.441  37.250  1.00  0.00     0.004 A 
HETATM   15  O3  UNK     1      27.213  -6.192  37.112  1.00  0.00    -0.275 OA
HETATM   16  C17 UNK     1      28.727  -9.524  36.566  1.00  0.00     0.017 A 
HETATM   17  C18 UNK     1      27.930  -8.421  38.701  1.00  0.00    -0.043 A 
HETATM   18  C13 UNK     1      28.915  -9.475  35.180  1.00  0.00     0.030 A 
HETATM   19  C19 UNK     1      27.379  -7.333  39.257  1.00  0.00     0.090 A 
HETATM   20  C20 UNK     1      28.314  -9.607  39.535  1.00  0.00     0.049 C 
HETATM   21  C21 UNK     1      26.986  -6.145  38.479  1.00  0.00     0.288 A 
HETATM   22  O4  UNK     1      26.483  -5.168  39.021  1.00  0.00    -0.260 OA
ENDBRANCH   9  11
ENDBRANCH   7   9
ENDBRANCH   2   7
BRANCH   1  23
HETATM   23  S1  UNK     1      34.034  -6.049  35.443  1.00  0.00     0.243 S 
HETATM   24  O1  UNK     1      34.709  -4.898  34.884  1.00  0.00    -0.206 OA
HETATM   25  O2  UNK     1      34.771  -7.085  36.135  1.00  0.00    -0.206 OA
BRANCH  23  26
HETATM   26  C6  UNK     1      32.772  -5.461  36.528  1.00  0.00     0.074 A 
HETATM   27  C8  UNK     1      32.206  -6.334  37.443  1.00  0.00     0.026 A 
HETATM   28  C11 UNK     1      31.209  -5.870  38.302  1.00  0.00     0.025 A 
HETATM   29  C16 UNK     1      30.793  -4.539  38.233  1.00  0.00     0.034 A 
HETATM   30  C10 UNK     1      31.373  -3.674  37.307  1.00  0.00     0.025 A 
HETATM   31 Cl1  UNK     1      29.565  -3.966  39.293  1.00  0.00    -0.084 Cl
HETATM   32  C7  UNK     1      32.370  -4.139  36.448  1.00  0.00     0.026 A 
ENDBRANCH  23  26
ENDBRANCH   1  23
TORSDOF 5
ENDMDL
MODEL 7
REMARK VINA RESULT:      -8.4      2.158      2.626
REMARK  5 active torsions:
REMARK  status: ('A' for Active; 'I' for Inactive)
REMARK    1  A    between atoms: C6_16  and  S1_2 
REMARK    2  A    between atoms: N1_8  and  S1_2 
REMARK    3  A    between atoms: C5_15  and  N2_9 
REMARK    4  A    between atoms: C5_15  and  N3_10 
REMARK    5  A    between atoms: C9_19  and  N3_10 
ROOT
HETATM    1  N1  UNK     1      31.619  -6.592  32.782  1.00  0.00    -0.203 NA
HETATM    2  N2  UNK     1      33.976  -6.891  34.315  1.00  0.00    -0.356 N 
HETATM    3  C1  UNK     1      32.161  -7.960  33.055  1.00  0.00     0.127 C 
HETATM    4  C2  UNK     1      31.896  -5.653  33.913  1.00  0.00     0.127 C 
HETATM    5  C3  UNK     1      33.666  -7.872  33.282  1.00  0.00     0.140 C 
HETATM    6  C4  UNK     1      33.401  -5.564  34.139  1.00  0.00     0.140 C 
ENDROOT
BRANCH   2   7
HETATM    7  C5  UNK     1      34.817  -7.176  35.339  1.00  0.00     0.174 C 
HETATM    8  S2  UNK     1      36.476  -7.061  35.119  1.00  0.00    -0.041 SA
BRANCH   7   9
HETATM    9  N3  UNK     1      34.313  -7.619  36.535  1.00  0.00    -0.333 N 
HETATM   10  H9  UNK     1      34.976  -8.127  37.117  1.00  0.00     0.168 HD
BRANCH   9  11
HETATM   11  C9  UNK     1      33.030  -7.478  37.115  1.00  0.00     0.036 A 
HETATM   12  C12 UNK     1      32.641  -6.248  37.609  1.00  0.00     0.067 A 
HETATM   13  C15 UNK     1      31.371  -6.130  38.176  1.00  0.00     0.092 A 
HETATM   14  C14 UNK     1      30.489  -7.209  38.259  1.00  0.00     0.004 A 
HETATM   15  O3  UNK     1      31.015  -4.858  38.668  1.00  0.00    -0.275 OA
HETATM   16  C17 UNK     1      30.918  -8.440  37.747  1.00  0.00     0.017 A 
HETATM   17  C18 UNK     1      29.171  -6.994  38.872  1.00  0.00    -0.043 A 
HETATM   18  C13 UNK     1      32.189  -8.574  37.175  1.00  0.00     0.030 A 
HETATM   19  C19 UNK     1      28.860  -5.774  39.332  1.00  0.00     0.090 A 
HETATM   20  C20 UNK     1      28.200  -8.133  38.977  1.00  0.00     0.049 C 
HETATM   21  C21 UNK     1      29.780  -4.627  39.251  1.00  0.00     0.288 A 
HETATM   22  O4  UNK     1      29.460  -3.524  39.682  1.00  0.00    -0.260 OA
ENDBRANCH   9  11
ENDBRANCH   7   9
ENDBRANCH   2   7
BRANCH   1  23
HETATM   23  S1  UNK     1      30.019  -6.548  32.169  1.00  0.00     0.243 S 
HETATM   24  O1  UNK     1      29.980  -7.247  30.903  1.00  0.00    -0.206 OA
HETATM   25  O2  UNK     1      29.508  -5.199  32.294  1.00  0.00    -0.206 OA
BRANCH  23  26
HETATM   26  C6  UNK     1      29.203  -7.553  33.368  1.00  0.00     0.074 A 
HETATM   27  C8  UNK     1      29.115  -8.920  33.159  1.00  0.00     0.026 A 
HETATM   28  C11 UNK     1      28.471  -9.715  34.107  1.00  0.00     0.025 A 
HETATM   29  C16 UNK     1      27.923  -9.132  35.250  1.00  0.00     0.034 A 
HETATM   30  C10 UNK     1      28.020  -7.755  35.446  1.00  0.00     0.025 A 
HETATM   31 Cl1  UNK     1      27.130 -10.113  36.420  1.00  0.00    -0.084 Cl
HETATM   32  C7  UNK     1      28.664  -6.960  34.497  1.00  0.00     0.026 A 
ENDBRANCH  23  26
ENDBRANCH   1  23
TORSDOF 5
ENDMDL
MODEL 8
REMARK VINA RESULT:      -8.4      2.943      4.076
REMARK  5 active torsions:
REMARK  status: ('A' for Active; 'I' for Inactive)
REMARK    1  A    between atoms: C6_16  and  S1_2 
REMARK    2  A    between atoms: N1_8  and  S1_2 
REMARK    3  A    between atoms: C5_15  and  N2_9 
REMARK    4  A    between atoms: C5_15  and  N3_10 
REMARK    5  A    between atoms: C9_19  and  N3_10 
ROOT
HETATM    1  N1  UNK     1      32.381  -8.967  30.290  1.00  0.00    -0.203 NA
HETATM    2  N2  UNK     1      34.199  -8.785  32.447  1.00  0.00    -0.356 N 
HETATM    3  C1  UNK     1      33.834  -8.737  30.021  1.00  0.00     0.127 C 
HETATM    4  C2  UNK     1      32.172  -9.803  31.513  1.00  0.00     0.127 C 
HETATM    5  C3  UNK     1      34.468  -8.042  31.221  1.00  0.00     0.140 C 
HETATM    6  C4  UNK     1      32.804  -9.109  32.714  1.00  0.00     0.140 C 
ENDROOT
BRANCH   2   7
HETATM    7  C5  UNK     1      35.184  -9.085  33.329  1.00  0.00     0.174 C 
HETATM    8  S2  UNK     1      36.144 -10.438  33.084  1.00  0.00    -0.041 SA
BRANCH   7   9
HETATM    9  N3  UNK     1      35.353  -8.318  34.452  1.00  0.00    -0.333 N 
HETATM   10  H9  UNK     1      36.215  -8.493  34.964  1.00  0.00     0.168 HD
BRANCH   9  11
HETATM   11  C9  UNK     1      34.543  -7.305  35.020  1.00  0.00     0.036 A 
HETATM   12  C12 UNK     1      33.562  -7.651  35.928  1.00  0.00     0.067 A 
HETATM   13  C15 UNK     1      32.775  -6.636  36.476  1.00  0.00     0.092 A 
HETATM   14  C14 UNK     1      32.948  -5.294  36.137  1.00  0.00     0.004 A 
HETATM   15  O3  UNK     1      31.786  -7.034  37.398  1.00  0.00    -0.275 OA
HETATM   16  C17 UNK     1      33.953  -4.981  35.212  1.00  0.00     0.017 A 
HETATM   17  C18 UNK     1      32.074  -4.293  36.763  1.00  0.00    -0.043 A 
HETATM   18  C13 UNK     1      34.751  -5.988  34.655  1.00  0.00     0.030 A 
HETATM   19  C19 UNK     1      31.142  -4.699  37.636  1.00  0.00     0.090 A 
HETATM   20  C20 UNK     1      32.234  -2.840  36.419  1.00  0.00     0.049 C 
HETATM   21  C21 UNK     1      30.948  -6.112  38.004  1.00  0.00     0.288 A 
HETATM   22  O4  UNK     1      30.085  -6.447  38.808  1.00  0.00    -0.260 OA
ENDBRANCH   9  11
ENDBRANCH   7   9
ENDBRANCH   2   7
BRANCH   1  23
HETATM   23  S1  UNK     1      31.447  -9.420  28.926  1.00  0.00     0.243 S 
HETATM   24  O1  UNK     1      31.265 -10.855  28.934  1.00  0.00    -0.206 OA
HETATM   25  O2  UNK     1      31.964  -8.739  27.758  1.00  0.00    -0.206 OA
BRANCH  23  26
HETATM   26  C6  UNK     1      29.903  -8.676  29.350  1.00  0.00     0.074 A 
HETATM   27  C8  UNK     1      29.871  -7.337  29.701  1.00  0.00     0.026 A 
HETATM   28  C11 UNK     1      28.651  -6.747  30.035  1.00  0.00     0.025 A 
HETATM   29  C16 UNK     1      27.481  -7.507  30.013  1.00  0.00     0.034 A 
HETATM   30  C10 UNK     1      27.530  -8.855  29.657  1.00  0.00     0.025 A 
HETATM   31 Cl1  UNK     1      25.976  -6.781  30.424  1.00  0.00    -0.084 Cl
HETATM   32  C7  UNK     1      28.751  -9.443  29.323  1.00  0.00     0.026 A 
ENDBRANCH  23  26
ENDBRANCH   1  23
TORSDOF 5
ENDMDL
MODEL 9
REMARK VINA RESULT:      -8.4      9.098     11.220
REMARK  5 active torsions:
REMARK  status: ('A' for Active; 'I' for Inactive)
REMARK    1  A    between atoms: C6_16  and  S1_2 
REMARK    2  A    between atoms: N1_8  and  S1_2 
REMARK    3  A    between atoms: C5_15  and  N2_9 
REMARK    4  A    between atoms: C5_15  and  N3_10 
REMARK    5  A    between atoms: C9_19  and  N3_10 
ROOT
HETATM    1  N1  UNK     1      20.139  -4.111  36.168  1.00  0.00    -0.203 NA
HETATM    2  N2  UNK     1      20.046  -6.658  37.391  1.00  0.00    -0.356 N 
HETATM    3  C1  UNK     1      21.050  -4.420  37.313  1.00  0.00     0.127 C 
HETATM    4  C2  UNK     1      19.862  -5.325  35.339  1.00  0.00     0.127 C 
HETATM    5  C3  UNK     1      20.416  -5.495  38.188  1.00  0.00     0.140 C 
HETATM    6  C4  UNK     1      19.227  -6.400  36.213  1.00  0.00     0.140 C 
ENDROOT
BRANCH   2   7
HETATM    7  C5  UNK     1      20.378  -7.917  37.769  1.00  0.00     0.174 C 
HETATM    8  S2  UNK     1      19.377  -9.203  37.374  1.00  0.00    -0.041 SA
BRANCH   7   9
HETATM    9  N3  UNK     1      21.500  -8.129  38.527  1.00  0.00    -0.333 N 
HETATM   10  H9  UNK     1      21.340  -8.150  39.532  1.00  0.00     0.168 HD
BRANCH   9  11
HETATM   11  C9  UNK     1      22.849  -8.344  38.156  1.00  0.00     0.036 A 
HETATM   12  C12 UNK     1      23.855  -7.719  38.867  1.00  0.00     0.067 A 
HETATM   13  C15 UNK     1      25.179  -7.945  38.484  1.00  0.00     0.092 A 
HETATM   14  C14 UNK     1      25.514  -8.776  37.414  1.00  0.00     0.004 A 
HETATM   15  O3  UNK     1      26.173  -7.288  39.236  1.00  0.00    -0.275 OA
HETATM   16  C17 UNK     1      24.467  -9.392  36.717  1.00  0.00     0.017 A 
HETATM   17  C18 UNK     1      26.933  -8.957  37.082  1.00  0.00    -0.043 A 
HETATM   18  C13 UNK     1      23.134  -9.176  37.089  1.00  0.00     0.030 A 
HETATM   19  C19 UNK     1      27.858  -8.320  37.814  1.00  0.00     0.090 A 
HETATM   20  C20 UNK     1      27.327  -9.844  35.937  1.00  0.00     0.049 C 
HETATM   21  C21 UNK     1      27.520  -7.440  38.946  1.00  0.00     0.288 A 
HETATM   22  O4  UNK     1      28.393  -6.874  39.593  1.00  0.00    -0.260 OA
ENDBRANCH   9  11
ENDBRANCH   7   9
ENDBRANCH   2   7
BRANCH   1  23
HETATM   23  S1  UNK     1      20.529  -2.695  35.284  1.00  0.00     0.243 S 
HETATM   24  O1  UNK     1      20.493  -2.997  33.869  1.00  0.00    -0.206 OA
HETATM   25  O2  UNK     1      21.690  -2.073  35.885  1.00  0.00    -0.206 OA
BRANCH  23  26
HETATM   26  C6  UNK     1      19.121  -1.699  35.661  1.00  0.00     0.074 A 
HETATM   27  C8  UNK     1      18.566  -0.908  34.668  1.00  0.00     0.026 A 
HETATM   28  C11 UNK     1      17.452  -0.122  34.965  1.00  0.00     0.025 A 
HETATM   29  C16 UNK     1      16.910  -0.138  36.251  1.00  0.00     0.034 A 
HETATM   30  C10 UNK     1      17.481  -0.940  37.239  1.00  0.00     0.025 A 
HETATM   31 Cl1  UNK     1      15.536   0.831  36.617  1.00  0.00    -0.084 Cl
HETATM   32  C7  UNK     1      18.595  -1.726  36.941  1.00  0.00     0.026 A 
ENDBRANCH  23  26
ENDBRANCH   1  23
TORSDOF 5
ENDMDL
MODEL 10
REMARK VINA RESULT:      -8.4      2.719      3.459
REMARK  5 active torsions:
REMARK  status: ('A' for Active; 'I' for Inactive)
REMARK    1  A    between atoms: C6_16  and  S1_2 
REMARK    2  A    between atoms: N1_8  and  S1_2 
REMARK    3  A    between atoms: C5_15  and  N2_9 
REMARK    4  A    between atoms: C5_15  and  N3_10 
REMARK    5  A    between atoms: C9_19  and  N3_10 
ROOT
HETATM    1  N1  UNK     1      33.358  -8.929  31.488  1.00  0.00    -0.203 NA
HETATM    2  N2  UNK     1      34.619  -8.156  33.898  1.00  0.00    -0.356 N 
HETATM    3  C1  UNK     1      33.513  -7.477  31.814  1.00  0.00     0.127 C 
HETATM    4  C2  UNK     1      34.493  -9.740  32.028  1.00  0.00     0.127 C 
HETATM    5  C3  UNK     1      33.583  -7.303  33.327  1.00  0.00     0.140 C 
HETATM    6  C4  UNK     1      34.562  -9.567  33.541  1.00  0.00     0.140 C 
ENDROOT
BRANCH   2   7
HETATM    7  C5  UNK     1      35.534  -7.676  34.774  1.00  0.00     0.174 C 
HETATM    8  S2  UNK     1      37.104  -7.377  34.267  1.00  0.00    -0.041 SA
BRANCH   7   9
HETATM    9  N3  UNK     1      35.192  -7.494  36.089  1.00  0.00    -0.333 N 
HETATM   10  H9  UNK     1      35.939  -7.680  36.755  1.00  0.00     0.168 HD
BRANCH   9  11
HETATM   11  C9  UNK     1      33.980  -7.075  36.688  1.00  0.00     0.036 A 
HETATM   12  C12 UNK     1      32.969  -7.993  36.887  1.00  0.00     0.067 A 
HETATM   13  C15 UNK     1      31.782  -7.558  37.480  1.00  0.00     0.092 A 
HETATM   14  C14 UNK     1      31.587  -6.233  37.873  1.00  0.00     0.004 A 
HETATM   15  O3  UNK     1      30.777  -8.528  37.665  1.00  0.00    -0.275 OA
HETATM   16  C17 UNK     1      32.635  -5.330  37.654  1.00  0.00     0.017 A 
HETATM   17  C18 UNK     1      30.306  -5.864  38.489  1.00  0.00    -0.043 A 
HETATM   18  C13 UNK     1      33.832  -5.752  37.062  1.00  0.00     0.030 A 
HETATM   19  C19 UNK     1      29.368  -6.806  38.652  1.00  0.00     0.090 A 
HETATM   20  C20 UNK     1      30.065  -4.447  38.922  1.00  0.00     0.049 C 
HETATM   21  C21 UNK     1      29.559  -8.208  38.243  1.00  0.00     0.288 A 
HETATM   22  O4  UNK     1      28.677  -9.045  38.409  1.00  0.00    -0.260 OA
ENDBRANCH   9  11
ENDBRANCH   7   9
ENDBRANCH   2   7
BRANCH   1  23
HETATM   23  S1  UNK     1      32.920  -9.271  29.866  1.00  0.00     0.243 S 
HETATM   24  O1  UNK     1      32.996 -10.700  29.650  1.00  0.00    -0.206 OA
HETATM   25  O2  UNK     1      33.607  -8.345  28.991  1.00  0.00    -0.206 OA
BRANCH  23  26
HETATM   26  C6  UNK     1      31.215  -8.819  29.906  1.00  0.00     0.074 A 
HETATM   27  C8  UNK     1      30.320  -9.614  30.603  1.00  0.00     0.026 A 
HETATM   28  C11 UNK     1      28.972  -9.256  30.637  1.00  0.00     0.025 A 
HETATM   29  C16 UNK     1      28.538  -8.109  29.971  1.00  0.00     0.034 A 
HETATM   30  C10 UNK     1      29.452  -7.319  29.273  1.00  0.00     0.025 A 
HETATM   31 Cl1  UNK     1      26.876  -7.667  30.012  1.00  0.00    -0.084 Cl
HETATM   32  C7  UNK     1      30.800  -7.678  29.241  1.00  0.00     0.026 A 
ENDBRANCH  23  26
ENDBRANCH   1  23
TORSDOF 5
ENDMDL
