MODEL 1
REMARK VINA RESULT:      -9.6      0.000      0.000
REMARK  0 active torsions:
REMARK  status: ('A' for Active; 'I' for Inactive)
ROOT
HETATM    1 Cl1  UNK     1      17.968   1.157  36.650  1.00  0.00    -0.084 Cl
HETATM    2 Cl2  UNK     1      18.294  10.468  33.990  1.00  0.00    -0.084 Cl
HETATM    3  O1  UNK     1      16.960   5.075  32.262  1.00  0.00    -0.309 OA
HETATM    4  O2  UNK     1      18.799   0.528  30.847  1.00  0.00    -0.275 OA
HETATM    5  O3  UNK     1      18.977   1.432  28.756  1.00  0.00    -0.260 OA
HETATM    6  C1  UNK     1      18.387   3.160  31.837  1.00  0.00     0.017 A 
HETATM    7  C2  UNK     1      18.194   4.506  32.217  1.00  0.00     0.088 A 
HETATM    8  C3  UNK     1      18.392   2.002  32.748  1.00  0.00     0.013 A 
HETATM    9  C4  UNK     1      18.481   6.629  32.874  1.00  0.00     0.002 A 
HETATM   10  C5  UNK     1      17.131   6.366  32.661  1.00  0.00     0.086 A 
HETATM   11  C6  UNK     1      19.160   5.417  32.583  1.00  0.00     0.052 A 
HETATM   12  C7  UNK     1      18.597   0.726  32.226  1.00  0.00     0.090 A 
HETATM   13  C8  UNK     1      18.584   2.934  30.527  1.00  0.00     0.097 A 
HETATM   14  C9  UNK     1      18.197   2.121  34.132  1.00  0.00     0.039 A 
HETATM   15  C10 UNK     1      18.856   7.917  33.293  1.00  0.00     0.038 A 
HETATM   16  C11 UNK     1      16.115   7.304  32.836  1.00  0.00     0.040 A 
HETATM   17  C12 UNK     1      18.612  -0.413  33.033  1.00  0.00     0.040 A 
HETATM   18  C13 UNK     1      18.802   1.591  29.959  1.00  0.00     0.289 A 
HETATM   19  C14 UNK     1      18.210   0.989  34.953  1.00  0.00     0.035 A 
HETATM   20  C15 UNK     1      17.856   8.882  33.479  1.00  0.00     0.035 A 
HETATM   21  C16 UNK     1      16.511   8.578  33.253  1.00  0.00     0.026 A 
HETATM   22  C17 UNK     1      18.417  -0.276  34.404  1.00  0.00     0.026 A 
ENDROOT
TORSDOF 0
ENDMDL
MODEL 2
REMARK VINA RESULT:      -8.6      4.074      5.469
REMARK  0 active torsions:
REMARK  status: ('A' for Active; 'I' for Inactive)
ROOT
HETATM    1 Cl1  UNK     1      20.991  -3.359  31.748  1.00  0.00    -0.084 Cl
HETATM    2 Cl2  UNK     1      17.603   1.634  39.328  1.00  0.00    -0.084 Cl
HETATM    3  O1  UNK     1      17.101   0.772  33.596  1.00  0.00    -0.309 OA
HETATM    4  O2  UNK     1      19.217   1.554  29.016  1.00  0.00    -0.275 OA
HETATM    5  O3  UNK     1      18.175   3.589  29.063  1.00  0.00    -0.260 OA
HETATM    6  C1  UNK     1      18.625   1.305  31.785  1.00  0.00     0.017 A 
HETATM    7  C2  UNK     1      18.279   1.287  33.153  1.00  0.00     0.088 A 
HETATM    8  C3  UNK     1      19.349   0.241  31.068  1.00  0.00     0.013 A 
HETATM    9  C4  UNK     1      18.264   1.521  35.382  1.00  0.00     0.002 A 
HETATM   10  C5  UNK     1      17.088   0.913  34.951  1.00  0.00     0.086 A 
HETATM   11  C6  UNK     1      19.028   1.758  34.209  1.00  0.00     0.052 A 
HETATM   12  C7  UNK     1      19.622   0.398  29.710  1.00  0.00     0.090 A 
HETATM   13  C8  UNK     1      18.254   2.394  31.092  1.00  0.00     0.097 A 
HETATM   14  C9  UNK     1      19.783  -0.938  31.691  1.00  0.00     0.039 A 
HETATM   15  C10 UNK     1      18.435   1.751  36.758  1.00  0.00     0.038 A 
HETATM   16  C11 UNK     1      16.058   0.514  35.799  1.00  0.00     0.040 A 
HETATM   17  C12 UNK     1      20.302  -0.571  28.971  1.00  0.00     0.040 A 
HETATM   18  C13 UNK     1      18.534   2.576  29.656  1.00  0.00     0.289 A 
HETATM   19  C14 UNK     1      20.467  -1.918  30.964  1.00  0.00     0.035 A 
HETATM   20  C15 UNK     1      17.415   1.360  37.637  1.00  0.00     0.035 A 
HETATM   21  C16 UNK     1      16.249   0.753  37.164  1.00  0.00     0.026 A 
HETATM   22  C17 UNK     1      20.726  -1.735  29.606  1.00  0.00     0.026 A 
ENDROOT
TORSDOF 0
ENDMDL
MODEL 3
REMARK VINA RESULT:      -8.4     14.767     16.673
REMARK  0 active torsions:
REMARK  status: ('A' for Active; 'I' for Inactive)
ROOT
HETATM    1 Cl1  UNK     1      33.470  -4.446  34.893  1.00  0.00    -0.084 Cl
HETATM    2 Cl2  UNK     1      27.902  -9.611  28.878  1.00  0.00    -0.084 Cl
HETATM    3  O1  UNK     1      27.931  -6.286  33.652  1.00  0.00    -0.309 OA
HETATM    4  O2  UNK     1      29.166  -6.028  38.599  1.00  0.00    -0.275 OA
HETATM    5  O3  UNK     1      27.145  -7.022  38.989  1.00  0.00    -0.260 OA
HETATM    6  C1  UNK     1      28.853  -6.706  35.856  1.00  0.00     0.017 A 
HETATM    7  C2  UNK     1      28.594  -7.092  34.524  1.00  0.00     0.088 A 
HETATM    8  C3  UNK     1      30.050  -5.986  36.325  1.00  0.00     0.013 A 
HETATM    9  C4  UNK     1      28.469  -8.200  32.580  1.00  0.00     0.002 A 
HETATM   10  C5  UNK     1      27.852  -6.958  32.469  1.00  0.00     0.086 A 
HETATM   11  C6  UNK     1      28.946  -8.277  33.915  1.00  0.00     0.052 A 
HETATM   12  C7  UNK     1      30.169  -5.671  37.678  1.00  0.00     0.090 A 
HETATM   13  C8  UNK     1      27.916  -7.031  36.763  1.00  0.00     0.097 A 
HETATM   14  C9  UNK     1      31.089  -5.597  35.467  1.00  0.00     0.039 A 
HETATM   15  C10 UNK     1      28.490  -9.042  31.454  1.00  0.00     0.038 A 
HETATM   16  C11 UNK     1      27.247  -6.486  31.307  1.00  0.00     0.040 A 
HETATM   17  C12 UNK     1      31.276  -4.989  38.188  1.00  0.00     0.040 A 
HETATM   18  C13 UNK     1      28.026  -6.705  38.197  1.00  0.00     0.289 A 
HETATM   19  C14 UNK     1      32.205  -4.915  35.964  1.00  0.00     0.035 A 
HETATM   20  C15 UNK     1      27.889  -8.594  30.269  1.00  0.00     0.035 A 
HETATM   21  C16 UNK     1      27.280  -7.339  30.199  1.00  0.00     0.026 A 
HETATM   22  C17 UNK     1      32.298  -4.612  37.321  1.00  0.00     0.026 A 
ENDROOT
TORSDOF 0
ENDMDL
MODEL 4
REMARK VINA RESULT:      -8.4      6.025     10.529
REMARK  0 active torsions:
REMARK  status: ('A' for Active; 'I' for Inactive)
ROOT
HETATM    1 Cl1  UNK     1      20.812  -2.576  31.377  1.00  0.00    -0.084 Cl
HETATM    2 Cl2  UNK     1      23.101  -7.851  39.174  1.00  0.00    -0.084 Cl
HETATM    3  O1  UNK     1      19.011  -4.514  36.726  1.00  0.00    -0.309 OA
HETATM    4  O2  UNK     1      17.648   0.243  35.475  1.00  0.00    -0.275 OA
HETATM    5  O3  UNK     1      16.868   0.410  37.617  1.00  0.00    -0.260 OA
HETATM    6  C1  UNK     1      18.994  -2.134  36.260  1.00  0.00     0.017 A 
HETATM    7  C2  UNK     1      19.618  -3.297  36.759  1.00  0.00     0.088 A 
HETATM    8  C3  UNK     1      19.089  -1.632  34.878  1.00  0.00     0.013 A 
HETATM    9  C4  UNK     1      21.048  -4.762  37.672  1.00  0.00     0.002 A 
HETATM   10  C5  UNK     1      19.879  -5.406  37.281  1.00  0.00     0.086 A 
HETATM   11  C6  UNK     1      20.868  -3.395  37.329  1.00  0.00     0.052 A 
HETATM   12  C7  UNK     1      18.416  -0.463  34.529  1.00  0.00     0.090 A 
HETATM   13  C8  UNK     1      18.253  -1.434  37.136  1.00  0.00     0.097 A 
HETATM   14  C9  UNK     1      19.834  -2.282  33.883  1.00  0.00     0.039 A 
HETATM   15  C10 UNK     1      22.068  -5.523  38.268  1.00  0.00     0.038 A 
HETATM   16  C11 UNK     1      19.647  -6.771  37.443  1.00  0.00     0.040 A 
HETATM   17  C12 UNK     1      18.463   0.066  33.238  1.00  0.00     0.040 A 
HETATM   18  C13 UNK     1      17.534  -0.196  36.784  1.00  0.00     0.289 A 
HETATM   19  C14 UNK     1      19.892  -1.763  32.585  1.00  0.00     0.035 A 
HETATM   20  C15 UNK     1      21.864  -6.899  38.444  1.00  0.00     0.035 A 
HETATM   21  C16 UNK     1      20.675  -7.509  38.038  1.00  0.00     0.026 A 
HETATM   22  C17 UNK     1      19.208  -0.592  32.263  1.00  0.00     0.026 A 
ENDROOT
TORSDOF 0
ENDMDL
MODEL 5
REMARK VINA RESULT:      -8.4     15.744     18.455
REMARK  0 active torsions:
REMARK  status: ('A' for Active; 'I' for Inactive)
ROOT
HETATM    1 Cl1  UNK     1      33.443  -6.928  35.628  1.00  0.00    -0.084 Cl
HETATM    2 Cl2  UNK     1      25.437  -6.355  30.203  1.00  0.00    -0.084 Cl
HETATM    3  O1  UNK     1      30.837  -8.500  30.494  1.00  0.00    -0.309 OA
HETATM    4  O2  UNK     1      35.820  -7.415  30.255  1.00  0.00    -0.275 OA
HETATM    5  O3  UNK     1      35.587  -7.609  27.989  1.00  0.00    -0.260 OA
HETATM    6  C1  UNK     1      32.983  -7.371  30.437  1.00  0.00     0.017 A 
HETATM    7  C2  UNK     1      31.573  -7.359  30.410  1.00  0.00     0.088 A 
HETATM    8  C3  UNK     1      33.820  -7.275  31.646  1.00  0.00     0.013 A 
HETATM    9  C4  UNK     1      29.417  -6.752  30.316  1.00  0.00     0.002 A 
HETATM   10  C5  UNK     1      29.526  -8.133  30.437  1.00  0.00     0.086 A 
HETATM   11  C6  UNK     1      30.749  -6.260  30.299  1.00  0.00     0.052 A 
HETATM   12  C7  UNK     1      35.208  -7.299  31.517  1.00  0.00     0.090 A 
HETATM   13  C8  UNK     1      33.601  -7.480  29.248  1.00  0.00     0.097 A 
HETATM   14  C9  UNK     1      33.284  -7.158  32.936  1.00  0.00     0.039 A 
HETATM   15  C10 UNK     1      28.134  -6.183  30.242  1.00  0.00     0.038 A 
HETATM   16  C11 UNK     1      28.437  -9.001  30.490  1.00  0.00     0.040 A 
HETATM   17  C12 UNK     1      36.059  -7.214  32.621  1.00  0.00     0.040 A 
HETATM   18  C13 UNK     1      35.067  -7.508  29.095  1.00  0.00     0.289 A 
HETATM   19  C14 UNK     1      34.123  -7.071  34.051  1.00  0.00     0.035 A 
HETATM   20  C15 UNK     1      27.019  -7.031  30.294  1.00  0.00     0.035 A 
HETATM   21  C16 UNK     1      27.171  -8.414  30.415  1.00  0.00     0.026 A 
HETATM   22  C17 UNK     1      35.508  -7.098  33.894  1.00  0.00     0.026 A 
ENDROOT
TORSDOF 0
ENDMDL
MODEL 6
REMARK VINA RESULT:      -8.2     15.876     17.874
REMARK  0 active torsions:
REMARK  status: ('A' for Active; 'I' for Inactive)
ROOT
HETATM    1 Cl1  UNK     1      27.627  -9.836  35.818  1.00  0.00    -0.084 Cl
HETATM    2 Cl2  UNK     1      35.927  -6.217  32.373  1.00  0.00    -0.084 Cl
HETATM    3  O1  UNK     1      32.553  -6.716  37.087  1.00  0.00    -0.309 OA
HETATM    4  O2  UNK     1      28.256  -5.177  39.374  1.00  0.00    -0.275 OA
HETATM    5  O3  UNK     1      29.483  -3.400  40.123  1.00  0.00    -0.260 OA
HETATM    6  C1  UNK     1      30.381  -5.753  37.576  1.00  0.00     0.017 A 
HETATM    7  C2  UNK     1      31.492  -5.945  36.727  1.00  0.00     0.088 A 
HETATM    8  C3  UNK     1      29.171  -6.593  37.611  1.00  0.00     0.013 A 
HETATM    9  C4  UNK     1      32.943  -5.892  35.020  1.00  0.00     0.002 A 
HETATM   10  C5  UNK     1      33.437  -6.685  36.050  1.00  0.00     0.086 A 
HETATM   11  C6  UNK     1      31.682  -5.417  35.469  1.00  0.00     0.052 A 
HETATM   12  C7  UNK     1      28.149  -6.280  38.506  1.00  0.00     0.090 A 
HETATM   13  C8  UNK     1      30.449  -4.709  38.418  1.00  0.00     0.097 A 
HETATM   14  C9  UNK     1      28.993  -7.707  36.777  1.00  0.00     0.039 A 
HETATM   15  C10 UNK     1      33.719  -5.739  33.858  1.00  0.00     0.038 A 
HETATM   16  C11 UNK     1      34.663  -7.345  36.009  1.00  0.00     0.040 A 
HETATM   17  C12 UNK     1      26.978  -7.035  38.591  1.00  0.00     0.040 A 
HETATM   18  C13 UNK     1      29.378  -4.364  39.372  1.00  0.00     0.289 A 
HETATM   19  C14 UNK     1      27.825  -8.472  36.850  1.00  0.00     0.035 A 
HETATM   20  C15 UNK     1      34.958  -6.392  33.788  1.00  0.00     0.035 A 
HETATM   21  C16 UNK     1      35.419  -7.180  34.845  1.00  0.00     0.026 A 
HETATM   22  C17 UNK     1      26.819  -8.137  37.755  1.00  0.00     0.026 A 
ENDROOT
TORSDOF 0
ENDMDL
MODEL 7
REMARK VINA RESULT:      -8.0     24.364     25.703
REMARK  0 active torsions:
REMARK  status: ('A' for Active; 'I' for Inactive)
ROOT
HETATM    1 Cl1  UNK     1       5.937   8.908  12.803  1.00  0.00    -0.084 Cl
HETATM    2 Cl2  UNK     1      13.220   6.770   6.782  1.00  0.00    -0.084 Cl
HETATM    3  O1  UNK     1       7.717   5.536   8.212  1.00  0.00    -0.309 OA
HETATM    4  O2  UNK     1       4.653   3.278  11.614  1.00  0.00    -0.275 OA
HETATM    5  O3  UNK     1       5.057   1.350  10.455  1.00  0.00    -0.260 OA
HETATM    6  C1  UNK     1       6.808   4.463  10.188  1.00  0.00     0.017 A 
HETATM    7  C2  UNK     1       7.892   4.947   9.426  1.00  0.00     0.088 A 
HETATM    8  C3  UNK     1       6.046   5.235  11.186  1.00  0.00     0.013 A 
HETATM    9  C4  UNK     1       9.927   5.514   8.678  1.00  0.00     0.002 A 
HETATM   10  C5  UNK     1       8.953   5.881   7.755  1.00  0.00     0.086 A 
HETATM   11  C6  UNK     1       9.228   4.909   9.757  1.00  0.00     0.052 A 
HETATM   12  C7  UNK     1       4.996   4.620  11.866  1.00  0.00     0.090 A 
HETATM   13  C8  UNK     1       6.454   3.185   9.974  1.00  0.00     0.097 A 
HETATM   14  C9  UNK     1       6.328   6.574  11.489  1.00  0.00     0.039 A 
HETATM   15  C10 UNK     1      11.273   5.789   8.381  1.00  0.00     0.038 A 
HETATM   16  C11 UNK     1       9.224   6.510   6.542  1.00  0.00     0.040 A 
HETATM   17  C12 UNK     1       4.233   5.294  12.821  1.00  0.00     0.040 A 
HETATM   18  C13 UNK     1       5.345   2.520  10.684  1.00  0.00     0.289 A 
HETATM   19  C14 UNK     1       5.574   7.262  12.445  1.00  0.00     0.035 A 
HETATM   20  C15 UNK     1      11.577   6.423   7.167  1.00  0.00     0.035 A 
HETATM   21  C16 UNK     1      10.569   6.776   6.266  1.00  0.00     0.026 A 
HETATM   22  C17 UNK     1       4.528   6.624  13.110  1.00  0.00     0.026 A 
ENDROOT
TORSDOF 0
ENDMDL
MODEL 8
REMARK VINA RESULT:      -8.0     12.612     15.154
REMARK  0 active torsions:
REMARK  status: ('A' for Active; 'I' for Inactive)
ROOT
HETATM    1 Cl1  UNK     1      26.535  -6.660  38.714  1.00  0.00    -0.084 Cl
HETATM    2 Cl2  UNK     1      17.134  -5.948  36.484  1.00  0.00    -0.084 Cl
HETATM    3  O1  UNK     1      21.461  -9.638  37.716  1.00  0.00    -0.309 OA
HETATM    4  O2  UNK     1      25.740 -11.835  36.006  1.00  0.00    -0.275 OA
HETATM    5  O3  UNK     1      24.364 -13.372  35.021  1.00  0.00    -0.260 OA
HETATM    6  C1  UNK     1      23.445 -10.217  36.446  1.00  0.00     0.017 A 
HETATM    7  C2  UNK     1      22.242  -9.498  36.611  1.00  0.00     0.088 A 
HETATM    8  C3  UNK     1      24.779  -9.771  36.881  1.00  0.00     0.013 A 
HETATM    9  C4  UNK     1      20.482  -8.137  36.341  1.00  0.00     0.002 A 
HETATM   10  C5  UNK     1      20.390  -8.811  37.554  1.00  0.00     0.086 A 
HETATM   11  C6  UNK     1      21.686  -8.589  35.738  1.00  0.00     0.052 A 
HETATM   12  C7  UNK     1      25.882 -10.591  36.648  1.00  0.00     0.090 A 
HETATM   13  C8  UNK     1      23.346 -11.410  35.835  1.00  0.00     0.097 A 
HETATM   14  C9  UNK     1      24.999  -8.545  37.528  1.00  0.00     0.039 A 
HETATM   15  C10 UNK     1      19.462  -7.233  35.995  1.00  0.00     0.038 A 
HETATM   16  C11 UNK     1      19.344  -8.651  38.460  1.00  0.00     0.040 A 
HETATM   17  C12 UNK     1      27.173 -10.229  37.037  1.00  0.00     0.040 A 
HETATM   18  C13 UNK     1      24.501 -12.290  35.582  1.00  0.00     0.289 A 
HETATM   19  C14 UNK     1      26.287  -8.169  37.921  1.00  0.00     0.035 A 
HETATM   20  C15 UNK     1      18.396  -7.050  36.888  1.00  0.00     0.035 A 
HETATM   21  C16 UNK     1      18.340  -7.748  38.097  1.00  0.00     0.026 A 
HETATM   22  C17 UNK     1      27.372  -9.009  37.676  1.00  0.00     0.026 A 
ENDROOT
TORSDOF 0
ENDMDL
MODEL 9
REMARK VINA RESULT:      -7.9     15.756     17.079
REMARK  0 active torsions:
REMARK  status: ('A' for Active; 'I' for Inactive)
ROOT
HETATM    1 Cl1  UNK     1      27.141  -6.856  38.584  1.00  0.00    -0.084 Cl
HETATM    2 Cl2  UNK     1      27.703  -9.297  29.226  1.00  0.00    -0.084 Cl
HETATM    3  O1  UNK     1      30.767  -7.799  33.939  1.00  0.00    -0.309 OA
HETATM    4  O2  UNK     1      32.071  -3.994  37.082  1.00  0.00    -0.275 OA
HETATM    5  O3  UNK     1      33.696  -3.503  35.552  1.00  0.00    -0.260 OA
HETATM    6  C1  UNK     1      30.891  -5.690  35.130  1.00  0.00     0.017 A 
HETATM    7  C2  UNK     1      30.392  -6.500  34.088  1.00  0.00     0.088 A 
HETATM    8  C3  UNK     1      30.285  -5.537  36.465  1.00  0.00     0.013 A 
HETATM    9  C4  UNK     1      29.306  -7.288  32.293  1.00  0.00     0.002 A 
HETATM   10  C5  UNK     1      30.108  -8.281  32.848  1.00  0.00     0.086 A 
HETATM   11  C6  UNK     1      29.498  -6.139  33.105  1.00  0.00     0.052 A 
HETATM   12  C7  UNK     1      30.892  -4.697  37.397  1.00  0.00     0.090 A 
HETATM   13  C8  UNK     1      32.015  -5.003  34.865  1.00  0.00     0.097 A 
HETATM   14  C9  UNK     1      29.114  -6.205  36.851  1.00  0.00     0.039 A 
HETATM   15  C10 UNK     1      28.545  -7.599  31.153  1.00  0.00     0.038 A 
HETATM   16  C11 UNK     1      30.210  -9.576  32.344  1.00  0.00     0.040 A 
HETATM   17  C12 UNK     1      30.372  -4.509  38.679  1.00  0.00     0.040 A 
HETATM   18  C13 UNK     1      32.670  -4.110  35.838  1.00  0.00     0.289 A 
HETATM   19  C14 UNK     1      28.580  -6.026  38.131  1.00  0.00     0.035 A 
HETATM   20  C15 UNK     1      28.626  -8.895  30.624  1.00  0.00     0.035 A 
HETATM   21  C16 UNK     1      29.444  -9.863  31.210  1.00  0.00     0.026 A 
HETATM   22  C17 UNK     1      29.208  -5.180  39.043  1.00  0.00     0.026 A 
ENDROOT
TORSDOF 0
ENDMDL
MODEL 10
REMARK VINA RESULT:      -7.8      4.788      7.337
REMARK  0 active torsions:
REMARK  status: ('A' for Active; 'I' for Inactive)
ROOT
HETATM    1 Cl1  UNK     1      20.562   9.428  34.668  1.00  0.00    -0.084 Cl
HETATM    2 Cl2  UNK     1      13.678  15.970  36.586  1.00  0.00    -0.084 Cl
HETATM    3  O1  UNK     1      14.746  10.326  35.659  1.00  0.00    -0.309 OA
HETATM    4  O2  UNK     1      15.920   6.776  32.183  1.00  0.00    -0.275 OA
HETATM    5  O3  UNK     1      13.677   6.688  31.753  1.00  0.00    -0.260 OA
HETATM    6  C1  UNK     1      15.440   9.167  33.644  1.00  0.00     0.017 A 
HETATM    7  C2  UNK     1      15.087  10.341  34.342  1.00  0.00     0.088 A 
HETATM    8  C3  UNK     1      16.801   8.618  33.518  1.00  0.00     0.013 A 
HETATM    9  C4  UNK     1      14.628  12.458  34.919  1.00  0.00     0.002 A 
HETATM   10  C5  UNK     1      14.465  11.612  36.012  1.00  0.00     0.086 A 
HETATM   11  C6  UNK     1      15.030  11.624  33.843  1.00  0.00     0.052 A 
HETATM   12  C7  UNK     1      16.999   7.444  32.793  1.00  0.00     0.090 A 
HETATM   13  C8  UNK     1      14.434   8.504  33.049  1.00  0.00     0.097 A 
HETATM   14  C9  UNK     1      17.924   9.227  34.097  1.00  0.00     0.039 A 
HETATM   15  C10 UNK     1      14.382  13.831  35.091  1.00  0.00     0.038 A 
HETATM   16  C11 UNK     1      14.071  12.038  37.279  1.00  0.00     0.040 A 
HETATM   17  C12 UNK     1      18.262   6.871  32.635  1.00  0.00     0.040 A 
HETATM   18  C13 UNK     1      14.625   7.260  32.279  1.00  0.00     0.289 A 
HETATM   19  C14 UNK     1      19.196   8.665  33.947  1.00  0.00     0.035 A 
HETATM   20  C15 UNK     1      13.985  14.290  36.355  1.00  0.00     0.035 A 
HETATM   21  C16 UNK     1      13.833  13.408  37.427  1.00  0.00     0.026 A 
HETATM   22  C17 UNK     1      19.365   7.489  33.218  1.00  0.00     0.026 A 
ENDROOT
TORSDOF 0
ENDMDL
