MODEL 1
REMARK VINA RESULT:      -7.7      0.000      0.000
REMARK  5 active torsions:
REMARK  status: ('A' for Active; 'I' for Inactive)
REMARK    1  A    between atoms: C13_17  and  O3_3 
REMARK    2  A    between atoms: C15_19  and  O3_3 
REMARK    3  A    between atoms: C1_5  and  C2_6 
REMARK    4  A    between atoms: C2_6  and  C3_7 
REMARK    5  A    between atoms: C15_19  and  C16_20 
ROOT
HETATM    1  O1  UNK     1      18.286   2.475  33.268  1.00  0.00    -0.274 OA
HETATM    2  O2  UNK     1      18.396   0.310  33.942  1.00  0.00    -0.259 OA
HETATM    3  C3  UNK     1      18.816   0.719  31.633  1.00  0.00     0.025 A 
HETATM    4  C4  UNK     1      18.879   1.625  30.633  1.00  0.00    -0.037 A 
HETATM    5  C5  UNK     1      18.674   3.056  30.938  1.00  0.00     0.005 A 
HETATM    6  C8  UNK     1      18.383   3.431  32.246  1.00  0.00     0.093 A 
HETATM    7  C9  UNK     1      18.490   1.126  33.030  1.00  0.00     0.295 A 
HETATM    8  C10 UNK     1      19.134   1.264  29.191  1.00  0.00     0.050 C 
HETATM    9  C11 UNK     1      18.764   4.082  29.984  1.00  0.00     0.017 A 
HETATM   10  C12 UNK     1      18.175   4.762  32.620  1.00  0.00     0.075 A 
HETATM   11  C13 UNK     1      18.264   5.761  31.657  1.00  0.00     0.082 A 
HETATM   12  C14 UNK     1      18.560   5.421  30.340  1.00  0.00     0.038 A 
ENDROOT
BRANCH  11  13
HETATM   13  O3  UNK     1      18.065   7.061  32.000  1.00  0.00    -0.279 OA
BRANCH  13  14
HETATM   14  C15 UNK     1      16.793   7.563  31.662  1.00  0.00     0.263 C 
HETATM   15  O4  UNK     1      16.546   8.253  30.683  1.00  0.00    -0.265 OA
BRANCH  14  16
HETATM   16  C16 UNK     1      15.784   7.115  32.695  1.00  0.00     0.107 C 
HETATM   17  C17 UNK     1      14.370   7.100  32.143  1.00  0.00     0.015 C 
ENDBRANCH  14  16
ENDBRANCH  13  14
ENDBRANCH  11  13
BRANCH   3  18
HETATM   18  C2  UNK     1      19.067  -0.759  31.472  1.00  0.00     0.049 C 
BRANCH  18  19
HETATM   19  C1  UNK     1      20.546  -1.085  31.241  1.00  0.00    -0.018 C 
HETATM   20  C6  UNK     1      20.807  -1.635  29.836  1.00  0.00     0.010 C 
HETATM   21  C7  UNK     1      21.013  -2.098  32.288  1.00  0.00     0.010 C 
ENDBRANCH  18  19
ENDBRANCH   3  18
TORSDOF 5
ENDMDL
MODEL 2
REMARK VINA RESULT:      -7.5      1.555      2.303
REMARK  5 active torsions:
REMARK  status: ('A' for Active; 'I' for Inactive)
REMARK    1  A    between atoms: C13_17  and  O3_3 
REMARK    2  A    between atoms: C15_19  and  O3_3 
REMARK    3  A    between atoms: C1_5  and  C2_6 
REMARK    4  A    between atoms: C2_6  and  C3_7 
REMARK    5  A    between atoms: C15_19  and  C16_20 
ROOT
HETATM    1  O1  UNK     1      18.630   3.507  29.888  1.00  0.00    -0.274 OA
HETATM    2  O2  UNK     1      19.027   1.649  28.646  1.00  0.00    -0.259 OA
HETATM    3  C3  UNK     1      18.784   1.317  30.992  1.00  0.00     0.025 A 
HETATM    4  C4  UNK     1      18.597   1.881  32.206  1.00  0.00    -0.037 A 
HETATM    5  C5  UNK     1      18.374   3.338  32.302  1.00  0.00     0.005 A 
HETATM    6  C8  UNK     1      18.400   4.101  31.139  1.00  0.00     0.093 A 
HETATM    7  C9  UNK     1      18.824   2.143  29.752  1.00  0.00     0.295 A 
HETATM    8  C10 UNK     1      18.617   1.107  33.500  1.00  0.00     0.050 C 
HETATM    9  C11 UNK     1      18.125   4.015  33.505  1.00  0.00     0.017 A 
HETATM   10  C12 UNK     1      18.199   5.484  31.141  1.00  0.00     0.075 A 
HETATM   11  C13 UNK     1      17.959   6.135  32.345  1.00  0.00     0.082 A 
HETATM   12  C14 UNK     1      17.920   5.401  33.527  1.00  0.00     0.038 A 
ENDROOT
BRANCH  11  13
HETATM   13  O3  UNK     1      17.761   7.480  32.369  1.00  0.00    -0.279 OA
BRANCH  13  14
HETATM   14  C15 UNK     1      16.517   7.893  31.852  1.00  0.00     0.263 C 
HETATM   15  O4  UNK     1      16.350   8.438  30.770  1.00  0.00    -0.265 OA
BRANCH  14  16
HETATM   16  C16 UNK     1      15.424   7.555  32.841  1.00  0.00     0.107 C 
HETATM   17  C17 UNK     1      14.131   7.162  32.150  1.00  0.00     0.015 C 
ENDBRANCH  14  16
ENDBRANCH  13  14
ENDBRANCH  11  13
BRANCH   3  18
HETATM   18  C2  UNK     1      18.959  -0.160  30.747  1.00  0.00     0.049 C 
BRANCH  18  19
HETATM   19  C1  UNK     1      20.432  -0.579  30.694  1.00  0.00    -0.018 C 
HETATM   20  C6  UNK     1      20.867  -0.996  29.286  1.00  0.00     0.010 C 
HETATM   21  C7  UNK     1      20.668  -1.732  31.671  1.00  0.00     0.010 C 
ENDBRANCH  18  19
ENDBRANCH   3  18
TORSDOF 5
ENDMDL
MODEL 3
REMARK VINA RESULT:      -7.5      1.925      2.413
REMARK  5 active torsions:
REMARK  status: ('A' for Active; 'I' for Inactive)
REMARK    1  A    between atoms: C13_17  and  O3_3 
REMARK    2  A    between atoms: C15_19  and  O3_3 
REMARK    3  A    between atoms: C1_5  and  C2_6 
REMARK    4  A    between atoms: C2_6  and  C3_7 
REMARK    5  A    between atoms: C15_19  and  C16_20 
ROOT
HETATM    1  O1  UNK     1      18.238   2.581  33.643  1.00  0.00    -0.274 OA
HETATM    2  O2  UNK     1      18.485   0.332  33.462  1.00  0.00    -0.259 OA
HETATM    3  C3  UNK     1      18.638   1.576  31.436  1.00  0.00     0.025 A 
HETATM    4  C4  UNK     1      18.565   2.785  30.839  1.00  0.00    -0.037 A 
HETATM    5  C5  UNK     1      18.352   3.991  31.665  1.00  0.00     0.005 A 
HETATM    6  C8  UNK     1      18.194   3.847  33.040  1.00  0.00     0.093 A 
HETATM    7  C9  UNK     1      18.454   1.427  32.909  1.00  0.00     0.295 A 
HETATM    8  C10 UNK     1      18.671   2.989  29.348  1.00  0.00     0.050 C 
HETATM    9  C11 UNK     1      18.307   5.296  31.150  1.00  0.00     0.017 A 
HETATM   10  C12 UNK     1      17.989   4.934  33.893  1.00  0.00     0.075 A 
HETATM   11  C13 UNK     1      17.943   6.218  33.360  1.00  0.00     0.082 A 
HETATM   12  C14 UNK     1      18.103   6.399  31.990  1.00  0.00     0.038 A 
ENDROOT
BRANCH  11  13
HETATM   13  O3  UNK     1      17.744   7.289  34.173  1.00  0.00    -0.279 OA
BRANCH  13  14
HETATM   14  C15 UNK     1      18.485   8.433  33.817  1.00  0.00     0.263 C 
HETATM   15  O4  UNK     1      18.037   9.406  33.226  1.00  0.00    -0.265 OA
BRANCH  14  16
HETATM   16  C16 UNK     1      19.914   8.273  34.282  1.00  0.00     0.107 C 
HETATM   17  C17 UNK     1      20.597   9.611  34.500  1.00  0.00     0.015 C 
ENDBRANCH  14  16
ENDBRANCH  13  14
ENDBRANCH  11  13
BRANCH   3  18
HETATM   18  C2  UNK     1      18.913   0.278  30.723  1.00  0.00     0.049 C 
BRANCH  18  19
HETATM   19  C1  UNK     1      20.411   0.002  30.555  1.00  0.00    -0.018 C 
HETATM   20  C6  UNK     1      20.794  -0.266  29.097  1.00  0.00     0.010 C 
HETATM   21  C7  UNK     1      20.808  -1.194  31.423  1.00  0.00     0.010 C 
ENDBRANCH  18  19
ENDBRANCH   3  18
TORSDOF 5
ENDMDL
MODEL 4
REMARK VINA RESULT:      -7.2      1.724      7.107
REMARK  5 active torsions:
REMARK  status: ('A' for Active; 'I' for Inactive)
REMARK    1  A    between atoms: C13_17  and  O3_3 
REMARK    2  A    between atoms: C15_19  and  O3_3 
REMARK    3  A    between atoms: C1_5  and  C2_6 
REMARK    4  A    between atoms: C2_6  and  C3_7 
REMARK    5  A    between atoms: C15_19  and  C16_20 
ROOT
HETATM    1  O1  UNK     1      18.053   4.038  33.554  1.00  0.00    -0.274 OA
HETATM    2  O2  UNK     1      17.648   5.961  34.690  1.00  0.00    -0.259 OA
HETATM    3  C3  UNK     1      18.144   6.190  32.371  1.00  0.00     0.025 A 
HETATM    4  C4  UNK     1      18.485   5.577  31.217  1.00  0.00    -0.037 A 
HETATM    5  C5  UNK     1      18.590   4.104  31.182  1.00  0.00     0.005 A 
HETATM    6  C8  UNK     1      18.372   3.385  32.353  1.00  0.00     0.093 A 
HETATM    7  C9  UNK     1      17.925   5.415  33.626  1.00  0.00     0.295 A 
HETATM    8  C10 UNK     1      18.787   6.314  29.936  1.00  0.00     0.050 C 
HETATM    9  C11 UNK     1      18.892   3.367  30.026  1.00  0.00     0.017 A 
HETATM   10  C12 UNK     1      18.453   1.991  32.407  1.00  0.00     0.075 A 
HETATM   11  C13 UNK     1      18.758   1.282  31.251  1.00  0.00     0.082 A 
HETATM   12  C14 UNK     1      18.976   1.969  30.061  1.00  0.00     0.038 A 
ENDROOT
BRANCH  11  13
HETATM   13  O3  UNK     1      18.840  -0.075  31.283  1.00  0.00    -0.279 OA
BRANCH  13  14
HETATM   14  C15 UNK     1      20.095  -0.589  30.899  1.00  0.00     0.263 C 
HETATM   15  O4  UNK     1      21.167  -0.271  31.394  1.00  0.00    -0.265 OA
BRANCH  14  16
HETATM   16  C16 UNK     1      19.907  -1.594  29.786  1.00  0.00     0.107 C 
HETATM   17  C17 UNK     1      19.930  -0.939  28.417  1.00  0.00     0.015 C 
ENDBRANCH  14  16
ENDBRANCH  13  14
ENDBRANCH  11  13
BRANCH   3  18
HETATM   18  C2  UNK     1      17.940   7.675  32.530  1.00  0.00     0.049 C 
BRANCH  18  19
HETATM   19  C1  UNK     1      16.485   8.042  32.840  1.00  0.00    -0.018 C 
HETATM   20  C6  UNK     1      15.627   8.137  31.575  1.00  0.00     0.010 C 
HETATM   21  C7  UNK     1      16.445   9.372  33.594  1.00  0.00     0.010 C 
ENDBRANCH  18  19
ENDBRANCH   3  18
TORSDOF 5
ENDMDL
MODEL 5
REMARK VINA RESULT:      -7.2      2.691      8.026
REMARK  5 active torsions:
REMARK  status: ('A' for Active; 'I' for Inactive)
REMARK    1  A    between atoms: C13_17  and  O3_3 
REMARK    2  A    between atoms: C15_19  and  O3_3 
REMARK    3  A    between atoms: C1_5  and  C2_6 
REMARK    4  A    between atoms: C2_6  and  C3_7 
REMARK    5  A    between atoms: C15_19  and  C16_20 
ROOT
HETATM    1  O1  UNK     1      15.920   6.610  32.658  1.00  0.00    -0.274 OA
HETATM    2  O2  UNK     1      14.375   7.908  33.697  1.00  0.00    -0.259 OA
HETATM    3  C3  UNK     1      16.652   8.552  33.974  1.00  0.00     0.025 A 
HETATM    4  C4  UNK     1      17.950   8.275  33.719  1.00  0.00    -0.037 A 
HETATM    5  C5  UNK     1      18.289   7.125  32.857  1.00  0.00     0.005 A 
HETATM    6  C8  UNK     1      17.262   6.330  32.357  1.00  0.00     0.093 A 
HETATM    7  C9  UNK     1      15.557   7.689  33.446  1.00  0.00     0.295 A 
HETATM    8  C10 UNK     1      19.101   9.069  34.283  1.00  0.00     0.050 C 
HETATM    9  C11 UNK     1      19.600   6.778  32.493  1.00  0.00     0.017 A 
HETATM   10  C12 UNK     1      17.496   5.225  31.535  1.00  0.00     0.075 A 
HETATM   11  C13 UNK     1      18.803   4.897  31.191  1.00  0.00     0.082 A 
HETATM   12  C14 UNK     1      19.854   5.674  31.669  1.00  0.00     0.038 A 
ENDROOT
BRANCH  11  13
HETATM   13  O3  UNK     1      19.051   3.826  30.393  1.00  0.00    -0.279 OA
BRANCH  13  14
HETATM   14  C15 UNK     1      18.530   2.608  30.875  1.00  0.00     0.263 C 
HETATM   15  O4  UNK     1      17.939   2.467  31.936  1.00  0.00    -0.265 OA
BRANCH  14  16
HETATM   16  C16 UNK     1      18.814   1.509  29.877  1.00  0.00     0.107 C 
HETATM   17  C17 UNK     1      17.962   1.639  28.627  1.00  0.00     0.015 C 
ENDBRANCH  14  16
ENDBRANCH  13  14
ENDBRANCH  11  13
BRANCH   3  18
HETATM   18  C2  UNK     1      16.165   9.727  34.782  1.00  0.00     0.049 C 
BRANCH  18  19
HETATM   19  C1  UNK     1      16.017  11.000  33.943  1.00  0.00    -0.018 C 
HETATM   20  C6  UNK     1      16.925  12.130  34.435  1.00  0.00     0.010 C 
HETATM   21  C7  UNK     1      14.558  11.461  33.971  1.00  0.00     0.010 C 
ENDBRANCH  18  19
ENDBRANCH   3  18
TORSDOF 5
ENDMDL
MODEL 6
REMARK VINA RESULT:      -7.1     14.581     16.556
REMARK  5 active torsions:
REMARK  status: ('A' for Active; 'I' for Inactive)
REMARK    1  A    between atoms: C13_17  and  O3_3 
REMARK    2  A    between atoms: C15_19  and  O3_3 
REMARK    3  A    between atoms: C1_5  and  C2_6 
REMARK    4  A    between atoms: C2_6  and  C3_7 
REMARK    5  A    between atoms: C15_19  and  C16_20 
ROOT
HETATM    1  O1  UNK     1      28.574  -5.298  39.297  1.00  0.00    -0.274 OA
HETATM    2  O2  UNK     1      30.067  -3.589  39.264  1.00  0.00    -0.259 OA
HETATM    3  C3  UNK     1      30.859  -5.696  38.483  1.00  0.00     0.025 A 
HETATM    4  C4  UNK     1      30.590  -7.003  38.273  1.00  0.00    -0.037 A 
HETATM    5  C5  UNK     1      29.232  -7.516  38.546  1.00  0.00     0.005 A 
HETATM    6  C8  UNK     1      28.271  -6.646  39.051  1.00  0.00     0.093 A 
HETATM    7  C9  UNK     1      29.828  -4.771  39.037  1.00  0.00     0.295 A 
HETATM    8  C10 UNK     1      31.611  -7.999  37.783  1.00  0.00     0.050 C 
HETATM    9  C11 UNK     1      28.836  -8.843  38.319  1.00  0.00     0.017 A 
HETATM   10  C12 UNK     1      26.964  -7.050  39.336  1.00  0.00     0.075 A 
HETATM   11  C13 UNK     1      26.595  -8.371  39.108  1.00  0.00     0.082 A 
HETATM   12  C14 UNK     1      27.530  -9.267  38.598  1.00  0.00     0.038 A 
ENDROOT
BRANCH  11  13
HETATM   13  O3  UNK     1      25.329  -8.783  39.379  1.00  0.00    -0.279 OA
BRANCH  13  14
HETATM   14  C15 UNK     1      24.345  -8.234  38.533  1.00  0.00     0.263 C 
HETATM   15  O4  UNK     1      24.295  -8.385  37.320  1.00  0.00    -0.265 OA
BRANCH  14  16
HETATM   16  C16 UNK     1      23.364  -7.432  39.357  1.00  0.00     0.107 C 
HETATM   17  C17 UNK     1      22.172  -8.265  39.793  1.00  0.00     0.015 C 
ENDBRANCH  14  16
ENDBRANCH  13  14
ENDBRANCH  11  13
BRANCH   3  18
HETATM   18  C2  UNK     1      32.178  -5.030  38.188  1.00  0.00     0.049 C 
BRANCH  18  19
HETATM   19  C1  UNK     1      32.348  -4.689  36.703  1.00  0.00    -0.018 C 
HETATM   20  C6  UNK     1      33.724  -5.094  36.168  1.00  0.00     0.010 C 
HETATM   21  C7  UNK     1      32.135  -3.187  36.498  1.00  0.00     0.010 C 
ENDBRANCH  18  19
ENDBRANCH   3  18
TORSDOF 5
ENDMDL
MODEL 7
REMARK VINA RESULT:      -7.0      2.488      3.996
REMARK  5 active torsions:
REMARK  status: ('A' for Active; 'I' for Inactive)
REMARK    1  A    between atoms: C13_17  and  O3_3 
REMARK    2  A    between atoms: C15_19  and  O3_3 
REMARK    3  A    between atoms: C1_5  and  C2_6 
REMARK    4  A    between atoms: C2_6  and  C3_7 
REMARK    5  A    between atoms: C15_19  and  C16_20 
ROOT
HETATM    1  O1  UNK     1      18.412   0.924  32.038  1.00  0.00    -0.274 OA
HETATM    2  O2  UNK     1      18.431  -1.319  32.389  1.00  0.00    -0.259 OA
HETATM    3  C3  UNK     1      18.237   0.051  34.329  1.00  0.00     0.025 A 
HETATM    4  C4  UNK     1      18.202   1.302  34.836  1.00  0.00    -0.037 A 
HETATM    5  C5  UNK     1      18.235   2.458  33.918  1.00  0.00     0.005 A 
HETATM    6  C8  UNK     1      18.341   2.229  32.549  1.00  0.00     0.093 A 
HETATM    7  C9  UNK     1      18.364  -0.188  32.862  1.00  0.00     0.295 A 
HETATM    8  C10 UNK     1      18.146   1.605  36.313  1.00  0.00     0.050 C 
HETATM    9  C11 UNK     1      18.157   3.795  34.337  1.00  0.00     0.017 A 
HETATM   10  C12 UNK     1      18.379   3.265  31.612  1.00  0.00     0.075 A 
HETATM   11  C13 UNK     1      18.305   4.582  32.051  1.00  0.00     0.082 A 
HETATM   12  C14 UNK     1      18.193   4.847  33.412  1.00  0.00     0.038 A 
ENDROOT
BRANCH  11  13
HETATM   13  O3  UNK     1      18.340   5.604  31.155  1.00  0.00    -0.279 OA
BRANCH  13  14
HETATM   14  C15 UNK     1      19.638   6.047  30.830  1.00  0.00     0.263 C 
HETATM   15  O4  UNK     1      20.089   6.132  29.697  1.00  0.00    -0.265 OA
BRANCH  14  16
HETATM   16  C16 UNK     1      20.380   6.402  32.098  1.00  0.00     0.107 C 
HETATM   17  C17 UNK     1      21.829   5.950  32.056  1.00  0.00     0.015 C 
ENDBRANCH  14  16
ENDBRANCH  13  14
ENDBRANCH  11  13
BRANCH   3  18
HETATM   18  C2  UNK     1      18.146  -1.213  35.146  1.00  0.00     0.049 C 
BRANCH  18  19
HETATM   19  C1  UNK     1      19.481  -1.592  35.796  1.00  0.00    -0.018 C 
HETATM   20  C6  UNK     1      20.313  -2.526  34.914  1.00  0.00     0.010 C 
HETATM   21  C7  UNK     1      19.217  -2.256  37.149  1.00  0.00     0.010 C 
ENDBRANCH  18  19
ENDBRANCH   3  18
TORSDOF 5
ENDMDL
MODEL 8
REMARK VINA RESULT:      -7.0      2.551      3.670
REMARK  5 active torsions:
REMARK  status: ('A' for Active; 'I' for Inactive)
REMARK    1  A    between atoms: C13_17  and  O3_3 
REMARK    2  A    between atoms: C15_19  and  O3_3 
REMARK    3  A    between atoms: C1_5  and  C2_6 
REMARK    4  A    between atoms: C2_6  and  C3_7 
REMARK    5  A    between atoms: C15_19  and  C16_20 
ROOT
HETATM    1  O1  UNK     1      18.226   2.378  35.673  1.00  0.00    -0.274 OA
HETATM    2  O2  UNK     1      18.211   0.884  37.382  1.00  0.00    -0.259 OA
HETATM    3  C3  UNK     1      18.307  -0.029  35.183  1.00  0.00     0.025 A 
HETATM    4  C4  UNK     1      18.308   0.210  33.854  1.00  0.00    -0.037 A 
HETATM    5  C5  UNK     1      18.305   1.605  33.368  1.00  0.00     0.005 A 
HETATM    6  C8  UNK     1      18.262   2.641  34.295  1.00  0.00     0.093 A 
HETATM    7  C9  UNK     1      18.247   1.086  36.171  1.00  0.00     0.295 A 
HETATM    8  C10 UNK     1      18.296  -0.877  32.808  1.00  0.00     0.050 C 
HETATM    9  C11 UNK     1      18.352   1.963  32.011  1.00  0.00     0.017 A 
HETATM   10  C12 UNK     1      18.256   3.988  33.921  1.00  0.00     0.075 A 
HETATM   11  C13 UNK     1      18.298   4.319  32.571  1.00  0.00     0.082 A 
HETATM   12  C14 UNK     1      18.348   3.307  31.617  1.00  0.00     0.038 A 
ENDROOT
BRANCH  11  13
HETATM   13  O3  UNK     1      18.293   5.622  32.186  1.00  0.00    -0.279 OA
BRANCH  13  14
HETATM   14  C15 UNK     1      19.523   6.081  31.673  1.00  0.00     0.263 C 
HETATM   15  O4  UNK     1      19.817   6.125  30.487  1.00  0.00    -0.265 OA
BRANCH  14  16
HETATM   16  C16 UNK     1      20.415   6.511  32.814  1.00  0.00     0.107 C 
HETATM   17  C17 UNK     1      19.735   7.520  33.722  1.00  0.00     0.015 C 
ENDBRANCH  14  16
ENDBRANCH  13  14
ENDBRANCH  11  13
BRANCH   3  18
HETATM   18  C2  UNK     1      18.373  -1.397  35.812  1.00  0.00     0.049 C 
BRANCH  18  19
HETATM   19  C1  UNK     1      19.811  -1.870  36.048  1.00  0.00    -0.018 C 
HETATM   20  C6  UNK     1      20.383  -2.617  34.840  1.00  0.00     0.010 C 
HETATM   21  C7  UNK     1      19.854  -2.772  37.283  1.00  0.00     0.010 C 
ENDBRANCH  18  19
ENDBRANCH   3  18
TORSDOF 5
ENDMDL
MODEL 9
REMARK VINA RESULT:      -7.0     22.500     24.614
REMARK  5 active torsions:
REMARK  status: ('A' for Active; 'I' for Inactive)
REMARK    1  A    between atoms: C13_17  and  O3_3 
REMARK    2  A    between atoms: C15_19  and  O3_3 
REMARK    3  A    between atoms: C1_5  and  C2_6 
REMARK    4  A    between atoms: C2_6  and  C3_7 
REMARK    5  A    between atoms: C15_19  and  C16_20 
ROOT
HETATM    1  O1  UNK     1      10.157   5.249   8.182  1.00  0.00    -0.274 OA
HETATM    2  O2  UNK     1       7.902   4.990   8.147  1.00  0.00    -0.259 OA
HETATM    3  C3  UNK     1       8.710   7.099   8.905  1.00  0.00     0.025 A 
HETATM    4  C4  UNK     1       9.783   7.865   9.197  1.00  0.00    -0.037 A 
HETATM    5  C5  UNK     1      11.140   7.339   8.945  1.00  0.00     0.005 A 
HETATM    6  C8  UNK     1      11.280   6.047   8.447  1.00  0.00     0.093 A 
HETATM    7  C9  UNK     1       8.867   5.710   8.385  1.00  0.00     0.295 A 
HETATM    8  C10 UNK     1       9.686   9.248   9.791  1.00  0.00     0.050 C 
HETATM    9  C11 UNK     1      12.318   8.069   9.169  1.00  0.00     0.017 A 
HETATM   10  C12 UNK     1      12.526   5.473   8.181  1.00  0.00     0.075 A 
HETATM   11  C13 UNK     1      13.680   6.212   8.415  1.00  0.00     0.082 A 
HETATM   12  C14 UNK     1      13.576   7.510   8.907  1.00  0.00     0.038 A 
ENDROOT
BRANCH  11  13
HETATM   13  O3  UNK     1      14.901   5.672   8.163  1.00  0.00    -0.279 OA
BRANCH  13  14
HETATM   14  C15 UNK     1      15.626   5.312   9.317  1.00  0.00     0.263 C 
HETATM   15  O4  UNK     1      15.276   4.474  10.135  1.00  0.00    -0.265 OA
BRANCH  14  16
HETATM   16  C16 UNK     1      16.902   6.121   9.382  1.00  0.00     0.107 C 
HETATM   17  C17 UNK     1      16.841   7.197  10.451  1.00  0.00     0.015 C 
ENDBRANCH  14  16
ENDBRANCH  13  14
ENDBRANCH  11  13
BRANCH   3  18
HETATM   18  C2  UNK     1       7.274   7.534   9.053  1.00  0.00     0.049 C 
BRANCH  18  19
HETATM   19  C1  UNK     1       6.833   7.626  10.517  1.00  0.00    -0.018 C 
HETATM   20  C6  UNK     1       6.754   6.252  11.188  1.00  0.00     0.010 C 
HETATM   21  C7  UNK     1       5.471   8.319  10.596  1.00  0.00     0.010 C 
ENDBRANCH  18  19
ENDBRANCH   3  18
TORSDOF 5
ENDMDL
MODEL 10
REMARK VINA RESULT:      -7.0     22.591     24.105
REMARK  5 active torsions:
REMARK  status: ('A' for Active; 'I' for Inactive)
REMARK    1  A    between atoms: C13_17  and  O3_3 
REMARK    2  A    between atoms: C15_19  and  O3_3 
REMARK    3  A    between atoms: C1_5  and  C2_6 
REMARK    4  A    between atoms: C2_6  and  C3_7 
REMARK    5  A    between atoms: C15_19  and  C16_20 
ROOT
HETATM    1  O1  UNK     1      10.476   5.070   8.510  1.00  0.00    -0.274 OA
HETATM    2  O2  UNK     1      12.396   3.949   8.049  1.00  0.00    -0.259 OA
HETATM    3  C3  UNK     1      12.624   6.264   8.565  1.00  0.00     0.025 A 
HETATM    4  C4  UNK     1      12.005   7.427   8.864  1.00  0.00    -0.037 A 
HETATM    5  C5  UNK     1      10.539   7.443   9.041  1.00  0.00     0.005 A 
HETATM    6  C8  UNK     1       9.824   6.263   8.856  1.00  0.00     0.093 A 
HETATM    7  C9  UNK     1      11.851   5.006   8.355  1.00  0.00     0.295 A 
HETATM    8  C10 UNK     1      12.726   8.742   9.018  1.00  0.00     0.050 C 
HETATM    9  C11 UNK     1       9.805   8.585   9.397  1.00  0.00     0.017 A 
HETATM   10  C12 UNK     1       8.436   6.192   9.003  1.00  0.00     0.075 A 
HETATM   11  C13 UNK     1       7.729   7.337   9.352  1.00  0.00     0.082 A 
HETATM   12  C14 UNK     1       8.413   8.533   9.550  1.00  0.00     0.038 A 
ENDROOT
BRANCH  11  13
HETATM   13  O3  UNK     1       6.379   7.289   9.500  1.00  0.00    -0.279 OA
BRANCH  13  14
HETATM   14  C15 UNK     1       5.934   6.373  10.474  1.00  0.00     0.263 C 
HETATM   15  O4  UNK     1       5.428   5.285  10.237  1.00  0.00    -0.265 OA
BRANCH  14  16
HETATM   16  C16 UNK     1       6.182   6.943  11.851  1.00  0.00     0.107 C 
HETATM   17  C17 UNK     1       5.822   5.959  12.950  1.00  0.00     0.015 C 
ENDBRANCH  14  16
ENDBRANCH  13  14
ENDBRANCH  11  13
BRANCH   3  18
HETATM   18  C2  UNK     1      14.114   6.094   8.420  1.00  0.00     0.049 C 
BRANCH  18  19
HETATM   19  C1  UNK     1      14.824   5.932   9.769  1.00  0.00    -0.018 C 
HETATM   20  C6  UNK     1      16.007   6.891   9.922  1.00  0.00     0.010 C 
HETATM   21  C7  UNK     1      15.306   4.488   9.920  1.00  0.00     0.010 C 
ENDBRANCH  18  19
ENDBRANCH   3  18
TORSDOF 5
ENDMDL
