MODEL 1
REMARK VINA RESULT:      -8.6      0.000      0.000
REMARK  3 active torsions:
REMARK  status: ('A' for Active; 'I' for Inactive)
REMARK       I    between atoms: C12_17  and  N1_5 
REMARK    1  A    between atoms: C3_8  and  N1_5 
REMARK    2  A    between atoms: C1_6  and  C4_9 
REMARK    3  A    between atoms: C12_17  and  C5_10 
ROOT
HETATM    1 Br1  UNK     1      21.236  -3.693  31.542  1.00  0.00    -0.051 Br
HETATM    2  O1  UNK     1      19.175   1.326  28.827  1.00  0.00    -0.274 OA
HETATM    3  O3  UNK     1      18.308   3.436  28.951  1.00  0.00    -0.259 OA
HETATM    4  C2  UNK     1      19.674   0.110  30.872  1.00  0.00     0.000 A 
HETATM    5  C5  UNK     1      18.755   2.348  31.008  1.00  0.00     0.108 A 
HETATM    6  C6  UNK     1      19.648   0.173  29.483  1.00  0.00     0.089 A 
HETATM    7  C7  UNK     1      19.203   1.256  31.637  1.00  0.00     0.037 A 
HETATM    8  C13 UNK     1      20.151  -1.050  31.486  1.00  0.00     0.033 A 
HETATM    9  C14 UNK     1      18.719   2.436  29.531  1.00  0.00     0.304 A 
HETATM   10  C15 UNK     1      20.086  -0.889  28.693  1.00  0.00     0.039 A 
HETATM   11  C17 UNK     1      20.592  -2.124  30.706  1.00  0.00     0.011 A 
HETATM   12  C18 UNK     1      20.560  -2.043  29.313  1.00  0.00     0.022 A 
ENDROOT
BRANCH   5  13
HETATM   13  C12 UNK     1      18.301   3.449  31.866  1.00  0.00     0.262 C 
HETATM   14  O2  UNK     1      17.545   3.218  32.807  1.00  0.00    -0.267 OA
HETATM   15  N1  UNK     1      18.823   4.673  31.466  1.00  0.00    -0.323 N 
HETATM   16  H8  UNK     1      19.458   4.691  30.671  1.00  0.00     0.169 HD
BRANCH  15  17
HETATM   17  C3  UNK     1      18.601   5.941  32.057  1.00  0.00     0.035 A 
HETATM   18  C10 UNK     1      17.442   6.635  31.750  1.00  0.00     0.030 A 
HETATM   19  C8  UNK     1      17.224   7.884  32.332  1.00  0.00     0.009 A 
HETATM   20  C1  UNK     1      18.164   8.418  33.212  1.00  0.00    -0.058 A 
HETATM   21  C9  UNK     1      19.324   7.705  33.510  1.00  0.00     0.009 A 
HETATM   22  C11 UNK     1      19.544   6.456  32.928  1.00  0.00     0.030 A 
BRANCH  20  23
HETATM   23  C4  UNK     1      17.930   9.753  33.834  1.00  0.00     0.034 C 
HETATM   24  C16 UNK     1      19.231  10.451  34.219  1.00  0.00     0.010 C 
ENDBRANCH  20  23
ENDBRANCH  15  17
ENDBRANCH   5  13
TORSDOF 3
ENDMDL
MODEL 2
REMARK VINA RESULT:      -8.4     14.481     16.090
REMARK  3 active torsions:
REMARK  status: ('A' for Active; 'I' for Inactive)
REMARK       I    between atoms: C12_17  and  N1_5 
REMARK    1  A    between atoms: C3_8  and  N1_5 
REMARK    2  A    between atoms: C1_6  and  C4_9 
REMARK    3  A    between atoms: C12_17  and  C5_10 
ROOT
HETATM    1 Br1  UNK     1      33.543  -7.175  37.602  1.00  0.00    -0.051 Br
HETATM    2  O1  UNK     1      28.050  -4.804  38.611  1.00  0.00    -0.274 OA
HETATM    3  O3  UNK     1      25.816  -5.071  39.009  1.00  0.00    -0.259 OA
HETATM    4  C2  UNK     1      29.463  -6.764  38.339  1.00  0.00     0.000 A 
HETATM    5  C5  UNK     1      27.095  -7.050  38.761  1.00  0.00     0.108 A 
HETATM    6  C6  UNK     1      29.313  -5.381  38.379  1.00  0.00     0.089 A 
HETATM    7  C7  UNK     1      28.293  -7.604  38.540  1.00  0.00     0.037 A 
HETATM    8  C13 UNK     1      30.732  -7.298  38.106  1.00  0.00     0.033 A 
HETATM    9  C14 UNK     1      26.913  -5.582  38.808  1.00  0.00     0.304 A 
HETATM   10  C15 UNK     1      30.395  -4.521  38.194  1.00  0.00     0.039 A 
HETATM   11  C17 UNK     1      31.826  -6.447  37.918  1.00  0.00     0.011 A 
HETATM   12  C18 UNK     1      31.657  -5.062  37.962  1.00  0.00     0.022 A 
ENDROOT
BRANCH   5  13
HETATM   13  C12 UNK     1      25.976  -7.981  38.952  1.00  0.00     0.262 C 
HETATM   14  O2  UNK     1      26.182  -9.091  39.439  1.00  0.00    -0.267 OA
HETATM   15  N1  UNK     1      24.769  -7.442  38.527  1.00  0.00    -0.323 N 
HETATM   16  H8  UNK     1      24.765  -6.492  38.164  1.00  0.00     0.169 HD
BRANCH  15  17
HETATM   17  C3  UNK     1      23.491  -8.053  38.560  1.00  0.00     0.035 A 
HETATM   18  C10 UNK     1      22.764  -8.035  39.738  1.00  0.00     0.030 A 
HETATM   19  C8  UNK     1      21.506  -8.637  39.771  1.00  0.00     0.009 A 
HETATM   20  C1  UNK     1      20.994  -9.245  38.625  1.00  0.00    -0.058 A 
HETATM   21  C9  UNK     1      21.740  -9.253  37.447  1.00  0.00     0.009 A 
HETATM   22  C11 UNK     1      22.998  -8.652  37.414  1.00  0.00     0.030 A 
BRANCH  20  23
HETATM   23  C4  UNK     1      19.649  -9.888  38.660  1.00  0.00     0.034 C 
HETATM   24  C16 UNK     1      19.476 -10.934  37.562  1.00  0.00     0.010 C 
ENDBRANCH  20  23
ENDBRANCH  15  17
ENDBRANCH   5  13
TORSDOF 3
ENDMDL
MODEL 3
REMARK VINA RESULT:      -8.1      6.909     11.348
REMARK  3 active torsions:
REMARK  status: ('A' for Active; 'I' for Inactive)
REMARK       I    between atoms: C12_17  and  N1_5 
REMARK    1  A    between atoms: C3_8  and  N1_5 
REMARK    2  A    between atoms: C1_6  and  C4_9 
REMARK    3  A    between atoms: C12_17  and  C5_10 
ROOT
HETATM    1 Br1  UNK     1      20.504  -0.585  29.243  1.00  0.00    -0.051 Br
HETATM    2  O1  UNK     1      18.564  -0.703  34.991  1.00  0.00    -0.274 OA
HETATM    3  O3  UNK     1      18.472  -1.723  37.033  1.00  0.00    -0.259 OA
HETATM    4  C2  UNK     1      19.827  -1.737  33.189  1.00  0.00     0.000 A 
HETATM    5  C5  UNK     1      19.732  -2.820  35.354  1.00  0.00     0.108 A 
HETATM    6  C6  UNK     1      19.028  -0.701  33.661  1.00  0.00     0.089 A 
HETATM    7  C7  UNK     1      20.176  -2.824  34.092  1.00  0.00     0.037 A 
HETATM    8  C13 UNK     1      20.268  -1.699  31.864  1.00  0.00     0.033 A 
HETATM    9  C14 UNK     1      18.881  -1.728  35.876  1.00  0.00     0.304 A 
HETATM   10  C15 UNK     1      18.659   0.369  32.847  1.00  0.00     0.039 A 
HETATM   11  C17 UNK     1      19.905  -0.632  31.036  1.00  0.00     0.011 A 
HETATM   12  C18 UNK     1      19.103   0.400  31.527  1.00  0.00     0.022 A 
ENDROOT
BRANCH   5  13
HETATM   13  C12 UNK     1      20.137  -3.960  36.186  1.00  0.00     0.262 C 
HETATM   14  O2  UNK     1      21.199  -3.917  36.804  1.00  0.00    -0.267 OA
HETATM   15  N1  UNK     1      19.205  -4.988  36.154  1.00  0.00    -0.323 N 
HETATM   16  H8  UNK     1      18.359  -4.857  35.605  1.00  0.00     0.169 HD
BRANCH  15  17
HETATM   17  C3  UNK     1      19.267  -6.231  36.831  1.00  0.00     0.035 A 
HETATM   18  C10 UNK     1      18.903  -7.385  36.159  1.00  0.00     0.030 A 
HETATM   19  C8  UNK     1      18.963  -8.609  36.825  1.00  0.00     0.009 A 
HETATM   20  C1  UNK     1      19.387  -8.660  38.153  1.00  0.00    -0.058 A 
HETATM   21  C9  UNK     1      19.751  -7.488  38.814  1.00  0.00     0.009 A 
HETATM   22  C11 UNK     1      19.690  -6.263  38.148  1.00  0.00     0.030 A 
BRANCH  20  23
HETATM   23  C4  UNK     1      19.452  -9.969  38.865  1.00  0.00     0.034 C 
HETATM   24  C16 UNK     1      19.711 -11.135  37.916  1.00  0.00     0.010 C 
ENDBRANCH  20  23
ENDBRANCH  15  17
ENDBRANCH   5  13
TORSDOF 3
ENDMDL
MODEL 4
REMARK VINA RESULT:      -8.1      6.065     10.046
REMARK  3 active torsions:
REMARK  status: ('A' for Active; 'I' for Inactive)
REMARK       I    between atoms: C12_17  and  N1_5 
REMARK    1  A    between atoms: C3_8  and  N1_5 
REMARK    2  A    between atoms: C1_6  and  C4_9 
REMARK    3  A    between atoms: C12_17  and  C5_10 
ROOT
HETATM    1 Br1  UNK     1      18.310   2.573  29.479  1.00  0.00    -0.051 Br
HETATM    2  O1  UNK     1      20.852  -2.743  30.924  1.00  0.00    -0.274 OA
HETATM    3  O3  UNK     1      21.385  -4.330  32.479  1.00  0.00    -0.259 OA
HETATM    4  C2  UNK     1      19.649  -0.745  31.612  1.00  0.00     0.000 A 
HETATM    5  C5  UNK     1      20.213  -2.426  33.263  1.00  0.00     0.108 A 
HETATM    6  C6  UNK     1      20.254  -1.505  30.616  1.00  0.00     0.089 A 
HETATM    7  C7  UNK     1      19.644  -1.250  32.977  1.00  0.00     0.037 A 
HETATM    8  C13 UNK     1      19.067   0.477  31.267  1.00  0.00     0.033 A 
HETATM    9  C14 UNK     1      20.862  -3.251  32.219  1.00  0.00     0.304 A 
HETATM   10  C15 UNK     1      20.293  -1.079  29.290  1.00  0.00     0.039 A 
HETATM   11  C17 UNK     1      19.099   0.918  29.940  1.00  0.00     0.011 A 
HETATM   12  C18 UNK     1      19.710   0.141  28.954  1.00  0.00     0.022 A 
ENDROOT
BRANCH   5  13
HETATM   13  C12 UNK     1      20.157  -2.849  34.667  1.00  0.00     0.262 C 
HETATM   14  O2  UNK     1      20.178  -2.004  35.560  1.00  0.00    -0.267 OA
HETATM   15  N1  UNK     1      20.084  -4.229  34.796  1.00  0.00    -0.323 N 
HETATM   16  H8  UNK     1      20.054  -4.793  33.949  1.00  0.00     0.169 HD
BRANCH  15  17
HETATM   17  C3  UNK     1      20.017  -4.983  35.994  1.00  0.00     0.035 A 
HETATM   18  C10 UNK     1      19.012  -5.923  36.145  1.00  0.00     0.030 A 
HETATM   19  C8  UNK     1      18.946  -6.665  37.324  1.00  0.00     0.009 A 
HETATM   20  C1  UNK     1      19.886  -6.457  38.333  1.00  0.00    -0.058 A 
HETATM   21  C9  UNK     1      20.892  -5.507  38.164  1.00  0.00     0.009 A 
HETATM   22  C11 UNK     1      20.958  -4.764  36.984  1.00  0.00     0.030 A 
BRANCH  20  23
HETATM   23  C4  UNK     1      19.815  -7.251  39.593  1.00  0.00     0.034 C 
HETATM   24  C16 UNK     1      20.409  -8.648  39.435  1.00  0.00     0.010 C 
ENDBRANCH  20  23
ENDBRANCH  15  17
ENDBRANCH   5  13
TORSDOF 3
ENDMDL
MODEL 5
REMARK VINA RESULT:      -8.1      5.254     10.336
REMARK  3 active torsions:
REMARK  status: ('A' for Active; 'I' for Inactive)
REMARK       I    between atoms: C12_17  and  N1_5 
REMARK    1  A    between atoms: C3_8  and  N1_5 
REMARK    2  A    between atoms: C1_6  and  C4_9 
REMARK    3  A    between atoms: C12_17  and  C5_10 
ROOT
HETATM    1 Br1  UNK     1      18.975  15.703  33.924  1.00  0.00    -0.051 Br
HETATM    2  O1  UNK     1      16.046  10.492  34.961  1.00  0.00    -0.274 OA
HETATM    3  O3  UNK     1      15.938   8.214  34.818  1.00  0.00    -0.259 OA
HETATM    4  C2  UNK     1      17.987  11.659  34.077  1.00  0.00     0.000 A 
HETATM    5  C5  UNK     1      17.876   9.243  33.925  1.00  0.00     0.108 A 
HETATM    6  C6  UNK     1      16.747  11.686  34.707  1.00  0.00     0.089 A 
HETATM    7  C7  UNK     1      18.547  10.375  33.682  1.00  0.00     0.037 A 
HETATM    8  C13 UNK     1      18.652  12.864  33.844  1.00  0.00     0.033 A 
HETATM    9  C14 UNK     1      16.556   9.250  34.595  1.00  0.00     0.304 A 
HETATM   10  C15 UNK     1      16.157  12.883  35.111  1.00  0.00     0.039 A 
HETATM   11  C17 UNK     1      18.071  14.073  34.242  1.00  0.00     0.011 A 
HETATM   12  C18 UNK     1      16.827  14.081  34.875  1.00  0.00     0.022 A 
ENDROOT
BRANCH   5  13
HETATM   13  C12 UNK     1      18.522   8.000  33.489  1.00  0.00     0.262 C 
HETATM   14  O2  UNK     1      19.615   7.685  33.956  1.00  0.00    -0.267 OA
HETATM   15  N1  UNK     1      17.761   7.314  32.553  1.00  0.00    -0.323 N 
HETATM   16  H8  UNK     1      16.859   7.702  32.285  1.00  0.00     0.169 HD
BRANCH  15  17
HETATM   17  C3  UNK     1      18.072   6.087  31.918  1.00  0.00     0.035 A 
HETATM   18  C10 UNK     1      17.753   4.898  32.553  1.00  0.00     0.030 A 
HETATM   19  C8  UNK     1      18.060   3.689  31.928  1.00  0.00     0.009 A 
HETATM   20  C1  UNK     1      18.678   3.687  30.678  1.00  0.00    -0.058 A 
HETATM   21  C9  UNK     1      18.991   4.893  30.053  1.00  0.00     0.009 A 
HETATM   22  C11 UNK     1      18.685   6.103  30.678  1.00  0.00     0.030 A 
BRANCH  20  23
HETATM   23  C4  UNK     1      19.005   2.395  30.010  1.00  0.00     0.034 C 
HETATM   24  C16 UNK     1      18.016   2.047  28.901  1.00  0.00     0.010 C 
ENDBRANCH  20  23
ENDBRANCH  15  17
ENDBRANCH   5  13
TORSDOF 3
ENDMDL
MODEL 6
REMARK VINA RESULT:      -8.0      7.562     12.106
REMARK  3 active torsions:
REMARK  status: ('A' for Active; 'I' for Inactive)
REMARK       I    between atoms: C12_17  and  N1_5 
REMARK    1  A    between atoms: C3_8  and  N1_5 
REMARK    2  A    between atoms: C1_6  and  C4_9 
REMARK    3  A    between atoms: C12_17  and  C5_10 
ROOT
HETATM    1 Br1  UNK     1      16.022   2.032  37.544  1.00  0.00    -0.051 Br
HETATM    2  O1  UNK     1      19.591  -1.405  34.043  1.00  0.00    -0.274 OA
HETATM    3  O3  UNK     1      20.824  -3.302  33.724  1.00  0.00    -0.259 OA
HETATM    4  C2  UNK     1      18.433  -1.068  36.155  1.00  0.00     0.000 A 
HETATM    5  C5  UNK     1      19.739  -3.081  35.819  1.00  0.00     0.108 A 
HETATM    6  C6  UNK     1      18.765  -0.627  34.877  1.00  0.00     0.089 A 
HETATM    7  C7  UNK     1      18.955  -2.346  36.615  1.00  0.00     0.037 A 
HETATM    8  C13 UNK     1      17.611  -0.268  36.951  1.00  0.00     0.033 A 
HETATM    9  C14 UNK     1      20.104  -2.631  34.457  1.00  0.00     0.304 A 
HETATM   10  C15 UNK     1      18.297   0.587  34.376  1.00  0.00     0.039 A 
HETATM   11  C17 UNK     1      17.135   0.953  36.462  1.00  0.00     0.011 A 
HETATM   12  C18 UNK     1      17.478   1.378  35.177  1.00  0.00     0.022 A 
ENDROOT
BRANCH   5  13
HETATM   13  C12 UNK     1      20.216  -4.353  36.373  1.00  0.00     0.262 C 
HETATM   14  O2  UNK     1      21.200  -4.368  37.109  1.00  0.00    -0.267 OA
HETATM   15  N1  UNK     1      19.438  -5.427  35.961  1.00  0.00    -0.323 N 
HETATM   16  H8  UNK     1      18.636  -5.242  35.363  1.00  0.00     0.169 HD
BRANCH  15  17
HETATM   17  C3  UNK     1      19.604  -6.793  36.298  1.00  0.00     0.035 A 
HETATM   18  C10 UNK     1      20.476  -7.571  35.555  1.00  0.00     0.030 A 
HETATM   19  C8  UNK     1      20.639  -8.916  35.886  1.00  0.00     0.009 A 
HETATM   20  C1  UNK     1      19.931  -9.462  36.956  1.00  0.00    -0.058 A 
HETATM   21  C9  UNK     1      19.057  -8.664  37.694  1.00  0.00     0.009 A 
HETATM   22  C11 UNK     1      18.893  -7.319  37.362  1.00  0.00     0.030 A 
BRANCH  20  23
HETATM   23  C4  UNK     1      20.106 -10.900  37.310  1.00  0.00     0.034 C 
HETATM   24  C16 UNK     1      19.449 -11.254  38.642  1.00  0.00     0.010 C 
ENDBRANCH  20  23
ENDBRANCH  15  17
ENDBRANCH   5  13
TORSDOF 3
ENDMDL
MODEL 7
REMARK VINA RESULT:      -8.0     14.483     18.961
REMARK  3 active torsions:
REMARK  status: ('A' for Active; 'I' for Inactive)
REMARK       I    between atoms: C12_17  and  N1_5 
REMARK    1  A    between atoms: C3_8  and  N1_5 
REMARK    2  A    between atoms: C1_6  and  C4_9 
REMARK    3  A    between atoms: C12_17  and  C5_10 
ROOT
HETATM    1 Br1  UNK     1      19.047   2.045  21.074  1.00  0.00    -0.051 Br
HETATM    2  O1  UNK     1      19.221   0.877  15.123  1.00  0.00    -0.274 OA
HETATM    3  O3  UNK     1      19.176  -0.613  13.391  1.00  0.00    -0.259 OA
HETATM    4  C2  UNK     1      19.049   0.065  17.409  1.00  0.00     0.000 A 
HETATM    5  C5  UNK     1      19.001  -1.517  15.574  1.00  0.00     0.108 A 
HETATM    6  C6  UNK     1      19.178   1.119  16.510  1.00  0.00     0.089 A 
HETATM    7  C7  UNK     1      18.960  -1.292  16.893  1.00  0.00     0.037 A 
HETATM    8  C13 UNK     1      19.010   0.346  18.776  1.00  0.00     0.033 A 
HETATM    9  C14 UNK     1      19.138  -0.410  14.601  1.00  0.00     0.304 A 
HETATM   10  C15 UNK     1      19.268   2.442  16.939  1.00  0.00     0.039 A 
HETATM   11  C17 UNK     1      19.100   1.669  19.222  1.00  0.00     0.011 A 
HETATM   12  C18 UNK     1      19.229   2.714  18.305  1.00  0.00     0.022 A 
ENDROOT
BRANCH   5  13
HETATM   13  C12 UNK     1      18.904  -2.919  15.152  1.00  0.00     0.262 C 
HETATM   14  O2  UNK     1      17.910  -3.578  15.450  1.00  0.00    -0.267 OA
HETATM   15  N1  UNK     1      20.019  -3.327  14.433  1.00  0.00    -0.323 N 
HETATM   16  H8  UNK     1      20.753  -2.646  14.251  1.00  0.00     0.169 HD
BRANCH  15  17
HETATM   17  C3  UNK     1      20.265  -4.605  13.874  1.00  0.00     0.035 A 
HETATM   18  C10 UNK     1      20.692  -5.632  14.699  1.00  0.00     0.030 A 
HETATM   19  C8  UNK     1      20.935  -6.891  14.149  1.00  0.00     0.009 A 
HETATM   20  C1  UNK     1      20.747  -7.104  12.784  1.00  0.00    -0.058 A 
HETATM   21  C9  UNK     1      20.316  -6.058  11.968  1.00  0.00     0.009 A 
HETATM   22  C11 UNK     1      20.073  -4.799  12.517  1.00  0.00     0.030 A 
BRANCH  20  23
HETATM   23  C4  UNK     1      21.007  -8.449  12.196  1.00  0.00     0.034 C 
HETATM   24  C16 UNK     1      22.256  -9.106  12.777  1.00  0.00     0.010 C 
ENDBRANCH  20  23
ENDBRANCH  15  17
ENDBRANCH   5  13
TORSDOF 3
ENDMDL
MODEL 8
REMARK VINA RESULT:      -7.9      7.138     11.669
REMARK  3 active torsions:
REMARK  status: ('A' for Active; 'I' for Inactive)
REMARK       I    between atoms: C12_17  and  N1_5 
REMARK    1  A    between atoms: C3_8  and  N1_5 
REMARK    2  A    between atoms: C1_6  and  C4_9 
REMARK    3  A    between atoms: C12_17  and  C5_10 
ROOT
HETATM    1 Br1  UNK     1      18.824   1.220  30.765  1.00  0.00    -0.051 Br
HETATM    2  O1  UNK     1      18.377  -0.355  36.607  1.00  0.00    -0.274 OA
HETATM    3  O3  UNK     1      18.711  -1.870  38.285  1.00  0.00    -0.259 OA
HETATM    4  C2  UNK     1      19.058  -0.907  34.339  1.00  0.00     0.000 A 
HETATM    5  C5  UNK     1      19.413  -2.515  36.116  1.00  0.00     0.108 A 
HETATM    6  C6  UNK     1      18.493  -0.015  35.245  1.00  0.00     0.089 A 
HETATM    7  C7  UNK     1      19.526  -2.198  34.821  1.00  0.00     0.037 A 
HETATM    8  C13 UNK     1      19.155  -0.534  32.997  1.00  0.00     0.033 A 
HETATM    9  C14 UNK     1      18.816  -1.581  37.097  1.00  0.00     0.304 A 
HETATM   10  C15 UNK     1      18.026   1.236  34.847  1.00  0.00     0.039 A 
HETATM   11  C17 UNK     1      18.690   0.719  32.583  1.00  0.00     0.011 A 
HETATM   12  C18 UNK     1      18.127   1.601  33.507  1.00  0.00     0.022 A 
ENDROOT
BRANCH   5  13
HETATM   13  C12 UNK     1      19.914  -3.839  36.505  1.00  0.00     0.262 C 
HETATM   14  O2  UNK     1      21.124  -4.027  36.611  1.00  0.00    -0.267 OA
HETATM   15  N1  UNK     1      18.885  -4.748  36.709  1.00  0.00    -0.323 N 
HETATM   16  H8  UNK     1      17.926  -4.426  36.600  1.00  0.00     0.169 HD
BRANCH  15  17
HETATM   17  C3  UNK     1      18.997  -6.108  37.089  1.00  0.00     0.035 A 
HETATM   18  C10 UNK     1      19.528  -6.421  38.329  1.00  0.00     0.030 A 
HETATM   19  C8  UNK     1      19.639  -7.761  38.703  1.00  0.00     0.009 A 
HETATM   20  C1  UNK     1      19.215  -8.765  37.835  1.00  0.00    -0.058 A 
HETATM   21  C9  UNK     1      18.681  -8.432  36.590  1.00  0.00     0.009 A 
HETATM   22  C11 UNK     1      18.571  -7.092  36.215  1.00  0.00     0.030 A 
BRANCH  20  23
HETATM   23  C4  UNK     1      19.332 -10.197  38.235  1.00  0.00     0.034 C 
HETATM   24  C16 UNK     1      20.249 -10.987  37.305  1.00  0.00     0.010 C 
ENDBRANCH  20  23
ENDBRANCH  15  17
ENDBRANCH   5  13
TORSDOF 3
ENDMDL
MODEL 9
REMARK VINA RESULT:      -7.9      8.399     10.340
REMARK  3 active torsions:
REMARK  status: ('A' for Active; 'I' for Inactive)
REMARK       I    between atoms: C12_17  and  N1_5 
REMARK    1  A    between atoms: C3_8  and  N1_5 
REMARK    2  A    between atoms: C1_6  and  C4_9 
REMARK    3  A    between atoms: C12_17  and  C5_10 
ROOT
HETATM    1 Br1  UNK     1      19.317 -11.421  40.476  1.00  0.00    -0.051 Br
HETATM    2  O1  UNK     1      20.090  -7.909  35.590  1.00  0.00    -0.274 OA
HETATM    3  O3  UNK     1      20.308  -5.839  34.648  1.00  0.00    -0.259 OA
HETATM    4  C2  UNK     1      19.786  -8.109  37.994  1.00  0.00     0.000 A 
HETATM    5  C5  UNK     1      20.017  -5.912  36.999  1.00  0.00     0.108 A 
HETATM    6  C6  UNK     1      19.910  -8.701  36.741  1.00  0.00     0.089 A 
HETATM    7  C7  UNK     1      19.846  -6.659  38.095  1.00  0.00     0.037 A 
HETATM    8  C13 UNK     1      19.609  -8.928  39.111  1.00  0.00     0.033 A 
HETATM    9  C14 UNK     1      20.151  -6.521  35.656  1.00  0.00     0.304 A 
HETATM   10  C15 UNK     1      19.862 -10.084  36.575  1.00  0.00     0.039 A 
HETATM   11  C17 UNK     1      19.558 -10.317  38.960  1.00  0.00     0.011 A 
HETATM   12  C18 UNK     1      19.684 -10.893  37.695  1.00  0.00     0.022 A 
ENDROOT
BRANCH   5  13
HETATM   13  C12 UNK     1      20.064  -4.460  37.204  1.00  0.00     0.262 C 
HETATM   14  O2  UNK     1      20.959  -3.968  37.889  1.00  0.00    -0.267 OA
HETATM   15  N1  UNK     1      19.024  -3.806  36.557  1.00  0.00    -0.323 N 
HETATM   16  H8  UNK     1      18.372  -4.361  36.007  1.00  0.00     0.169 HD
BRANCH  15  17
HETATM   17  C3  UNK     1      18.757  -2.415  36.537  1.00  0.00     0.035 A 
HETATM   18  C10 UNK     1      19.242  -1.649  35.490  1.00  0.00     0.030 A 
HETATM   19  C8  UNK     1      18.980  -0.279  35.471  1.00  0.00     0.009 A 
HETATM   20  C1  UNK     1      18.236   0.303  36.497  1.00  0.00    -0.058 A 
HETATM   21  C9  UNK     1      17.755  -0.483  37.543  1.00  0.00     0.009 A 
HETATM   22  C11 UNK     1      18.018  -1.853  37.563  1.00  0.00     0.030 A 
BRANCH  20  23
HETATM   23  C4  UNK     1      17.955   1.768  36.476  1.00  0.00     0.034 C 
HETATM   24  C16 UNK     1      18.440   2.435  35.191  1.00  0.00     0.010 C 
ENDBRANCH  20  23
ENDBRANCH  15  17
ENDBRANCH   5  13
TORSDOF 3
ENDMDL
MODEL 10
REMARK VINA RESULT:      -7.7      5.385     10.349
REMARK  3 active torsions:
REMARK  status: ('A' for Active; 'I' for Inactive)
REMARK       I    between atoms: C12_17  and  N1_5 
REMARK    1  A    between atoms: C3_8  and  N1_5 
REMARK    2  A    between atoms: C1_6  and  C4_9 
REMARK    3  A    between atoms: C12_17  and  C5_10 
ROOT
HETATM    1 Br1  UNK     1      11.626  13.081  35.265  1.00  0.00    -0.051 Br
HETATM    2  O1  UNK     1      17.255  10.896  34.679  1.00  0.00    -0.274 OA
HETATM    3  O3  UNK     1      18.731   9.450  33.703  1.00  0.00    -0.259 OA
HETATM    4  C2  UNK     1      14.915  10.848  34.021  1.00  0.00     0.000 A 
HETATM    5  C5  UNK     1      16.478   9.315  32.983  1.00  0.00     0.108 A 
HETATM    6  C6  UNK     1      15.939  11.384  34.795  1.00  0.00     0.089 A 
HETATM    7  C7  UNK     1      15.226   9.774  33.089  1.00  0.00     0.037 A 
HETATM    8  C13 UNK     1      13.623  11.359  34.164  1.00  0.00     0.033 A 
HETATM    9  C14 UNK     1      17.582   9.870  33.797  1.00  0.00     0.304 A 
HETATM   10  C15 UNK     1      15.708  12.414  35.705  1.00  0.00     0.039 A 
HETATM   11  C17 UNK     1      13.376  12.392  35.074  1.00  0.00     0.011 A 
HETATM   12  C18 UNK     1      14.417  12.918  35.842  1.00  0.00     0.022 A 
ENDROOT
BRANCH   5  13
HETATM   13  C12 UNK     1      16.691   8.230  32.017  1.00  0.00     0.262 C 
HETATM   14  O2  UNK     1      16.175   8.296  30.903  1.00  0.00    -0.267 OA
HETATM   15  N1  UNK     1      17.493   7.221  32.532  1.00  0.00    -0.323 N 
HETATM   16  H8  UNK     1      17.863   7.330  33.474  1.00  0.00     0.169 HD
BRANCH  15  17
HETATM   17  C3  UNK     1      17.904   6.030  31.885  1.00  0.00     0.035 A 
HETATM   18  C10 UNK     1      18.497   6.109  30.636  1.00  0.00     0.030 A 
HETATM   19  C8  UNK     1      18.901   4.936  29.999  1.00  0.00     0.009 A 
HETATM   20  C1  UNK     1      18.708   3.702  30.620  1.00  0.00    -0.058 A 
HETATM   21  C9  UNK     1      18.109   3.641  31.878  1.00  0.00     0.009 A 
HETATM   22  C11 UNK     1      17.704   4.814  32.515  1.00  0.00     0.030 A 
BRANCH  20  23
HETATM   23  C4  UNK     1      19.140   2.448  29.939  1.00  0.00     0.034 C 
HETATM   24  C16 UNK     1      18.150   1.997  28.868  1.00  0.00     0.010 C 
ENDBRANCH  20  23
ENDBRANCH  15  17
ENDBRANCH   5  13
TORSDOF 3
ENDMDL
