MODEL 1
REMARK VINA RESULT:      -9.3      0.000      0.000
REMARK  4 active torsions:
REMARK  status: ('A' for Active; 'I' for Inactive)
REMARK    1  A    between atoms: C17_21  and  O2_2 
REMARK    2  A    between atoms: C8_12  and  O2_2 
REMARK    3  A    between atoms: C3_7  and  C6_10 
REMARK    4  A    between atoms: C15_19  and  C17_21 
ROOT
HETATM    1  O1  UNK     1      19.193   2.773  30.366  1.00  0.00    -0.309 OA
HETATM    2  O3  UNK     1      17.695   3.180  34.133  1.00  0.00    -0.287 OA
HETATM    3  C1  UNK     1      18.270   4.216  32.089  1.00  0.00     0.051 A 
HETATM    4  C2  UNK     1      18.790   4.007  30.812  1.00  0.00     0.090 A 
HETATM    5  C3  UNK     1      19.084   1.692  31.227  1.00  0.00     0.090 A 
HETATM    6  C4  UNK     1      18.145   3.069  33.000  1.00  0.00     0.187 A 
HETATM    7  C5  UNK     1      17.876   5.495  32.489  1.00  0.00     0.055 A 
HETATM    8  C7  UNK     1      18.594   1.765  32.474  1.00  0.00     0.093 A 
HETATM    9  C8  UNK     1      18.005   6.564  31.602  1.00  0.00     0.080 A 
HETATM   10  C9  UNK     1      18.918   5.077  29.927  1.00  0.00     0.041 A 
HETATM   11  C10 UNK     1      18.525   6.355  30.323  1.00  0.00     0.040 A 
ENDROOT
BRANCH   9  12
HETATM   12  O2  UNK     1      17.622   7.814  31.983  1.00  0.00    -0.275 OA
BRANCH  12  13
HETATM   13  C17 UNK     1      16.240   8.014  31.992  1.00  0.00     0.298 C 
HETATM   14  O4  UNK     1      15.438   7.473  31.245  1.00  0.00    -0.259 OA
BRANCH  13  15
HETATM   15  C15 UNK     1      15.844   8.977  33.051  1.00  0.00     0.039 A 
HETATM   16  C18 UNK     1      16.817   9.762  33.635  1.00  0.00     0.017 A 
HETATM   17  C20 UNK     1      16.446  10.667  34.629  1.00  0.00     0.001 A 
HETATM   18  C22 UNK     1      15.110  10.767  35.017  1.00  0.00     0.000 A 
HETATM   19  C21 UNK     1      14.145   9.962  34.411  1.00  0.00     0.001 A 
HETATM   20  C19 UNK     1      14.517   9.056  33.417  1.00  0.00     0.017 A 
ENDBRANCH  13  15
ENDBRANCH  12  13
ENDBRANCH   9  12
BRANCH   5  21
HETATM   21  C6  UNK     1      19.539   0.413  30.644  1.00  0.00    -0.002 A 
HETATM   22  C11 UNK     1      19.890   0.343  29.294  1.00  0.00     0.014 A 
HETATM   23  C13 UNK     1      20.319  -0.866  28.744  1.00  0.00     0.001 A 
HETATM   24  C16 UNK     1      20.399  -2.007  29.543  1.00  0.00     0.000 A 
HETATM   25  C14 UNK     1      20.050  -1.939  30.891  1.00  0.00     0.001 A 
HETATM   26  C12 UNK     1      19.620  -0.731  31.441  1.00  0.00     0.014 A 
ENDBRANCH   5  21
TORSDOF 4
ENDMDL
MODEL 2
REMARK VINA RESULT:      -9.1      1.129      8.973
REMARK  4 active torsions:
REMARK  status: ('A' for Active; 'I' for Inactive)
REMARK    1  A    between atoms: C17_21  and  O2_2 
REMARK    2  A    between atoms: C8_12  and  O2_2 
REMARK    3  A    between atoms: C3_7  and  C6_10 
REMARK    4  A    between atoms: C15_19  and  C17_21 
ROOT
HETATM    1  O1  UNK     1      17.712   7.669  32.154  1.00  0.00    -0.309 OA
HETATM    2  O3  UNK     1      17.969   4.345  34.494  1.00  0.00    -0.287 OA
HETATM    3  C1  UNK     1      18.252   5.310  32.356  1.00  0.00     0.051 A 
HETATM    4  C2  UNK     1      18.142   6.484  31.612  1.00  0.00     0.090 A 
HETATM    5  C3  UNK     1      17.366   7.696  33.495  1.00  0.00     0.090 A 
HETATM    6  C4  UNK     1      17.894   5.337  33.782  1.00  0.00     0.187 A 
HETATM    7  C5  UNK     1      18.695   4.130  31.752  1.00  0.00     0.055 A 
HETATM    8  C7  UNK     1      17.436   6.635  34.315  1.00  0.00     0.093 A 
HETATM    9  C8  UNK     1      19.029   4.135  30.398  1.00  0.00     0.080 A 
HETATM   10  C9  UNK     1      18.477   6.485  30.259  1.00  0.00     0.041 A 
HETATM   11  C10 UNK     1      18.921   5.311  29.652  1.00  0.00     0.040 A 
ENDROOT
BRANCH   9  12
HETATM   12  O2  UNK     1      19.465   2.991  29.800  1.00  0.00    -0.275 OA
BRANCH  12  13
HETATM   13  C17 UNK     1      18.549   1.937  29.841  1.00  0.00     0.298 C 
HETATM   14  O4  UNK     1      17.339   2.041  29.713  1.00  0.00    -0.259 OA
BRANCH  13  15
HETATM   15  C15 UNK     1      19.237   0.638  30.054  1.00  0.00     0.039 A 
HETATM   16  C18 UNK     1      19.266   0.100  31.324  1.00  0.00     0.017 A 
HETATM   17  C20 UNK     1      19.911  -1.120  31.525  1.00  0.00     0.001 A 
HETATM   18  C22 UNK     1      20.513  -1.775  30.450  1.00  0.00     0.000 A 
HETATM   19  C21 UNK     1      20.470  -1.210  29.175  1.00  0.00     0.001 A 
HETATM   20  C19 UNK     1      19.825   0.011  28.976  1.00  0.00     0.017 A 
ENDBRANCH  13  15
ENDBRANCH  12  13
ENDBRANCH   9  12
BRANCH   5  21
HETATM   21  C6  UNK     1      16.924   9.021  33.975  1.00  0.00    -0.002 A 
HETATM   22  C11 UNK     1      15.665   9.171  34.562  1.00  0.00     0.014 A 
HETATM   23  C13 UNK     1      15.248  10.423  35.015  1.00  0.00     0.001 A 
HETATM   24  C16 UNK     1      16.089  11.528  34.883  1.00  0.00     0.000 A 
HETATM   25  C14 UNK     1      17.346  11.382  34.298  1.00  0.00     0.001 A 
HETATM   26  C12 UNK     1      17.763  10.130  33.844  1.00  0.00     0.014 A 
ENDBRANCH   5  21
TORSDOF 4
ENDMDL
MODEL 3
REMARK VINA RESULT:      -9.1      5.935     11.204
REMARK  4 active torsions:
REMARK  status: ('A' for Active; 'I' for Inactive)
REMARK    1  A    between atoms: C17_21  and  O2_2 
REMARK    2  A    between atoms: C8_12  and  O2_2 
REMARK    3  A    between atoms: C3_7  and  C6_10 
REMARK    4  A    between atoms: C15_19  and  C17_21 
ROOT
HETATM    1  O1  UNK     1      18.912  -0.269  33.199  1.00  0.00    -0.309 OA
HETATM    2  O3  UNK     1      21.424  -3.404  32.521  1.00  0.00    -0.287 OA
HETATM    3  C1  UNK     1      20.074  -2.221  34.059  1.00  0.00     0.051 A 
HETATM    4  C2  UNK     1      19.221  -1.131  34.222  1.00  0.00     0.090 A 
HETATM    5  C3  UNK     1      19.479  -0.491  31.954  1.00  0.00     0.090 A 
HETATM    6  C4  UNK     1      20.670  -2.465  32.736  1.00  0.00     0.187 A 
HETATM    7  C5  UNK     1      20.354  -3.066  35.136  1.00  0.00     0.055 A 
HETATM    8  C7  UNK     1      20.307  -1.509  31.671  1.00  0.00     0.093 A 
HETATM    9  C8  UNK     1      19.773  -2.811  36.378  1.00  0.00     0.080 A 
HETATM   10  C9  UNK     1      18.642  -0.878  35.465  1.00  0.00     0.041 A 
HETATM   11  C10 UNK     1      18.918  -1.719  36.542  1.00  0.00     0.040 A 
ENDROOT
BRANCH   9  12
HETATM   12  O2  UNK     1      20.038  -3.629  37.434  1.00  0.00    -0.275 OA
BRANCH  12  13
HETATM   13  C17 UNK     1      19.619  -4.950  37.257  1.00  0.00     0.298 C 
HETATM   14  O4  UNK     1      18.714  -5.317  36.523  1.00  0.00    -0.259 OA
BRANCH  13  15
HETATM   15  C15 UNK     1      20.431  -5.885  38.077  1.00  0.00     0.039 A 
HETATM   16  C18 UNK     1      19.800  -6.935  38.711  1.00  0.00     0.017 A 
HETATM   17  C20 UNK     1      20.561  -7.814  39.481  1.00  0.00     0.001 A 
HETATM   18  C22 UNK     1      21.938  -7.622  39.601  1.00  0.00     0.000 A 
HETATM   19  C21 UNK     1      22.553  -6.551  38.950  1.00  0.00     0.001 A 
HETATM   20  C19 UNK     1      21.790  -5.673  38.180  1.00  0.00     0.017 A 
ENDBRANCH  13  15
ENDBRANCH  12  13
ENDBRANCH   9  12
BRANCH   5  21
HETATM   21  C6  UNK     1      19.074   0.490  30.926  1.00  0.00    -0.002 A 
HETATM   22  C11 UNK     1      18.670   1.773  31.302  1.00  0.00     0.014 A 
HETATM   23  C13 UNK     1      18.287   2.699  30.332  1.00  0.00     0.001 A 
HETATM   24  C16 UNK     1      18.307   2.345  28.982  1.00  0.00     0.000 A 
HETATM   25  C14 UNK     1      18.711   1.064  28.604  1.00  0.00     0.001 A 
HETATM   26  C12 UNK     1      19.093   0.138  29.575  1.00  0.00     0.014 A 
ENDBRANCH   5  21
TORSDOF 4
ENDMDL
MODEL 4
REMARK VINA RESULT:      -9.1      1.517      9.464
REMARK  4 active torsions:
REMARK  status: ('A' for Active; 'I' for Inactive)
REMARK    1  A    between atoms: C17_21  and  O2_2 
REMARK    2  A    between atoms: C8_12  and  O2_2 
REMARK    3  A    between atoms: C3_7  and  C6_10 
REMARK    4  A    between atoms: C15_19  and  C17_21 
ROOT
HETATM    1  O1  UNK     1      17.655   9.019  33.850  1.00  0.00    -0.309 OA
HETATM    2  O3  UNK     1      14.945   7.425  31.258  1.00  0.00    -0.287 OA
HETATM    3  C1  UNK     1      17.097   7.300  32.227  1.00  0.00     0.051 A 
HETATM    4  C2  UNK     1      17.976   7.895  33.131  1.00  0.00     0.090 A 
HETATM    5  C3  UNK     1      16.406   9.590  33.662  1.00  0.00     0.090 A 
HETATM    6  C4  UNK     1      15.767   7.896  32.033  1.00  0.00     0.187 A 
HETATM    7  C5  UNK     1      17.478   6.155  31.522  1.00  0.00     0.055 A 
HETATM    8  C7  UNK     1      15.472   9.105  32.827  1.00  0.00     0.093 A 
HETATM    9  C8  UNK     1      18.745   5.610  31.729  1.00  0.00     0.080 A 
HETATM   10  C9  UNK     1      19.242   7.348  33.336  1.00  0.00     0.041 A 
HETATM   11  C10 UNK     1      19.626   6.205  32.634  1.00  0.00     0.040 A 
ENDROOT
BRANCH   9  12
HETATM   12  O2  UNK     1      19.125   4.493  31.048  1.00  0.00    -0.275 OA
BRANCH  12  13
HETATM   13  C17 UNK     1      18.452   3.330  31.431  1.00  0.00     0.298 C 
HETATM   14  O4  UNK     1      17.771   3.201  32.436  1.00  0.00    -0.259 OA
BRANCH  13  15
HETATM   15  C15 UNK     1      18.659   2.242  30.442  1.00  0.00     0.039 A 
HETATM   16  C18 UNK     1      17.992   2.302  29.236  1.00  0.00     0.017 A 
HETATM   17  C20 UNK     1      18.185   1.281  28.306  1.00  0.00     0.001 A 
HETATM   18  C22 UNK     1      19.041   0.220  28.604  1.00  0.00     0.000 A 
HETATM   19  C21 UNK     1      19.704   0.182  29.832  1.00  0.00     0.001 A 
HETATM   20  C19 UNK     1      19.509   1.204  30.761  1.00  0.00     0.017 A 
ENDBRANCH  13  15
ENDBRANCH  12  13
ENDBRANCH   9  12
BRANCH   5  21
HETATM   21  C6  UNK     1      16.162  10.789  34.488  1.00  0.00    -0.002 A 
HETATM   22  C11 UNK     1      14.984  10.903  35.230  1.00  0.00     0.014 A 
HETATM   23  C13 UNK     1      14.754  12.036  36.010  1.00  0.00     0.001 A 
HETATM   24  C16 UNK     1      15.702  13.059  36.052  1.00  0.00     0.000 A 
HETATM   25  C14 UNK     1      16.880  12.948  35.313  1.00  0.00     0.001 A 
HETATM   26  C12 UNK     1      17.110  11.814  34.532  1.00  0.00     0.014 A 
ENDBRANCH   5  21
TORSDOF 4
ENDMDL
MODEL 5
REMARK VINA RESULT:      -9.0      1.460      2.023
REMARK  4 active torsions:
REMARK  status: ('A' for Active; 'I' for Inactive)
REMARK    1  A    between atoms: C17_21  and  O2_2 
REMARK    2  A    between atoms: C8_12  and  O2_2 
REMARK    3  A    between atoms: C3_7  and  C6_10 
REMARK    4  A    between atoms: C15_19  and  C17_21 
ROOT
HETATM    1  O1  UNK     1      18.802   3.436  30.762  1.00  0.00    -0.309 OA
HETATM    2  O3  UNK     1      17.968   2.748  34.690  1.00  0.00    -0.287 OA
HETATM    3  C1  UNK     1      18.166   4.317  32.935  1.00  0.00     0.051 A 
HETATM    4  C2  UNK     1      18.461   4.482  31.582  1.00  0.00     0.090 A 
HETATM    5  C3  UNK     1      18.861   2.162  31.306  1.00  0.00     0.090 A 
HETATM    6  C4  UNK     1      18.218   2.966  33.512  1.00  0.00     0.187 A 
HETATM    7  C5  UNK     1      17.825   5.419  33.723  1.00  0.00     0.055 A 
HETATM    8  C7  UNK     1      18.591   1.876  32.590  1.00  0.00     0.093 A 
HETATM    9  C8  UNK     1      17.782   6.689  33.146  1.00  0.00     0.080 A 
HETATM   10  C9  UNK     1      18.417   5.753  31.009  1.00  0.00     0.041 A 
HETATM   11  C10 UNK     1      18.077   6.856  31.792  1.00  0.00     0.040 A 
ENDROOT
BRANCH   9  12
HETATM   12  O2  UNK     1      17.449   7.769  33.905  1.00  0.00    -0.275 OA
BRANCH  12  13
HETATM   13  C17 UNK     1      18.475   8.705  34.055  1.00  0.00     0.298 C 
HETATM   14  O4  UNK     1      19.664   8.446  34.156  1.00  0.00    -0.259 OA
BRANCH  13  15
HETATM   15  C15 UNK     1      17.939  10.091  34.067  1.00  0.00     0.039 A 
HETATM   16  C18 UNK     1      18.819  11.146  33.938  1.00  0.00     0.017 A 
HETATM   17  C20 UNK     1      18.317  12.447  33.949  1.00  0.00     0.001 A 
HETATM   18  C22 UNK     1      16.946  12.664  34.090  1.00  0.00     0.000 A 
HETATM   19  C21 UNK     1      16.077  11.580  34.220  1.00  0.00     0.001 A 
HETATM   20  C19 UNK     1      16.580  10.279  34.209  1.00  0.00     0.017 A 
ENDBRANCH  13  15
ENDBRANCH  12  13
ENDBRANCH   9  12
BRANCH   5  21
HETATM   21  C6  UNK     1      19.230   1.111  30.336  1.00  0.00    -0.002 A 
HETATM   22  C11 UNK     1      18.587   1.043  29.097  1.00  0.00     0.014 A 
HETATM   23  C13 UNK     1      18.935   0.050  28.181  1.00  0.00     0.001 A 
HETATM   24  C16 UNK     1      19.928  -0.877  28.501  1.00  0.00     0.000 A 
HETATM   25  C14 UNK     1      20.572  -0.811  29.736  1.00  0.00     0.001 A 
HETATM   26  C12 UNK     1      20.223   0.182  30.653  1.00  0.00     0.014 A 
ENDBRANCH   5  21
TORSDOF 4
ENDMDL
MODEL 6
REMARK VINA RESULT:      -8.9      9.011     15.310
REMARK  4 active torsions:
REMARK  status: ('A' for Active; 'I' for Inactive)
REMARK    1  A    between atoms: C17_21  and  O2_2 
REMARK    2  A    between atoms: C8_12  and  O2_2 
REMARK    3  A    between atoms: C3_7  and  C6_10 
REMARK    4  A    between atoms: C15_19  and  C17_21 
ROOT
HETATM    1  O1  UNK     1      19.141  -4.662  36.324  1.00  0.00    -0.309 OA
HETATM    2  O3  UNK     1      22.643  -5.240  38.324  1.00  0.00    -0.287 OA
HETATM    3  C1  UNK     1      20.871  -6.189  37.083  1.00  0.00     0.051 A 
HETATM    4  C2  UNK     1      19.678  -5.922  36.413  1.00  0.00     0.090 A 
HETATM    5  C3  UNK     1      19.812  -3.613  36.933  1.00  0.00     0.090 A 
HETATM    6  C4  UNK     1      21.590  -5.078  37.722  1.00  0.00     0.187 A 
HETATM    7  C5  UNK     1      21.371  -7.493  37.142  1.00  0.00     0.055 A 
HETATM    8  C7  UNK     1      20.971  -3.743  37.600  1.00  0.00     0.093 A 
HETATM    9  C8  UNK     1      20.667  -8.527  36.524  1.00  0.00     0.080 A 
HETATM   10  C9  UNK     1      18.977  -6.958  35.796  1.00  0.00     0.041 A 
HETATM   11  C10 UNK     1      19.473  -8.260  35.852  1.00  0.00     0.040 A 
ENDROOT
BRANCH   9  12
HETATM   12  O2  UNK     1      21.147  -9.801  36.574  1.00  0.00    -0.275 OA
BRANCH  12  13
HETATM   13  C17 UNK     1      21.941 -10.159  35.483  1.00  0.00     0.298 C 
HETATM   14  O4  UNK     1      21.591 -10.144  34.312  1.00  0.00    -0.259 OA
BRANCH  13  15
HETATM   15  C15 UNK     1      23.303 -10.563  35.919  1.00  0.00     0.039 A 
HETATM   16  C18 UNK     1      24.129  -9.615  36.487  1.00  0.00     0.017 A 
HETATM   17  C20 UNK     1      25.407  -9.993  36.897  1.00  0.00     0.001 A 
HETATM   18  C22 UNK     1      25.831 -11.312  36.730  1.00  0.00     0.000 A 
HETATM   19  C21 UNK     1      24.977 -12.252  36.152  1.00  0.00     0.001 A 
HETATM   20  C19 UNK     1      23.698 -11.872  35.741  1.00  0.00     0.017 A 
ENDBRANCH  13  15
ENDBRANCH  12  13
ENDBRANCH   9  12
BRANCH   5  21
HETATM   21  C6  UNK     1      19.152  -2.302  36.770  1.00  0.00    -0.002 A 
HETATM   22  C11 UNK     1      19.298  -1.587  35.579  1.00  0.00     0.014 A 
HETATM   23  C13 UNK     1      18.674  -0.348  35.426  1.00  0.00     0.001 A 
HETATM   24  C16 UNK     1      17.902   0.178  36.462  1.00  0.00     0.000 A 
HETATM   25  C14 UNK     1      17.755  -0.535  37.652  1.00  0.00     0.001 A 
HETATM   26  C12 UNK     1      18.379  -1.773  37.806  1.00  0.00     0.014 A 
ENDBRANCH   5  21
TORSDOF 4
ENDMDL
MODEL 7
REMARK VINA RESULT:      -8.9      5.235     10.699
REMARK  4 active torsions:
REMARK  status: ('A' for Active; 'I' for Inactive)
REMARK    1  A    between atoms: C17_21  and  O2_2 
REMARK    2  A    between atoms: C8_12  and  O2_2 
REMARK    3  A    between atoms: C3_7  and  C6_10 
REMARK    4  A    between atoms: C15_19  and  C17_21 
ROOT
HETATM    1  O1  UNK     1      18.809  -0.130  33.192  1.00  0.00    -0.309 OA
HETATM    2  O3  UNK     1      21.319  -3.279  32.569  1.00  0.00    -0.287 OA
HETATM    3  C1  UNK     1      19.957  -2.078  34.081  1.00  0.00     0.051 A 
HETATM    4  C2  UNK     1      19.105  -0.983  34.225  1.00  0.00     0.090 A 
HETATM    5  C3  UNK     1      19.388  -0.365  31.955  1.00  0.00     0.090 A 
HETATM    6  C4  UNK     1      20.565  -2.335  32.767  1.00  0.00     0.187 A 
HETATM    7  C5  UNK     1      20.223  -2.914  35.169  1.00  0.00     0.055 A 
HETATM    8  C7  UNK     1      20.216  -1.388  31.690  1.00  0.00     0.093 A 
HETATM    9  C8  UNK     1      19.630  -2.645  36.403  1.00  0.00     0.080 A 
HETATM   10  C9  UNK     1      18.514  -0.718  35.460  1.00  0.00     0.041 A 
HETATM   11  C10 UNK     1      18.777  -1.550  36.548  1.00  0.00     0.040 A 
ENDROOT
BRANCH   9  12
HETATM   12  O2  UNK     1      19.881  -3.455  37.468  1.00  0.00    -0.275 OA
BRANCH  12  13
HETATM   13  C17 UNK     1      20.535  -4.646  37.144  1.00  0.00     0.298 C 
HETATM   14  O4  UNK     1      21.720  -4.880  37.329  1.00  0.00    -0.259 OA
BRANCH  13  15
HETATM   15  C15 UNK     1      19.597  -5.626  36.541  1.00  0.00     0.039 A 
HETATM   16  C18 UNK     1      18.302  -5.687  37.013  1.00  0.00     0.017 A 
HETATM   17  C20 UNK     1      17.420  -6.607  36.447  1.00  0.00     0.001 A 
HETATM   18  C22 UNK     1      17.853  -7.447  35.421  1.00  0.00     0.000 A 
HETATM   19  C21 UNK     1      19.168  -7.366  34.960  1.00  0.00     0.001 A 
HETATM   20  C19 UNK     1      20.049  -6.446  35.528  1.00  0.00     0.017 A 
ENDBRANCH  13  15
ENDBRANCH  12  13
ENDBRANCH   9  12
BRANCH   5  21
HETATM   21  C6  UNK     1      18.997   0.608  30.914  1.00  0.00    -0.002 A 
HETATM   22  C11 UNK     1      18.634   1.909  31.271  1.00  0.00     0.014 A 
HETATM   23  C13 UNK     1      18.264   2.827  30.288  1.00  0.00     0.001 A 
HETATM   24  C16 UNK     1      18.256   2.447  28.946  1.00  0.00     0.000 A 
HETATM   25  C14 UNK     1      18.619   1.149  28.587  1.00  0.00     0.001 A 
HETATM   26  C12 UNK     1      18.988   0.230  29.570  1.00  0.00     0.014 A 
ENDBRANCH   5  21
TORSDOF 4
ENDMDL
MODEL 8
REMARK VINA RESULT:      -8.9      1.695      9.479
REMARK  4 active torsions:
REMARK  status: ('A' for Active; 'I' for Inactive)
REMARK    1  A    between atoms: C17_21  and  O2_2 
REMARK    2  A    between atoms: C8_12  and  O2_2 
REMARK    3  A    between atoms: C3_7  and  C6_10 
REMARK    4  A    between atoms: C15_19  and  C17_21 
ROOT
HETATM    1  O1  UNK     1      16.092   9.105  33.943  1.00  0.00    -0.309 OA
HETATM    2  O3  UNK     1      13.921   6.528  31.653  1.00  0.00    -0.287 OA
HETATM    3  C1  UNK     1      16.033   7.135  32.523  1.00  0.00     0.051 A 
HETATM    4  C2  UNK     1      16.715   8.052  33.321  1.00  0.00     0.090 A 
HETATM    5  C3  UNK     1      14.727   9.265  33.763  1.00  0.00     0.090 A 
HETATM    6  C4  UNK     1      14.583   7.297  32.338  1.00  0.00     0.187 A 
HETATM    7  C5  UNK     1      16.719   6.082  31.913  1.00  0.00     0.055 A 
HETATM    8  C7  UNK     1      13.961   8.445  33.026  1.00  0.00     0.093 A 
HETATM    9  C8  UNK     1      18.094   5.953  32.109  1.00  0.00     0.080 A 
HETATM   10  C9  UNK     1      18.090   7.921  33.515  1.00  0.00     0.041 A 
HETATM   11  C10 UNK     1      18.778   6.870  32.908  1.00  0.00     0.040 A 
ENDROOT
BRANCH   9  12
HETATM   12  O2  UNK     1      18.772   4.928  31.521  1.00  0.00    -0.275 OA
BRANCH  12  13
HETATM   13  C17 UNK     1      18.364   3.658  31.934  1.00  0.00     0.298 C 
HETATM   14  O4  UNK     1      17.952   3.370  33.047  1.00  0.00    -0.259 OA
BRANCH  13  15
HETATM   15  C15 UNK     1      18.484   2.671  30.830  1.00  0.00     0.039 A 
HETATM   16  C18 UNK     1      17.897   2.957  29.614  1.00  0.00     0.017 A 
HETATM   17  C20 UNK     1      18.009   2.031  28.577  1.00  0.00     0.001 A 
HETATM   18  C22 UNK     1      18.705   0.840  28.779  1.00  0.00     0.000 A 
HETATM   19  C21 UNK     1      19.290   0.574  30.018  1.00  0.00     0.001 A 
HETATM   20  C19 UNK     1      19.177   1.500  31.055  1.00  0.00     0.017 A 
ENDBRANCH  13  15
ENDBRANCH  12  13
ENDBRANCH   9  12
BRANCH   5  21
HETATM   21  C6  UNK     1      14.158  10.424  34.481  1.00  0.00    -0.002 A 
HETATM   22  C11 UNK     1      13.249  11.269  33.840  1.00  0.00     0.014 A 
HETATM   23  C13 UNK     1      12.713  12.364  34.519  1.00  0.00     0.001 A 
HETATM   24  C16 UNK     1      13.082  12.615  35.840  1.00  0.00     0.000 A 
HETATM   25  C14 UNK     1      13.989  11.772  36.483  1.00  0.00     0.001 A 
HETATM   26  C12 UNK     1      14.526  10.678  35.804  1.00  0.00     0.014 A 
ENDBRANCH   5  21
TORSDOF 4
ENDMDL
MODEL 9
REMARK VINA RESULT:      -8.8      1.929      8.703
REMARK  4 active torsions:
REMARK  status: ('A' for Active; 'I' for Inactive)
REMARK    1  A    between atoms: C17_21  and  O2_2 
REMARK    2  A    between atoms: C8_12  and  O2_2 
REMARK    3  A    between atoms: C3_7  and  C6_10 
REMARK    4  A    between atoms: C15_19  and  C17_21 
ROOT
HETATM    1  O1  UNK     1      18.888   6.217  31.935  1.00  0.00    -0.309 OA
HETATM    2  O3  UNK     1      18.083   3.305  34.668  1.00  0.00    -0.287 OA
HETATM    3  C1  UNK     1      18.462   3.872  32.406  1.00  0.00     0.051 A 
HETATM    4  C2  UNK     1      18.740   4.916  31.524  1.00  0.00     0.090 A 
HETATM    5  C3  UNK     1      18.747   6.504  33.283  1.00  0.00     0.090 A 
HETATM    6  C4  UNK     1      18.323   4.172  33.838  1.00  0.00     0.187 A 
HETATM    7  C5  UNK     1      18.322   2.565  31.931  1.00  0.00     0.055 A 
HETATM    8  C7  UNK     1      18.489   5.586  34.228  1.00  0.00     0.093 A 
HETATM    9  C8  UNK     1      18.462   2.311  30.567  1.00  0.00     0.080 A 
HETATM   10  C9  UNK     1      18.879   4.658  30.161  1.00  0.00     0.041 A 
HETATM   11  C10 UNK     1      18.740   3.355  29.683  1.00  0.00     0.040 A 
ENDROOT
BRANCH   9  12
HETATM   12  O2  UNK     1      18.328   1.040  30.095  1.00  0.00    -0.275 OA
BRANCH  12  13
HETATM   13  C17 UNK     1      19.532   0.341  29.979  1.00  0.00     0.298 C 
HETATM   14  O4  UNK     1      20.338   0.458  29.069  1.00  0.00    -0.259 OA
BRANCH  13  15
HETATM   15  C15 UNK     1      19.729  -0.580  31.128  1.00  0.00     0.039 A 
HETATM   16  C18 UNK     1      18.841  -0.529  32.183  1.00  0.00     0.017 A 
HETATM   17  C20 UNK     1      19.026  -1.393  33.262  1.00  0.00     0.001 A 
HETATM   18  C22 UNK     1      20.094  -2.290  33.262  1.00  0.00     0.000 A 
HETATM   19  C21 UNK     1      20.978  -2.323  32.183  1.00  0.00     0.001 A 
HETATM   20  C19 UNK     1      20.793  -1.457  31.104  1.00  0.00     0.017 A 
ENDBRANCH  13  15
ENDBRANCH  12  13
ENDBRANCH   9  12
BRANCH   5  21
HETATM   21  C6  UNK     1      18.933   7.931  33.616  1.00  0.00    -0.002 A 
HETATM   22  C11 UNK     1      17.881   8.834  33.444  1.00  0.00     0.014 A 
HETATM   23  C13 UNK     1      18.056  10.182  33.757  1.00  0.00     0.001 A 
HETATM   24  C16 UNK     1      19.284  10.631  34.245  1.00  0.00     0.000 A 
HETATM   25  C14 UNK     1      20.336   9.731  34.419  1.00  0.00     0.001 A 
HETATM   26  C12 UNK     1      20.160   8.383  34.104  1.00  0.00     0.014 A 
ENDBRANCH   5  21
TORSDOF 4
ENDMDL
MODEL 10
REMARK VINA RESULT:      -8.7      2.059      9.032
REMARK  4 active torsions:
REMARK  status: ('A' for Active; 'I' for Inactive)
REMARK    1  A    between atoms: C17_21  and  O2_2 
REMARK    2  A    between atoms: C8_12  and  O2_2 
REMARK    3  A    between atoms: C3_7  and  C6_10 
REMARK    4  A    between atoms: C15_19  and  C17_21 
ROOT
HETATM    1  O1  UNK     1      18.677   5.598  34.038  1.00  0.00    -0.309 OA
HETATM    2  O3  UNK     1      18.598   4.536  30.106  1.00  0.00    -0.287 OA
HETATM    3  C1  UNK     1      18.449   3.853  32.363  1.00  0.00     0.051 A 
HETATM    4  C2  UNK     1      18.485   4.285  33.689  1.00  0.00     0.090 A 
HETATM    5  C3  UNK     1      18.849   6.532  33.029  1.00  0.00     0.090 A 
HETATM    6  C4  UNK     1      18.621   4.843  31.290  1.00  0.00     0.187 A 
HETATM    7  C5  UNK     1      18.250   2.502  32.066  1.00  0.00     0.055 A 
HETATM    8  C7  UNK     1      18.826   6.241  31.719  1.00  0.00     0.093 A 
HETATM    9  C8  UNK     1      18.087   1.586  33.105  1.00  0.00     0.080 A 
HETATM   10  C9  UNK     1      18.322   3.366  34.725  1.00  0.00     0.041 A 
HETATM   11  C10 UNK     1      18.123   2.017  34.432  1.00  0.00     0.040 A 
ENDROOT
BRANCH   9  12
HETATM   12  O2  UNK     1      17.891   0.268  32.825  1.00  0.00    -0.275 OA
BRANCH  12  13
HETATM   13  C17 UNK     1      19.043  -0.517  32.917  1.00  0.00     0.298 C 
HETATM   14  O4  UNK     1      19.523  -0.956  33.951  1.00  0.00    -0.259 OA
BRANCH  13  15
HETATM   15  C15 UNK     1      19.627  -0.772  31.576  1.00  0.00     0.039 A 
HETATM   16  C18 UNK     1      19.962  -2.065  31.230  1.00  0.00     0.017 A 
HETATM   17  C20 UNK     1      20.510  -2.306  29.971  1.00  0.00     0.001 A 
HETATM   18  C22 UNK     1      20.712  -1.248  29.085  1.00  0.00     0.000 A 
HETATM   19  C21 UNK     1      20.366   0.051  29.458  1.00  0.00     0.001 A 
HETATM   20  C19 UNK     1      19.818   0.291  30.719  1.00  0.00     0.017 A 
ENDBRANCH  13  15
ENDBRANCH  12  13
ENDBRANCH   9  12
BRANCH   5  21
HETATM   21  C6  UNK     1      19.041   7.913  33.516  1.00  0.00    -0.002 A 
HETATM   22  C11 UNK     1      18.001   8.841  33.420  1.00  0.00     0.014 A 
HETATM   23  C13 UNK     1      18.182  10.146  33.879  1.00  0.00     0.001 A 
HETATM   24  C16 UNK     1      19.403  10.526  34.437  1.00  0.00     0.000 A 
HETATM   25  C14 UNK     1      20.443   9.602  34.534  1.00  0.00     0.001 A 
HETATM   26  C12 UNK     1      20.262   8.297  34.074  1.00  0.00     0.014 A 
ENDBRANCH   5  21
TORSDOF 4
ENDMDL
