MODEL 1
REMARK VINA RESULT:      -8.2      0.000      0.000
REMARK  3 active torsions:
REMARK  status: ('A' for Active; 'I' for Inactive)
REMARK    1  A    between atoms: C6_10  and  O2_2 
REMARK    2  A    between atoms: C15_19  and  O3_3 
REMARK    3  A    between atoms: C2_6  and  C5_9 
ROOT
HETATM    1  O1  UNK     1      18.220   1.810  32.336  1.00  0.00    -0.271 OA
HETATM    2  O4  UNK     1      18.122   3.727  31.102  1.00  0.00    -0.259 OA
HETATM    3  C1  UNK     1      18.426   1.932  34.751  1.00  0.00     0.002 A 
HETATM    4  C2  UNK     1      18.290   3.992  33.461  1.00  0.00     0.051 A 
HETATM    5  C3  UNK     1      18.335   1.178  33.587  1.00  0.00     0.123 A 
HETATM    6  C4  UNK     1      18.394   3.382  34.651  1.00  0.00     0.032 A 
HETATM    7  C6  UNK     1      18.356  -0.215  33.612  1.00  0.00     0.102 A 
HETATM    8  C7  UNK     1      18.201   3.196  32.206  1.00  0.00     0.299 A 
HETATM    9  C8  UNK     1      18.540   1.271  35.977  1.00  0.00     0.014 A 
HETATM   10  C11 UNK     1      18.471  -0.867  34.838  1.00  0.00     0.040 A 
HETATM   11  C12 UNK     1      18.563  -0.126  36.018  1.00  0.00     0.004 A 
ENDROOT
BRANCH   4  12
HETATM   12  C5  UNK     1      18.246   5.466  33.413  1.00  0.00    -0.020 A 
HETATM   13  C10 UNK     1      19.399   6.205  33.672  1.00  0.00     0.015 A 
HETATM   14  C14 UNK     1      19.357   7.600  33.626  1.00  0.00     0.037 A 
HETATM   15  C15 UNK     1      18.163   8.252  33.321  1.00  0.00     0.068 A 
HETATM   16  C13 UNK     1      17.010   7.511  33.062  1.00  0.00     0.037 A 
HETATM   17  C9  UNK     1      17.052   6.117  33.107  1.00  0.00     0.015 A 
BRANCH  15  18
HETATM   18  O3  UNK     1      18.122   9.611  33.276  1.00  0.00    -0.356 OA
HETATM   19  C17 UNK     1      17.121  10.257  34.060  1.00  0.00     0.210 C 
ENDBRANCH  15  18
ENDBRANCH   4  12
BRANCH   7  20
HETATM   20  O2  UNK     1      18.266  -0.940  32.465  1.00  0.00    -0.353 OA
HETATM   21  C16 UNK     1      19.471  -1.524  31.968  1.00  0.00     0.210 C 
ENDBRANCH   7  20
TORSDOF 3
ENDMDL
MODEL 2
REMARK VINA RESULT:      -8.0      2.308      3.533
REMARK  3 active torsions:
REMARK  status: ('A' for Active; 'I' for Inactive)
REMARK    1  A    between atoms: C6_10  and  O2_2 
REMARK    2  A    between atoms: C15_19  and  O3_3 
REMARK    3  A    between atoms: C2_6  and  C5_9 
ROOT
HETATM    1  O1  UNK     1      18.816   0.644  32.612  1.00  0.00    -0.271 OA
HETATM    2  O4  UNK     1      17.964   2.439  33.732  1.00  0.00    -0.259 OA
HETATM    3  C1  UNK     1      19.462   0.864  30.282  1.00  0.00     0.002 A 
HETATM    4  C2  UNK     1      18.587   2.804  31.465  1.00  0.00     0.051 A 
HETATM    5  C3  UNK     1      19.324   0.085  31.425  1.00  0.00     0.123 A 
HETATM    6  C4  UNK     1      19.077   2.265  30.338  1.00  0.00     0.032 A 
HETATM    7  C6  UNK     1      19.676  -1.263  31.441  1.00  0.00     0.102 A 
HETATM    8  C7  UNK     1      18.425   1.977  32.693  1.00  0.00     0.299 A 
HETATM    9  C8  UNK     1      19.969   0.275  29.121  1.00  0.00     0.014 A 
HETATM   10  C11 UNK     1      20.180  -1.843  30.279  1.00  0.00     0.040 A 
HETATM   11  C12 UNK     1      20.326  -1.076  29.122  1.00  0.00     0.004 A 
ENDROOT
BRANCH   4  12
HETATM   12  C5  UNK     1      18.226   4.234  31.476  1.00  0.00    -0.020 A 
HETATM   13  C10 UNK     1      18.706   5.080  30.477  1.00  0.00     0.015 A 
HETATM   14  C14 UNK     1      18.365   6.433  30.487  1.00  0.00     0.037 A 
HETATM   15  C15 UNK     1      17.544   6.938  31.496  1.00  0.00     0.068 A 
HETATM   16  C13 UNK     1      17.065   6.090  32.495  1.00  0.00     0.037 A 
HETATM   17  C9  UNK     1      17.406   4.737  32.485  1.00  0.00     0.015 A 
BRANCH  15  18
HETATM   18  O3  UNK     1      17.211   8.257  31.506  1.00  0.00    -0.356 OA
HETATM   19  C17 UNK     1      15.875   8.586  31.882  1.00  0.00     0.210 C 
ENDBRANCH  15  18
ENDBRANCH   4  12
BRANCH   7  20
HETATM   20  O2  UNK     1      19.535  -2.014  32.566  1.00  0.00    -0.353 OA
HETATM   21  C16 UNK     1      20.720  -2.589  33.118  1.00  0.00     0.210 C 
ENDBRANCH   7  20
TORSDOF 3
ENDMDL
MODEL 3
REMARK VINA RESULT:      -7.9      4.587     10.092
REMARK  3 active torsions:
REMARK  status: ('A' for Active; 'I' for Inactive)
REMARK    1  A    between atoms: C6_10  and  O2_2 
REMARK    2  A    between atoms: C15_19  and  O3_3 
REMARK    3  A    between atoms: C2_6  and  C5_9 
ROOT
HETATM    1  O1  UNK     1      19.631  -1.149  34.838  1.00  0.00    -0.271 OA
HETATM    2  O4  UNK     1      20.742  -3.049  34.235  1.00  0.00    -0.259 OA
HETATM    3  C1  UNK     1      18.486  -1.042  36.975  1.00  0.00     0.002 A 
HETATM    4  C2  UNK     1      19.692  -3.068  36.370  1.00  0.00     0.051 A 
HETATM    5  C3  UNK     1      18.843  -0.450  35.770  1.00  0.00     0.123 A 
HETATM    6  C4  UNK     1      18.945  -2.393  37.257  1.00  0.00     0.032 A 
HETATM    7  C6  UNK     1      18.440   0.842  35.439  1.00  0.00     0.102 A 
HETATM    8  C7  UNK     1      20.074  -2.448  35.071  1.00  0.00     0.299 A 
HETATM    9  C8  UNK     1      17.701  -0.318  37.877  1.00  0.00     0.014 A 
HETATM   10  C11 UNK     1      17.658   1.558  36.343  1.00  0.00     0.040 A 
HETATM   11  C12 UNK     1      17.289   0.979  37.559  1.00  0.00     0.004 A 
ENDROOT
BRANCH   4  12
HETATM   12  C5  UNK     1      20.147  -4.430  36.709  1.00  0.00    -0.020 A 
HETATM   13  C10 UNK     1      21.173  -4.610  37.635  1.00  0.00     0.015 A 
HETATM   14  C14 UNK     1      21.604  -5.898  37.957  1.00  0.00     0.037 A 
HETATM   15  C15 UNK     1      21.007  -7.004  37.351  1.00  0.00     0.068 A 
HETATM   16  C13 UNK     1      19.980  -6.822  36.425  1.00  0.00     0.037 A 
HETATM   17  C9  UNK     1      19.550  -5.534  36.104  1.00  0.00     0.015 A 
BRANCH  15  18
HETATM   18  O3  UNK     1      21.426  -8.260  37.664  1.00  0.00    -0.356 OA
HETATM   19  C17 UNK     1      22.703  -8.660  37.170  1.00  0.00     0.210 C 
ENDBRANCH  15  18
ENDBRANCH   4  12
BRANCH   7  20
HETATM   20  O2  UNK     1      18.797   1.409  34.256  1.00  0.00    -0.353 OA
HETATM   21  C16 UNK     1      18.224   2.679  33.942  1.00  0.00     0.210 C 
ENDBRANCH   7  20
TORSDOF 3
ENDMDL
MODEL 4
REMARK VINA RESULT:      -7.8     24.659     26.260
REMARK  3 active torsions:
REMARK  status: ('A' for Active; 'I' for Inactive)
REMARK    1  A    between atoms: C6_10  and  O2_2 
REMARK    2  A    between atoms: C15_19  and  O3_3 
REMARK    3  A    between atoms: C2_6  and  C5_9 
ROOT
HETATM    1  O1  UNK     1      10.791   7.776   9.534  1.00  0.00    -0.271 OA
HETATM    2  O4  UNK     1      12.278   8.802  10.927  1.00  0.00    -0.259 OA
HETATM    3  C1  UNK     1      11.476   7.124   7.299  1.00  0.00     0.002 A 
HETATM    4  C2  UNK     1      13.091   8.187   8.777  1.00  0.00     0.051 A 
HETATM    5  C3  UNK     1      10.498   7.204   8.283  1.00  0.00     0.123 A 
HETATM    6  C4  UNK     1      12.806   7.635   7.588  1.00  0.00     0.032 A 
HETATM    7  C6  UNK     1       9.204   6.731   8.073  1.00  0.00     0.102 A 
HETATM    8  C7  UNK     1      12.050   8.288   9.836  1.00  0.00     0.299 A 
HETATM    9  C8  UNK     1      11.148   6.550   6.067  1.00  0.00     0.014 A 
HETATM   10  C11 UNK     1       8.886   6.161   6.842  1.00  0.00     0.040 A 
HETATM   11  C12 UNK     1       9.855   6.071   5.841  1.00  0.00     0.004 A 
ENDROOT
BRANCH   4  12
HETATM   12  C5  UNK     1      14.460   8.676   9.028  1.00  0.00    -0.020 A 
HETATM   13  C10 UNK     1      14.857   9.917   8.532  1.00  0.00     0.015 A 
HETATM   14  C14 UNK     1      16.152  10.381   8.770  1.00  0.00     0.037 A 
HETATM   15  C15 UNK     1      17.047   9.603   9.504  1.00  0.00     0.068 A 
HETATM   16  C13 UNK     1      16.648   8.362  10.001  1.00  0.00     0.037 A 
HETATM   17  C9  UNK     1      15.354   7.899   9.763  1.00  0.00     0.015 A 
BRANCH  15  18
HETATM   18  O3  UNK     1      18.309  10.055   9.737  1.00  0.00    -0.356 OA
HETATM   19  C17 UNK     1      18.518  11.465   9.663  1.00  0.00     0.210 C 
ENDBRANCH  15  18
ENDBRANCH   4  12
BRANCH   7  20
HETATM   20  O2  UNK     1       8.257   6.817   9.045  1.00  0.00    -0.353 OA
HETATM   21  C16 UNK     1       7.769   5.590   9.589  1.00  0.00     0.210 C 
ENDBRANCH   7  20
TORSDOF 3
ENDMDL
MODEL 5
REMARK VINA RESULT:      -7.7      1.460      1.891
REMARK  3 active torsions:
REMARK  status: ('A' for Active; 'I' for Inactive)
REMARK    1  A    between atoms: C6_10  and  O2_2 
REMARK    2  A    between atoms: C15_19  and  O3_3 
REMARK    3  A    between atoms: C2_6  and  C5_9 
ROOT
HETATM    1  O1  UNK     1      19.043   2.723  30.501  1.00  0.00    -0.271 OA
HETATM    2  O4  UNK     1      18.973   4.918  29.882  1.00  0.00    -0.259 OA
HETATM    3  C1  UNK     1      18.430   2.080  32.760  1.00  0.00     0.002 A 
HETATM    4  C2  UNK     1      18.315   4.425  32.115  1.00  0.00     0.051 A 
HETATM    5  C3  UNK     1      18.871   1.735  31.487  1.00  0.00     0.123 A 
HETATM    6  C4  UNK     1      18.147   3.477  33.049  1.00  0.00     0.032 A 
HETATM    7  C6  UNK     1      19.157   0.416  31.142  1.00  0.00     0.102 A 
HETATM    8  C7  UNK     1      18.795   4.070  30.751  1.00  0.00     0.299 A 
HETATM    9  C8  UNK     1      18.271   1.073  33.715  1.00  0.00     0.014 A 
HETATM   10  C11 UNK     1      18.996  -0.582  32.100  1.00  0.00     0.040 A 
HETATM   11  C12 UNK     1      18.555  -0.255  33.384  1.00  0.00     0.004 A 
ENDROOT
BRANCH   4  12
HETATM   12  C5  UNK     1      17.998   5.825  32.452  1.00  0.00    -0.020 A 
HETATM   13  C10 UNK     1      18.986   6.653  32.985  1.00  0.00     0.015 A 
HETATM   14  C14 UNK     1      18.687   7.978  33.304  1.00  0.00     0.037 A 
HETATM   15  C15 UNK     1      17.401   8.475  33.089  1.00  0.00     0.068 A 
HETATM   16  C13 UNK     1      16.414   7.645  32.555  1.00  0.00     0.037 A 
HETATM   17  C9  UNK     1      16.713   6.320  32.236  1.00  0.00     0.015 A 
BRANCH  15  18
HETATM   18  O3  UNK     1      17.110   9.767  33.398  1.00  0.00    -0.356 OA
HETATM   19  C17 UNK     1      16.167   9.986  34.447  1.00  0.00     0.210 C 
ENDBRANCH  15  18
ENDBRANCH   4  12
BRANCH   7  20
HETATM   20  O2  UNK     1      19.587   0.093  29.893  1.00  0.00    -0.353 OA
HETATM   21  C16 UNK     1      20.457  -1.033  29.776  1.00  0.00     0.210 C 
ENDBRANCH   7  20
TORSDOF 3
ENDMDL
MODEL 6
REMARK VINA RESULT:      -7.6      1.845      3.141
REMARK  3 active torsions:
REMARK  status: ('A' for Active; 'I' for Inactive)
REMARK    1  A    between atoms: C6_10  and  O2_2 
REMARK    2  A    between atoms: C15_19  and  O3_3 
REMARK    3  A    between atoms: C2_6  and  C5_9 
ROOT
HETATM    1  O1  UNK     1      18.746   1.569  32.966  1.00  0.00    -0.271 OA
HETATM    2  O4  UNK     1      18.203   3.226  34.437  1.00  0.00    -0.259 OA
HETATM    3  C1  UNK     1      18.930   2.063  30.597  1.00  0.00     0.002 A 
HETATM    4  C2  UNK     1      18.382   3.856  32.149  1.00  0.00     0.051 A 
HETATM    5  C3  UNK     1      18.989   1.152  31.645  1.00  0.00     0.123 A 
HETATM    6  C4  UNK     1      18.621   3.453  30.892  1.00  0.00     0.032 A 
HETATM    7  C6  UNK     1      19.283  -0.193  31.433  1.00  0.00     0.102 A 
HETATM    8  C7  UNK     1      18.433   2.888  33.280  1.00  0.00     0.299 A 
HETATM    9  C8  UNK     1      19.176   1.613  29.297  1.00  0.00     0.014 A 
HETATM   10  C11 UNK     1      19.526  -0.634  30.133  1.00  0.00     0.040 A 
HETATM   11  C12 UNK     1      19.473   0.267  29.068  1.00  0.00     0.004 A 
ENDROOT
BRANCH   4  12
HETATM   12  C5  UNK     1      18.089   5.280  32.400  1.00  0.00    -0.020 A 
HETATM   13  C10 UNK     1      16.790   5.762  32.236  1.00  0.00     0.015 A 
HETATM   14  C14 UNK     1      16.512   7.108  32.474  1.00  0.00     0.037 A 
HETATM   15  C15 UNK     1      17.531   7.971  32.875  1.00  0.00     0.068 A 
HETATM   16  C13 UNK     1      18.830   7.488  33.039  1.00  0.00     0.037 A 
HETATM   17  C9  UNK     1      19.108   6.141  32.802  1.00  0.00     0.015 A 
BRANCH  15  18
HETATM   18  O3  UNK     1      17.260   9.284  33.108  1.00  0.00    -0.356 OA
HETATM   19  C17 UNK     1      18.203  10.012  33.893  1.00  0.00     0.210 C 
ENDBRANCH  15  18
ENDBRANCH   4  12
BRANCH   7  20
HETATM   20  O2  UNK     1      19.337  -1.074  32.467  1.00  0.00    -0.353 OA
HETATM   21  C16 UNK     1      20.365  -2.063  32.428  1.00  0.00     0.210 C 
ENDBRANCH   7  20
TORSDOF 3
ENDMDL
MODEL 7
REMARK VINA RESULT:      -7.6      2.257      7.746
REMARK  3 active torsions:
REMARK  status: ('A' for Active; 'I' for Inactive)
REMARK    1  A    between atoms: C6_10  and  O2_2 
REMARK    2  A    between atoms: C15_19  and  O3_3 
REMARK    3  A    between atoms: C2_6  and  C5_9 
ROOT
HETATM    1  O1  UNK     1      17.076   8.139  32.885  1.00  0.00    -0.271 OA
HETATM    2  O4  UNK     1      16.044   6.335  31.943  1.00  0.00    -0.259 OA
HETATM    3  C1  UNK     1      19.407   7.994  33.546  1.00  0.00     0.002 A 
HETATM    4  C2  UNK     1      18.339   6.065  32.513  1.00  0.00     0.051 A 
HETATM    5  C3  UNK     1      18.226   8.720  33.450  1.00  0.00     0.123 A 
HETATM    6  C4  UNK     1      19.433   6.628  33.047  1.00  0.00     0.032 A 
HETATM    7  C6  UNK     1      18.133  10.033  33.905  1.00  0.00     0.102 A 
HETATM    8  C7  UNK     1      17.065   6.829  32.413  1.00  0.00     0.299 A 
HETATM    9  C8  UNK     1      20.530   8.602  34.113  1.00  0.00     0.014 A 
HETATM   10  C11 UNK     1      19.256  10.633  34.470  1.00  0.00     0.040 A 
HETATM   11  C12 UNK     1      20.452   9.919  34.574  1.00  0.00     0.004 A 
ENDROOT
BRANCH   4  12
HETATM   12  C5  UNK     1      18.420   4.683  32.006  1.00  0.00    -0.020 A 
HETATM   13  C10 UNK     1      18.711   4.450  30.662  1.00  0.00     0.015 A 
HETATM   14  C14 UNK     1      18.789   3.142  30.182  1.00  0.00     0.037 A 
HETATM   15  C15 UNK     1      18.576   2.068  31.047  1.00  0.00     0.068 A 
HETATM   16  C13 UNK     1      18.285   2.302  32.391  1.00  0.00     0.037 A 
HETATM   17  C9  UNK     1      18.208   3.610  32.871  1.00  0.00     0.015 A 
BRANCH  15  18
HETATM   18  O3  UNK     1      18.652   0.793  30.580  1.00  0.00    -0.356 OA
HETATM   19  C17 UNK     1      19.769   0.471  29.752  1.00  0.00     0.210 C 
ENDBRANCH  15  18
ENDBRANCH   4  12
BRANCH   7  20
HETATM   20  O2  UNK     1      16.971  10.732  33.805  1.00  0.00    -0.353 OA
HETATM   21  C16 UNK     1      16.983  12.085  34.260  1.00  0.00     0.210 C 
ENDBRANCH   7  20
TORSDOF 3
ENDMDL
MODEL 8
REMARK VINA RESULT:      -7.6     15.569     18.795
REMARK  3 active torsions:
REMARK  status: ('A' for Active; 'I' for Inactive)
REMARK    1  A    between atoms: C6_10  and  O2_2 
REMARK    2  A    between atoms: C15_19  and  O3_3 
REMARK    3  A    between atoms: C2_6  and  C5_9 
ROOT
HETATM    1  O1  UNK     1      19.343   1.207  16.582  1.00  0.00    -0.271 OA
HETATM    2  O4  UNK     1      19.404   0.132  14.571  1.00  0.00    -0.259 OA
HETATM    3  C1  UNK     1      19.051  -0.065  18.628  1.00  0.00     0.002 A 
HETATM    4  C2  UNK     1      19.145  -1.239  16.498  1.00  0.00     0.051 A 
HETATM    5  C3  UNK     1      19.212   1.154  17.982  1.00  0.00     0.123 A 
HETATM    6  C4  UNK     1      19.026  -1.282  17.833  1.00  0.00     0.032 A 
HETATM    7  C6  UNK     1      19.248   2.358  18.683  1.00  0.00     0.102 A 
HETATM    8  C7  UNK     1      19.309   0.062  15.792  1.00  0.00     0.299 A 
HETATM    9  C8  UNK     1      18.922  -0.080  20.019  1.00  0.00     0.014 A 
HETATM   10  C11 UNK     1      19.118   2.335  20.070  1.00  0.00     0.040 A 
HETATM   11  C12 UNK     1      18.955   1.119  20.737  1.00  0.00     0.004 A 
ENDROOT
BRANCH   4  12
HETATM   12  C5  UNK     1      19.131  -2.503  15.737  1.00  0.00    -0.020 A 
HETATM   13  C10 UNK     1      20.332  -3.090  15.340  1.00  0.00     0.015 A 
HETATM   14  C14 UNK     1      20.319  -4.286  14.621  1.00  0.00     0.037 A 
HETATM   15  C15 UNK     1      19.105  -4.893  14.300  1.00  0.00     0.068 A 
HETATM   16  C13 UNK     1      17.904  -4.305  14.698  1.00  0.00     0.037 A 
HETATM   17  C9  UNK     1      17.917  -3.109  15.417  1.00  0.00     0.015 A 
BRANCH  15  18
HETATM   18  O3  UNK     1      19.091  -6.059  13.600  1.00  0.00    -0.356 OA
HETATM   19  C17 UNK     1      20.313  -6.794  13.539  1.00  0.00     0.210 C 
ENDBRANCH  15  18
ENDBRANCH   4  12
BRANCH   7  20
HETATM   20  O2  UNK     1      19.406   3.544  18.037  1.00  0.00    -0.353 OA
HETATM   21  C16 UNK     1      20.529   4.344  18.409  1.00  0.00     0.210 C 
ENDBRANCH   7  20
TORSDOF 3
ENDMDL
MODEL 9
REMARK VINA RESULT:      -7.5      2.336      7.781
REMARK  3 active torsions:
REMARK  status: ('A' for Active; 'I' for Inactive)
REMARK    1  A    between atoms: C6_10  and  O2_2 
REMARK    2  A    between atoms: C15_19  and  O3_3 
REMARK    3  A    between atoms: C2_6  and  C5_9 
ROOT
HETATM    1  O1  UNK     1      18.998   8.058  33.193  1.00  0.00    -0.271 OA
HETATM    2  O4  UNK     1      20.427   6.388  32.581  1.00  0.00    -0.259 OA
HETATM    3  C1  UNK     1      16.601   7.745  32.966  1.00  0.00     0.002 A 
HETATM    4  C2  UNK     1      18.104   5.936  32.337  1.00  0.00     0.051 A 
HETATM    5  C3  UNK     1      17.683   8.542  33.321  1.00  0.00     0.123 A 
HETATM    6  C4  UNK     1      16.853   6.403  32.467  1.00  0.00     0.032 A 
HETATM    7  C6  UNK     1      17.513   9.836  33.809  1.00  0.00     0.102 A 
HETATM    8  C7  UNK     1      19.272   6.783  32.705  1.00  0.00     0.299 A 
HETATM    9  C8  UNK     1      15.310   8.259  33.105  1.00  0.00     0.014 A 
HETATM   10  C11 UNK     1      16.222  10.342  33.944  1.00  0.00     0.040 A 
HETATM   11  C12 UNK     1      15.122   9.556  33.593  1.00  0.00     0.004 A 
ENDROOT
BRANCH   4  12
HETATM   12  C5  UNK     1      18.307   4.562  31.842  1.00  0.00    -0.020 A 
HETATM   13  C10 UNK     1      18.154   3.480  32.708  1.00  0.00     0.015 A 
HETATM   14  C14 UNK     1      18.345   2.180  32.240  1.00  0.00     0.037 A 
HETATM   15  C15 UNK     1      18.689   1.962  30.906  1.00  0.00     0.068 A 
HETATM   16  C13 UNK     1      18.841   3.045  30.040  1.00  0.00     0.037 A 
HETATM   17  C9  UNK     1      18.650   4.345  30.508  1.00  0.00     0.015 A 
BRANCH  15  18
HETATM   18  O3  UNK     1      18.875   0.694  30.449  1.00  0.00    -0.356 OA
HETATM   19  C17 UNK     1      19.487   0.550  29.168  1.00  0.00     0.210 C 
ENDBRANCH  15  18
ENDBRANCH   4  12
BRANCH   7  20
HETATM   20  O2  UNK     1      18.581  10.605  34.151  1.00  0.00    -0.353 OA
HETATM   21  C16 UNK     1      18.394  12.021  34.142  1.00  0.00     0.210 C 
ENDBRANCH   7  20
TORSDOF 3
ENDMDL
MODEL 10
REMARK VINA RESULT:      -7.4     13.121     15.168
REMARK  3 active torsions:
REMARK  status: ('A' for Active; 'I' for Inactive)
REMARK    1  A    between atoms: C6_10  and  O2_2 
REMARK    2  A    between atoms: C15_19  and  O3_3 
REMARK    3  A    between atoms: C2_6  and  C5_9 
ROOT
HETATM    1  O1  UNK     1      25.915  -5.452  38.870  1.00  0.00    -0.271 OA
HETATM    2  O4  UNK     1      23.643  -5.271  38.974  1.00  0.00    -0.259 OA
HETATM    3  C1  UNK     1      26.948  -7.638  38.658  1.00  0.00     0.002 A 
HETATM    4  C2  UNK     1      24.521  -7.470  38.734  1.00  0.00     0.051 A 
HETATM    5  C3  UNK     1      27.064  -6.258  38.772  1.00  0.00     0.123 A 
HETATM    6  C4  UNK     1      25.621  -8.231  38.636  1.00  0.00     0.032 A 
HETATM    7  C6  UNK     1      28.304  -5.624  38.796  1.00  0.00     0.102 A 
HETATM    8  C7  UNK     1      24.631  -5.991  38.866  1.00  0.00     0.299 A 
HETATM    9  C8  UNK     1      28.111  -8.407  38.565  1.00  0.00     0.014 A 
HETATM   10  C11 UNK     1      29.459  -6.398  38.703  1.00  0.00     0.040 A 
HETATM   11  C12 UNK     1      29.363  -7.786  38.588  1.00  0.00     0.004 A 
ENDROOT
BRANCH   4  12
HETATM   12  C5  UNK     1      23.196  -8.117  38.690  1.00  0.00    -0.020 A 
HETATM   13  C10 UNK     1      22.669  -8.540  37.471  1.00  0.00     0.015 A 
HETATM   14  C14 UNK     1      21.416  -9.154  37.428  1.00  0.00     0.037 A 
HETATM   15  C15 UNK     1      20.693  -9.344  38.606  1.00  0.00     0.068 A 
HETATM   16  C13 UNK     1      21.222  -8.920  39.825  1.00  0.00     0.037 A 
HETATM   17  C9  UNK     1      22.475  -8.307  39.867  1.00  0.00     0.015 A 
BRANCH  15  18
HETATM   18  O3  UNK     1      19.472  -9.942  38.566  1.00  0.00    -0.356 OA
HETATM   19  C17 UNK     1      18.880 -10.123  37.280  1.00  0.00     0.210 C 
ENDBRANCH  15  18
ENDBRANCH   4  12
BRANCH   7  20
HETATM   20  O2  UNK     1      28.402  -4.272  38.909  1.00  0.00    -0.353 OA
HETATM   21  C16 UNK     1      29.620  -3.750  39.440  1.00  0.00     0.210 C 
ENDBRANCH   7  20
TORSDOF 3
ENDMDL
