MODEL 1
REMARK VINA RESULT:      -8.2      0.000      0.000
REMARK  9 active torsions:
REMARK  status: ('A' for Active; 'I' for Inactive)
REMARK    1  A    between atoms: C5_9  and  N1_3 
REMARK       I    between atoms: C7_11  and  N1_3 
REMARK       I    between atoms: C7_11  and  N2_4 
REMARK    2  A    between atoms: C8_12  and  N2_4 
REMARK    3  A    between atoms: C1_5  and  C2_6 
REMARK    4  A    between atoms: C1_5  and  C3_7 
REMARK    5  A    between atoms: C2_6  and  C4_8 
REMARK    6  A    between atoms: C3_7  and  C5_9 
REMARK    7  A    between atoms: C4_8  and  C6_10 
REMARK    8  A    between atoms: C14_18  and  C9_13 
REMARK    9  A    between atoms: C15_19  and  C16_20 
ROOT
HETATM    1  C8  UNK     1      18.824   4.392  30.929  1.00  0.00     0.036 A 
HETATM    2  C9  UNK     1      17.644   6.641  32.085  1.00  0.00    -0.036 A 
HETATM    3  C10 UNK     1      18.861   5.618  30.265  1.00  0.00     0.030 A 
HETATM    4  C11 UNK     1      18.196   4.291  32.171  1.00  0.00     0.030 A 
HETATM    5  C12 UNK     1      18.271   6.742  30.842  1.00  0.00     0.013 A 
HETATM    6  C13 UNK     1      17.606   5.415  32.748  1.00  0.00     0.013 A 
ENDROOT
BRANCH   1   7
HETATM    7  N2  UNK     1      19.421   3.252  30.344  1.00  0.00    -0.309 N 
HETATM    8  C7  UNK     1      18.784   2.151  29.765  1.00  0.00     0.320 C 
HETATM    9  O1  UNK     1      17.571   1.978  29.661  1.00  0.00    -0.247 OA
HETATM   10  N1  UNK     1      19.727   1.225  29.296  1.00  0.00    -0.343 N 
HETATM   11  H13 UNK     1      20.713   1.438  29.413  1.00  0.00     0.164 HD
HETATM   12  H14 UNK     1      20.438   3.239  30.349  1.00  0.00     0.170 HD
BRANCH  10  13
HETATM   13  C5  UNK     1      19.371  -0.008  28.652  1.00  0.00     0.124 C 
BRANCH  13  14
HETATM   14  C3  UNK     1      20.041  -1.217  29.296  1.00  0.00     0.020 C 
BRANCH  14  15
HETATM   15  C1  UNK     1      20.680  -0.884  30.648  1.00  0.00     0.002 C 
BRANCH  15  16
HETATM   16  C2  UNK     1      20.124  -1.779  31.760  1.00  0.00     0.001 C 
BRANCH  16  17
HETATM   17  C4  UNK     1      18.741  -1.303  32.214  1.00  0.00     0.015 C 
BRANCH  17  18
HETATM   18  C6  UNK     1      18.707  -0.854  33.672  1.00  0.00     0.114 C 
HETATM   19 Cl1  UNK     1      18.337   0.878  33.830  1.00  0.00    -0.130 Cl
ENDBRANCH  17  18
ENDBRANCH  16  17
ENDBRANCH  15  16
ENDBRANCH  14  15
ENDBRANCH  13  14
ENDBRANCH  10  13
ENDBRANCH   1   7
BRANCH   2  20
HETATM   20  C14 UNK     1      17.029   7.813  32.686  1.00  0.00     0.012 C 
HETATM   21  C15 UNK     1      17.673   8.728  33.449  1.00  0.00     0.012 C 
BRANCH  21  22
HETATM   22  C16 UNK     1      17.055   9.927  34.042  1.00  0.00    -0.036 A 
HETATM   23  C17 UNK     1      17.756  11.133  34.068  1.00  0.00     0.011 A 
HETATM   24  C19 UNK     1      17.171  12.268  34.628  1.00  0.00     0.001 A 
HETATM   25  C21 UNK     1      15.886  12.198  35.164  1.00  0.00     0.000 A 
HETATM   26  C20 UNK     1      15.184  10.992  35.139  1.00  0.00     0.001 A 
HETATM   27  C18 UNK     1      15.769   9.856  34.579  1.00  0.00     0.011 A 
ENDBRANCH  21  22
ENDBRANCH   2  20
TORSDOF 9
ENDMDL
MODEL 2
REMARK VINA RESULT:      -7.9      5.975      8.225
REMARK  9 active torsions:
REMARK  status: ('A' for Active; 'I' for Inactive)
REMARK    1  A    between atoms: C5_9  and  N1_3 
REMARK       I    between atoms: C7_11  and  N1_3 
REMARK       I    between atoms: C7_11  and  N2_4 
REMARK    2  A    between atoms: C8_12  and  N2_4 
REMARK    3  A    between atoms: C1_5  and  C2_6 
REMARK    4  A    between atoms: C1_5  and  C3_7 
REMARK    5  A    between atoms: C2_6  and  C4_8 
REMARK    6  A    between atoms: C3_7  and  C5_9 
REMARK    7  A    between atoms: C4_8  and  C6_10 
REMARK    8  A    between atoms: C14_18  and  C9_13 
REMARK    9  A    between atoms: C15_19  and  C16_20 
ROOT
HETATM    1  C8  UNK     1      18.340  -1.123  35.605  1.00  0.00     0.036 A 
HETATM    2  C9  UNK     1      18.276   1.449  34.524  1.00  0.00    -0.036 A 
HETATM    3  C10 UNK     1      18.324  -0.013  36.448  1.00  0.00     0.030 A 
HETATM    4  C11 UNK     1      18.324  -0.947  34.220  1.00  0.00     0.030 A 
HETATM    5  C12 UNK     1      18.292   1.273  35.909  1.00  0.00     0.013 A 
HETATM    6  C13 UNK     1      18.293   0.338  33.681  1.00  0.00     0.013 A 
ENDROOT
BRANCH   1   7
HETATM    7  N2  UNK     1      18.373  -2.427  36.151  1.00  0.00    -0.309 N 
HETATM    8  C7  UNK     1      19.466  -3.293  36.238  1.00  0.00     0.320 C 
HETATM    9  O1  UNK     1      20.610  -3.071  35.848  1.00  0.00    -0.247 OA
HETATM   10  N1  UNK     1      19.092  -4.500  36.847  1.00  0.00    -0.343 N 
HETATM   11  H13 UNK     1      18.129  -4.611  37.149  1.00  0.00     0.164 HD
HETATM   12  H14 UNK     1      17.490  -2.768  36.524  1.00  0.00     0.170 HD
BRANCH  10  13
HETATM   13  C5  UNK     1      20.003  -5.586  37.074  1.00  0.00     0.124 C 
BRANCH  13  14
HETATM   14  C3  UNK     1      19.342  -6.762  37.787  1.00  0.00     0.020 C 
BRANCH  14  15
HETATM   15  C1  UNK     1      20.155  -7.253  38.989  1.00  0.00     0.002 C 
BRANCH  15  16
HETATM   16  C2  UNK     1      19.814  -8.706  39.332  1.00  0.00     0.001 C 
BRANCH  16  17
HETATM   17  C4  UNK     1      19.048  -9.380  38.190  1.00  0.00     0.015 C 
BRANCH  17  18
HETATM   18  C6  UNK     1      19.604 -10.751  37.817  1.00  0.00     0.114 C 
HETATM   19 Cl1  UNK     1      21.256 -10.649  37.169  1.00  0.00    -0.130 Cl
ENDBRANCH  17  18
ENDBRANCH  16  17
ENDBRANCH  15  16
ENDBRANCH  14  15
ENDBRANCH  13  14
ENDBRANCH  10  13
ENDBRANCH   1   7
BRANCH   2  20
HETATM   20  C14 UNK     1      18.243   2.789  33.962  1.00  0.00     0.012 C 
HETATM   21  C15 UNK     1      18.255   3.082  32.640  1.00  0.00     0.012 C 
BRANCH  21  22
HETATM   22  C16 UNK     1      18.201   4.439  32.069  1.00  0.00    -0.036 A 
HETATM   23  C17 UNK     1      17.484   5.442  32.722  1.00  0.00     0.011 A 
HETATM   24  C19 UNK     1      17.433   6.727  32.183  1.00  0.00     0.001 A 
HETATM   25  C21 UNK     1      18.098   7.010  30.991  1.00  0.00     0.000 A 
HETATM   26  C20 UNK     1      18.816   6.008  30.337  1.00  0.00     0.001 A 
HETATM   27  C18 UNK     1      18.866   4.722  30.876  1.00  0.00     0.011 A 
ENDBRANCH  21  22
ENDBRANCH   2  20
TORSDOF 9
ENDMDL
MODEL 3
REMARK VINA RESULT:      -7.8      4.677     11.294
REMARK  9 active torsions:
REMARK  status: ('A' for Active; 'I' for Inactive)
REMARK    1  A    between atoms: C5_9  and  N1_3 
REMARK       I    between atoms: C7_11  and  N1_3 
REMARK       I    between atoms: C7_11  and  N2_4 
REMARK    2  A    between atoms: C8_12  and  N2_4 
REMARK    3  A    between atoms: C1_5  and  C2_6 
REMARK    4  A    between atoms: C1_5  and  C3_7 
REMARK    5  A    between atoms: C2_6  and  C4_8 
REMARK    6  A    between atoms: C3_7  and  C5_9 
REMARK    7  A    between atoms: C4_8  and  C6_10 
REMARK    8  A    between atoms: C14_18  and  C9_13 
REMARK    9  A    between atoms: C15_19  and  C16_20 
ROOT
HETATM    1  C8  UNK     1      19.070  -1.183  33.421  1.00  0.00     0.036 A 
HETATM    2  C9  UNK     1      20.037  -2.778  35.495  1.00  0.00    -0.036 A 
HETATM    3  C10 UNK     1      20.020  -2.169  33.157  1.00  0.00     0.030 A 
HETATM    4  C11 UNK     1      18.603  -0.994  34.722  1.00  0.00     0.030 A 
HETATM    5  C12 UNK     1      20.504  -2.967  34.194  1.00  0.00     0.013 A 
HETATM    6  C13 UNK     1      19.087  -1.791  35.759  1.00  0.00     0.013 A 
ENDROOT
BRANCH   1   7
HETATM    7  N2  UNK     1      18.579  -0.374  32.370  1.00  0.00    -0.309 N 
HETATM    8  C7  UNK     1      19.305   0.217  31.331  1.00  0.00     0.320 C 
HETATM    9  O1  UNK     1      20.517   0.135  31.147  1.00  0.00    -0.247 OA
HETATM   10  N1  UNK     1      18.454   0.946  30.487  1.00  0.00    -0.343 N 
HETATM   11  H13 UNK     1      17.462   0.964  30.700  1.00  0.00     0.164 HD
HETATM   12  H14 UNK     1      17.576  -0.207  32.377  1.00  0.00     0.170 HD
BRANCH  10  13
HETATM   13  C5  UNK     1      18.914   1.663  29.331  1.00  0.00     0.124 C 
BRANCH  13  14
HETATM   14  C3  UNK     1      18.462   3.120  29.333  1.00  0.00     0.020 C 
BRANCH  14  15
HETATM   15  C1  UNK     1      18.908   3.872  30.590  1.00  0.00     0.002 C 
BRANCH  15  16
HETATM   16  C2  UNK     1      19.549   5.217  30.234  1.00  0.00     0.001 C 
BRANCH  16  17
HETATM   17  C4  UNK     1      19.096   6.318  31.198  1.00  0.00     0.015 C 
BRANCH  17  18
HETATM   18  C6  UNK     1      19.719   6.199  32.585  1.00  0.00     0.114 C 
HETATM   19 Cl1  UNK     1      18.558   5.596  33.789  1.00  0.00    -0.130 Cl
ENDBRANCH  17  18
ENDBRANCH  16  17
ENDBRANCH  15  16
ENDBRANCH  14  15
ENDBRANCH  13  14
ENDBRANCH  10  13
ENDBRANCH   1   7
BRANCH   2  20
HETATM   20  C14 UNK     1      20.541  -3.610  36.576  1.00  0.00     0.012 C 
HETATM   21  C15 UNK     1      20.238  -4.916  36.763  1.00  0.00     0.012 C 
BRANCH  21  22
HETATM   22  C16 UNK     1      20.765  -5.765  37.847  1.00  0.00    -0.036 A 
HETATM   23  C17 UNK     1      22.089  -5.622  38.263  1.00  0.00     0.011 A 
HETATM   24  C19 UNK     1      22.588  -6.425  39.289  1.00  0.00     0.001 A 
HETATM   25  C21 UNK     1      21.763  -7.369  39.899  1.00  0.00     0.000 A 
HETATM   26  C20 UNK     1      20.439  -7.511  39.484  1.00  0.00     0.001 A 
HETATM   27  C18 UNK     1      19.940  -6.710  38.457  1.00  0.00     0.011 A 
ENDBRANCH  21  22
ENDBRANCH   2  20
TORSDOF 9
ENDMDL
MODEL 4
REMARK VINA RESULT:      -7.8      6.077      8.170
REMARK  9 active torsions:
REMARK  status: ('A' for Active; 'I' for Inactive)
REMARK    1  A    between atoms: C5_9  and  N1_3 
REMARK       I    between atoms: C7_11  and  N1_3 
REMARK       I    between atoms: C7_11  and  N2_4 
REMARK    2  A    between atoms: C8_12  and  N2_4 
REMARK    3  A    between atoms: C1_5  and  C2_6 
REMARK    4  A    between atoms: C1_5  and  C3_7 
REMARK    5  A    between atoms: C2_6  and  C4_8 
REMARK    6  A    between atoms: C3_7  and  C5_9 
REMARK    7  A    between atoms: C4_8  and  C6_10 
REMARK    8  A    between atoms: C14_18  and  C9_13 
REMARK    9  A    between atoms: C15_19  and  C16_20 
ROOT
HETATM    1  C8  UNK     1      18.294  -1.224  35.791  1.00  0.00     0.036 A 
HETATM    2  C9  UNK     1      18.287   1.432  34.938  1.00  0.00    -0.036 A 
HETATM    3  C10 UNK     1      18.319  -0.930  34.428  1.00  0.00     0.030 A 
HETATM    4  C11 UNK     1      18.266  -0.190  36.728  1.00  0.00     0.030 A 
HETATM    5  C12 UNK     1      18.316   0.398  34.001  1.00  0.00     0.013 A 
HETATM    6  C13 UNK     1      18.262   1.137  36.301  1.00  0.00     0.013 A 
ENDROOT
BRANCH   1   7
HETATM    7  N2  UNK     1      18.298  -2.570  36.225  1.00  0.00    -0.309 N 
HETATM    8  C7  UNK     1      19.395  -3.426  36.356  1.00  0.00     0.320 C 
HETATM    9  O1  UNK     1      20.569  -3.155  36.114  1.00  0.00    -0.247 OA
HETATM   10  N1  UNK     1      18.985  -4.687  36.816  1.00  0.00    -0.343 N 
HETATM   11  H13 UNK     1      17.998  -4.837  37.000  1.00  0.00     0.164 HD
HETATM   12  H14 UNK     1      17.388  -2.955  36.469  1.00  0.00     0.170 HD
BRANCH  10  13
HETATM   13  C5  UNK     1      19.892  -5.776  37.048  1.00  0.00     0.124 C 
BRANCH  13  14
HETATM   14  C3  UNK     1      19.218  -6.958  37.738  1.00  0.00     0.020 C 
BRANCH  14  15
HETATM   15  C1  UNK     1      19.849  -7.285  39.094  1.00  0.00     0.002 C 
BRANCH  15  16
HETATM   16  C2  UNK     1      19.937  -8.798  39.314  1.00  0.00     0.001 C 
BRANCH  16  17
HETATM   17  C4  UNK     1      19.084  -9.557  38.293  1.00  0.00     0.015 C 
BRANCH  17  18
HETATM   18  C6  UNK     1      19.678 -10.904  37.893  1.00  0.00     0.114 C 
HETATM   19 Cl1  UNK     1      20.886 -10.744  36.599  1.00  0.00    -0.130 Cl
ENDBRANCH  17  18
ENDBRANCH  16  17
ENDBRANCH  15  16
ENDBRANCH  14  15
ENDBRANCH  13  14
ENDBRANCH  10  13
ENDBRANCH   1   7
BRANCH   2  20
HETATM   20  C14 UNK     1      18.284   2.816  34.492  1.00  0.00     0.012 C 
HETATM   21  C15 UNK     1      18.219   3.221  33.202  1.00  0.00     0.012 C 
BRANCH  21  22
HETATM   22  C16 UNK     1      18.195   4.624  32.751  1.00  0.00    -0.036 A 
HETATM   23  C17 UNK     1      18.501   4.936  31.426  1.00  0.00     0.011 A 
HETATM   24  C19 UNK     1      18.478   6.264  31.000  1.00  0.00     0.001 A 
HETATM   25  C21 UNK     1      18.149   7.280  31.897  1.00  0.00     0.000 A 
HETATM   26  C20 UNK     1      17.843   6.968  33.222  1.00  0.00     0.001 A 
HETATM   27  C18 UNK     1      17.866   5.640  33.649  1.00  0.00     0.011 A 
ENDBRANCH  21  22
ENDBRANCH   2  20
TORSDOF 9
ENDMDL
MODEL 5
REMARK VINA RESULT:      -7.8      5.283     11.797
REMARK  9 active torsions:
REMARK  status: ('A' for Active; 'I' for Inactive)
REMARK    1  A    between atoms: C5_9  and  N1_3 
REMARK       I    between atoms: C7_11  and  N1_3 
REMARK       I    between atoms: C7_11  and  N2_4 
REMARK    2  A    between atoms: C8_12  and  N2_4 
REMARK    3  A    between atoms: C1_5  and  C2_6 
REMARK    4  A    between atoms: C1_5  and  C3_7 
REMARK    5  A    between atoms: C2_6  and  C4_8 
REMARK    6  A    between atoms: C3_7  and  C5_9 
REMARK    7  A    between atoms: C4_8  and  C6_10 
REMARK    8  A    between atoms: C14_18  and  C9_13 
REMARK    9  A    between atoms: C15_19  and  C16_20 
ROOT
HETATM    1  C8  UNK     1      18.813  -1.024  34.851  1.00  0.00     0.036 A 
HETATM    2  C9  UNK     1      19.712  -3.023  36.577  1.00  0.00    -0.036 A 
HETATM    3  C10 UNK     1      18.270  -1.136  36.131  1.00  0.00     0.030 A 
HETATM    4  C11 UNK     1      19.806  -1.912  34.434  1.00  0.00     0.030 A 
HETATM    5  C12 UNK     1      18.720  -2.135  36.994  1.00  0.00     0.013 A 
HETATM    6  C13 UNK     1      20.254  -2.911  35.297  1.00  0.00     0.013 A 
ENDROOT
BRANCH   1   7
HETATM    7  N2  UNK     1      18.358  -0.011  33.976  1.00  0.00    -0.309 N 
HETATM    8  C7  UNK     1      18.517   1.372  34.107  1.00  0.00     0.320 C 
HETATM    9  O1  UNK     1      19.091   1.959  35.021  1.00  0.00    -0.247 OA
HETATM   10  N1  UNK     1      17.922   2.042  33.028  1.00  0.00    -0.343 N 
HETATM   11  H13 UNK     1      17.470   1.489  32.306  1.00  0.00     0.164 HD
HETATM   12  H14 UNK     1      17.855  -0.335  33.154  1.00  0.00     0.170 HD
BRANCH  10  13
HETATM   13  C5  UNK     1      17.924   3.471  32.887  1.00  0.00     0.124 C 
BRANCH  13  14
HETATM   14  C3  UNK     1      18.145   3.913  31.445  1.00  0.00     0.020 C 
BRANCH  14  15
HETATM   15  C1  UNK     1      18.804   2.827  30.591  1.00  0.00     0.002 C 
BRANCH  15  16
HETATM   16  C2  UNK     1      17.926   2.453  29.393  1.00  0.00     0.001 C 
BRANCH  16  17
HETATM   17  C4  UNK     1      18.441   1.187  28.702  1.00  0.00     0.015 C 
BRANCH  17  18
HETATM   18  C6  UNK     1      19.679   0.597  29.369  1.00  0.00     0.114 C 
HETATM   19 Cl1  UNK     1      20.175  -0.937  28.619  1.00  0.00    -0.130 Cl
ENDBRANCH  17  18
ENDBRANCH  16  17
ENDBRANCH  15  16
ENDBRANCH  14  15
ENDBRANCH  13  14
ENDBRANCH  10  13
ENDBRANCH   1   7
BRANCH   2  20
HETATM   20  C14 UNK     1      20.181  -4.065  37.477  1.00  0.00     0.012 C 
HETATM   21  C15 UNK     1      20.160  -5.393  37.212  1.00  0.00     0.012 C 
BRANCH  21  22
HETATM   22  C16 UNK     1      20.653  -6.447  38.115  1.00  0.00    -0.036 A 
HETATM   23  C17 UNK     1      21.938  -6.361  38.652  1.00  0.00     0.011 A 
HETATM   24  C19 UNK     1      22.405  -7.358  39.508  1.00  0.00     0.001 A 
HETATM   25  C21 UNK     1      21.588  -8.443  39.827  1.00  0.00     0.000 A 
HETATM   26  C20 UNK     1      20.303  -8.529  39.290  1.00  0.00     0.001 A 
HETATM   27  C18 UNK     1      19.836  -7.532  38.434  1.00  0.00     0.011 A 
ENDBRANCH  21  22
ENDBRANCH   2  20
TORSDOF 9
ENDMDL
MODEL 6
REMARK VINA RESULT:      -7.7      1.410      2.356
REMARK  9 active torsions:
REMARK  status: ('A' for Active; 'I' for Inactive)
REMARK    1  A    between atoms: C5_9  and  N1_3 
REMARK       I    between atoms: C7_11  and  N1_3 
REMARK       I    between atoms: C7_11  and  N2_4 
REMARK    2  A    between atoms: C8_12  and  N2_4 
REMARK    3  A    between atoms: C1_5  and  C2_6 
REMARK    4  A    between atoms: C1_5  and  C3_7 
REMARK    5  A    between atoms: C2_6  and  C4_8 
REMARK    6  A    between atoms: C3_7  and  C5_9 
REMARK    7  A    between atoms: C4_8  and  C6_10 
REMARK    8  A    between atoms: C14_18  and  C9_13 
REMARK    9  A    between atoms: C15_19  and  C16_20 
ROOT
HETATM    1  C8  UNK     1      18.726   5.901  31.572  1.00  0.00     0.036 A 
HETATM    2  C9  UNK     1      18.032   8.176  33.032  1.00  0.00    -0.036 A 
HETATM    3  C10 UNK     1      19.523   6.314  32.639  1.00  0.00     0.030 A 
HETATM    4  C11 UNK     1      17.582   6.626  31.235  1.00  0.00     0.030 A 
HETATM    5  C12 UNK     1      19.176   7.451  33.370  1.00  0.00     0.013 A 
HETATM    6  C13 UNK     1      17.236   7.762  31.964  1.00  0.00     0.013 A 
ENDROOT
BRANCH   1   7
HETATM    7  N2  UNK     1      19.077   4.749  30.832  1.00  0.00    -0.309 N 
HETATM    8  C7  UNK     1      18.570   3.454  30.969  1.00  0.00     0.320 C 
HETATM    9  O1  UNK     1      17.716   3.083  31.772  1.00  0.00    -0.247 OA
HETATM   10  N1  UNK     1      19.174   2.587  30.047  1.00  0.00    -0.343 N 
HETATM   11  H13 UNK     1      19.868   2.965  29.411  1.00  0.00     0.164 HD
HETATM   12  H14 UNK     1      19.783   4.887  30.114  1.00  0.00     0.170 HD
BRANCH  10  13
HETATM   13  C5  UNK     1      18.855   1.190  29.950  1.00  0.00     0.124 C 
BRANCH  13  14
HETATM   14  C3  UNK     1      18.906   0.679  28.514  1.00  0.00     0.020 C 
BRANCH  14  15
HETATM   15  C1  UNK     1      19.667  -0.644  28.386  1.00  0.00     0.002 C 
BRANCH  15  16
HETATM   16  C2  UNK     1      20.643  -0.836  29.551  1.00  0.00     0.001 C 
BRANCH  16  17
HETATM   17  C4  UNK     1      20.369  -2.148  30.292  1.00  0.00     0.015 C 
BRANCH  17  18
HETATM   18  C6  UNK     1      20.690  -2.077  31.782  1.00  0.00     0.114 C 
HETATM   19 Cl1  UNK     1      19.288  -1.559  32.745  1.00  0.00    -0.130 Cl
ENDBRANCH  17  18
ENDBRANCH  16  17
ENDBRANCH  15  16
ENDBRANCH  14  15
ENDBRANCH  13  14
ENDBRANCH  10  13
ENDBRANCH   1   7
BRANCH   2  20
HETATM   20  C14 UNK     1      17.671   9.361  33.793  1.00  0.00     0.012 C 
HETATM   21  C15 UNK     1      16.411   9.827  33.961  1.00  0.00     0.012 C 
BRANCH  21  22
HETATM   22  C16 UNK     1      16.042  11.016  34.749  1.00  0.00    -0.036 A 
HETATM   23  C17 UNK     1      14.858  11.024  35.488  1.00  0.00     0.011 A 
HETATM   24  C19 UNK     1      14.510  12.149  36.234  1.00  0.00     0.001 A 
HETATM   25  C21 UNK     1      15.344  13.267  36.243  1.00  0.00     0.000 A 
HETATM   26  C20 UNK     1      16.528  13.259  35.504  1.00  0.00     0.001 A 
HETATM   27  C18 UNK     1      16.876  12.134  34.757  1.00  0.00     0.011 A 
ENDBRANCH  21  22
ENDBRANCH   2  20
TORSDOF 9
ENDMDL
MODEL 7
REMARK VINA RESULT:      -7.6      5.706      7.772
REMARK  9 active torsions:
REMARK  status: ('A' for Active; 'I' for Inactive)
REMARK    1  A    between atoms: C5_9  and  N1_3 
REMARK       I    between atoms: C7_11  and  N1_3 
REMARK       I    between atoms: C7_11  and  N2_4 
REMARK    2  A    between atoms: C8_12  and  N2_4 
REMARK    3  A    between atoms: C1_5  and  C2_6 
REMARK    4  A    between atoms: C1_5  and  C3_7 
REMARK    5  A    between atoms: C2_6  and  C4_8 
REMARK    6  A    between atoms: C3_7  and  C5_9 
REMARK    7  A    between atoms: C4_8  and  C6_10 
REMARK    8  A    between atoms: C14_18  and  C9_13 
REMARK    9  A    between atoms: C15_19  and  C16_20 
ROOT
HETATM    1  C8  UNK     1      18.208  -1.109  35.821  1.00  0.00     0.036 A 
HETATM    2  C9  UNK     1      18.329   1.608  35.201  1.00  0.00    -0.036 A 
HETATM    3  C10 UNK     1      18.230  -0.162  36.844  1.00  0.00     0.030 A 
HETATM    4  C11 UNK     1      18.247  -0.698  34.488  1.00  0.00     0.030 A 
HETATM    5  C12 UNK     1      18.290   1.197  36.534  1.00  0.00     0.013 A 
HETATM    6  C13 UNK     1      18.308   0.660  34.179  1.00  0.00     0.013 A 
ENDROOT
BRANCH   1   7
HETATM    7  N2  UNK     1      18.148  -2.487  36.135  1.00  0.00    -0.309 N 
HETATM    8  C7  UNK     1      19.202  -3.333  36.491  1.00  0.00     0.320 C 
HETATM    9  O1  UNK     1      20.386  -3.023  36.596  1.00  0.00    -0.247 OA
HETATM   10  N1  UNK     1      18.733  -4.634  36.725  1.00  0.00    -0.343 N 
HETATM   11  H13 UNK     1      17.739  -4.815  36.623  1.00  0.00     0.164 HD
HETATM   12  H14 UNK     1      17.222  -2.905  36.094  1.00  0.00     0.170 HD
BRANCH  10  13
HETATM   13  C5  UNK     1      19.585  -5.725  37.108  1.00  0.00     0.124 C 
BRANCH  13  14
HETATM   14  C3  UNK     1      18.817  -7.030  37.285  1.00  0.00     0.020 C 
BRANCH  14  15
HETATM   15  C1  UNK     1      19.128  -8.050  36.186  1.00  0.00     0.002 C 
BRANCH  15  16
HETATM   16  C2  UNK     1      20.278  -7.571  35.295  1.00  0.00     0.001 C 
BRANCH  16  17
HETATM   17  C4  UNK     1      21.272  -8.704  35.019  1.00  0.00     0.015 C 
BRANCH  17  18
HETATM   18  C6  UNK     1      21.111  -9.892  35.963  1.00  0.00     0.114 C 
HETATM   19 Cl1  UNK     1      22.311 -11.164  35.647  1.00  0.00    -0.130 Cl
ENDBRANCH  17  18
ENDBRANCH  16  17
ENDBRANCH  15  16
ENDBRANCH  14  15
ENDBRANCH  13  14
ENDBRANCH  10  13
ENDBRANCH   1   7
BRANCH   2  20
HETATM   20  C14 UNK     1      18.392   3.024  34.879  1.00  0.00     0.012 C 
HETATM   21  C15 UNK     1      18.270   3.548  33.636  1.00  0.00     0.012 C 
BRANCH  21  22
HETATM   22  C16 UNK     1      18.313   4.985  33.311  1.00  0.00    -0.036 A 
HETATM   23  C17 UNK     1      17.334   5.544  32.489  1.00  0.00     0.011 A 
HETATM   24  C19 UNK     1      17.374   6.903  32.182  1.00  0.00     0.001 A 
HETATM   25  C21 UNK     1      18.393   7.706  32.696  1.00  0.00     0.000 A 
HETATM   26  C20 UNK     1      19.372   7.147  33.519  1.00  0.00     0.001 A 
HETATM   27  C18 UNK     1      19.333   5.787  33.825  1.00  0.00     0.011 A 
ENDBRANCH  21  22
ENDBRANCH   2  20
TORSDOF 9
ENDMDL
MODEL 8
REMARK VINA RESULT:      -7.4      5.103     11.821
REMARK  9 active torsions:
REMARK  status: ('A' for Active; 'I' for Inactive)
REMARK    1  A    between atoms: C5_9  and  N1_3 
REMARK       I    between atoms: C7_11  and  N1_3 
REMARK       I    between atoms: C7_11  and  N2_4 
REMARK    2  A    between atoms: C8_12  and  N2_4 
REMARK    3  A    between atoms: C1_5  and  C2_6 
REMARK    4  A    between atoms: C1_5  and  C3_7 
REMARK    5  A    between atoms: C2_6  and  C4_8 
REMARK    6  A    between atoms: C3_7  and  C5_9 
REMARK    7  A    between atoms: C4_8  and  C6_10 
REMARK    8  A    between atoms: C14_18  and  C9_13 
REMARK    9  A    between atoms: C15_19  and  C16_20 
ROOT
HETATM    1  C8  UNK     1      18.692  -0.817  34.579  1.00  0.00     0.036 A 
HETATM    2  C9  UNK     1      19.488  -2.763  36.413  1.00  0.00    -0.036 A 
HETATM    3  C10 UNK     1      18.040  -0.926  35.807  1.00  0.00     0.030 A 
HETATM    4  C11 UNK     1      19.743  -1.681  34.268  1.00  0.00     0.030 A 
HETATM    5  C12 UNK     1      18.437  -1.899  36.724  1.00  0.00     0.013 A 
HETATM    6  C13 UNK     1      20.140  -2.654  35.185  1.00  0.00     0.013 A 
ENDROOT
BRANCH   1   7
HETATM    7  N2  UNK     1      18.289   0.169  33.649  1.00  0.00    -0.309 N 
HETATM    8  C7  UNK     1      18.430   1.556  33.754  1.00  0.00     0.320 C 
HETATM    9  O1  UNK     1      18.937   2.171  34.689  1.00  0.00    -0.247 OA
HETATM   10  N1  UNK     1      17.903   2.192  32.621  1.00  0.00    -0.343 N 
HETATM   11  H13 UNK     1      17.504   1.618  31.885  1.00  0.00     0.164 HD
HETATM   12  H14 UNK     1      17.845  -0.181  32.804  1.00  0.00     0.170 HD
BRANCH  10  13
HETATM   13  C5  UNK     1      17.904   3.617  32.443  1.00  0.00     0.124 C 
BRANCH  13  14
HETATM   14  C3  UNK     1      18.608   4.043  31.159  1.00  0.00     0.020 C 
BRANCH  14  15
HETATM   15  C1  UNK     1      18.884   5.549  31.110  1.00  0.00     0.002 C 
BRANCH  15  16
HETATM   16  C2  UNK     1      19.693   6.004  32.328  1.00  0.00     0.001 C 
BRANCH  16  17
HETATM   17  C4  UNK     1      19.055   7.229  32.991  1.00  0.00     0.015 C 
BRANCH  17  18
HETATM   18  C6  UNK     1      18.020   6.870  34.052  1.00  0.00     0.114 C 
HETATM   19 Cl1  UNK     1      16.369   6.843  33.393  1.00  0.00    -0.130 Cl
ENDBRANCH  17  18
ENDBRANCH  16  17
ENDBRANCH  15  16
ENDBRANCH  14  15
ENDBRANCH  13  14
ENDBRANCH  10  13
ENDBRANCH   1   7
BRANCH   2  20
HETATM   20  C14 UNK     1      19.903  -3.777  37.369  1.00  0.00     0.012 C 
HETATM   21  C15 UNK     1      20.400  -4.996  37.049  1.00  0.00     0.012 C 
BRANCH  21  22
HETATM   22  C16 UNK     1      20.839  -6.016  38.018  1.00  0.00    -0.036 A 
HETATM   23  C17 UNK     1      19.931  -6.962  38.494  1.00  0.00     0.011 A 
HETATM   24  C19 UNK     1      20.346  -7.928  39.410  1.00  0.00     0.001 A 
HETATM   25  C21 UNK     1      21.669  -7.948  39.851  1.00  0.00     0.000 A 
HETATM   26  C20 UNK     1      22.578  -7.002  39.375  1.00  0.00     0.001 A 
HETATM   27  C18 UNK     1      22.162  -6.036  38.459  1.00  0.00     0.011 A 
ENDBRANCH  21  22
ENDBRANCH   2  20
TORSDOF 9
ENDMDL
MODEL 9
REMARK VINA RESULT:      -7.3      5.227      7.495
REMARK  9 active torsions:
REMARK  status: ('A' for Active; 'I' for Inactive)
REMARK    1  A    between atoms: C5_9  and  N1_3 
REMARK       I    between atoms: C7_11  and  N1_3 
REMARK       I    between atoms: C7_11  and  N2_4 
REMARK    2  A    between atoms: C8_12  and  N2_4 
REMARK    3  A    between atoms: C1_5  and  C2_6 
REMARK    4  A    between atoms: C1_5  and  C3_7 
REMARK    5  A    between atoms: C2_6  and  C4_8 
REMARK    6  A    between atoms: C3_7  and  C5_9 
REMARK    7  A    between atoms: C4_8  and  C6_10 
REMARK    8  A    between atoms: C14_18  and  C9_13 
REMARK    9  A    between atoms: C15_19  and  C16_20 
ROOT
HETATM    1  C8  UNK     1      18.719  -0.880  35.689  1.00  0.00     0.036 A 
HETATM    2  C9  UNK     1      18.315   1.350  34.062  1.00  0.00    -0.036 A 
HETATM    3  C10 UNK     1      18.677   0.395  36.252  1.00  0.00     0.030 A 
HETATM    4  C11 UNK     1      18.558  -1.040  34.312  1.00  0.00     0.030 A 
HETATM    5  C12 UNK     1      18.476   1.510  35.439  1.00  0.00     0.013 A 
HETATM    6  C13 UNK     1      18.357   0.075  33.499  1.00  0.00     0.013 A 
ENDROOT
BRANCH   1   7
HETATM    7  N2  UNK     1      18.923  -2.011  36.513  1.00  0.00    -0.309 N 
HETATM    8  C7  UNK     1      20.043  -2.846  36.560  1.00  0.00     0.320 C 
HETATM    9  O1  UNK     1      21.063  -2.743  35.883  1.00  0.00    -0.247 OA
HETATM   10  N1  UNK     1      19.862  -3.862  37.511  1.00  0.00    -0.343 N 
HETATM   11  H13 UNK     1      18.994  -3.881  38.037  1.00  0.00     0.164 HD
HETATM   12  H14 UNK     1      18.159  -2.237  37.145  1.00  0.00     0.170 HD
BRANCH  10  13
HETATM   13  C5  UNK     1      20.844  -4.873  37.784  1.00  0.00     0.124 C 
BRANCH  13  14
HETATM   14  C3  UNK     1      20.302  -5.986  38.674  1.00  0.00     0.020 C 
BRANCH  14  15
HETATM   15  C1  UNK     1      21.069  -7.301  38.505  1.00  0.00     0.002 C 
BRANCH  15  16
HETATM   16  C2  UNK     1      21.642  -7.431  37.091  1.00  0.00     0.001 C 
BRANCH  16  17
HETATM   17  C4  UNK     1      20.746  -8.304  36.208  1.00  0.00     0.015 C 
BRANCH  17  18
HETATM   18  C6  UNK     1      19.810  -7.497  35.312  1.00  0.00     0.114 C 
HETATM   19 Cl1  UNK     1      20.564  -7.089  33.755  1.00  0.00    -0.130 Cl
ENDBRANCH  17  18
ENDBRANCH  16  17
ENDBRANCH  15  16
ENDBRANCH  14  15
ENDBRANCH  13  14
ENDBRANCH  10  13
ENDBRANCH   1   7
BRANCH   2  20
HETATM   20  C14 UNK     1      18.104   2.513  33.215  1.00  0.00     0.012 C 
HETATM   21  C15 UNK     1      18.282   3.800  33.597  1.00  0.00     0.012 C 
BRANCH  21  22
HETATM   22  C16 UNK     1      18.088   4.978  32.732  1.00  0.00    -0.036 A 
HETATM   23  C17 UNK     1      18.789   5.083  31.530  1.00  0.00     0.011 A 
HETATM   24  C19 UNK     1      18.605   6.197  30.711  1.00  0.00     0.001 A 
HETATM   25  C21 UNK     1      17.722   7.206  31.093  1.00  0.00     0.000 A 
HETATM   26  C20 UNK     1      17.021   7.101  32.295  1.00  0.00     0.001 A 
HETATM   27  C18 UNK     1      17.205   5.987  33.115  1.00  0.00     0.011 A 
ENDBRANCH  21  22
ENDBRANCH   2  20
TORSDOF 9
ENDMDL
MODEL 10
REMARK VINA RESULT:      -7.3      3.336     10.523
REMARK  9 active torsions:
REMARK  status: ('A' for Active; 'I' for Inactive)
REMARK    1  A    between atoms: C5_9  and  N1_3 
REMARK       I    between atoms: C7_11  and  N1_3 
REMARK       I    between atoms: C7_11  and  N2_4 
REMARK    2  A    between atoms: C8_12  and  N2_4 
REMARK    3  A    between atoms: C1_5  and  C2_6 
REMARK    4  A    between atoms: C1_5  and  C3_7 
REMARK    5  A    between atoms: C2_6  and  C4_8 
REMARK    6  A    between atoms: C3_7  and  C5_9 
REMARK    7  A    between atoms: C4_8  and  C6_10 
REMARK    8  A    between atoms: C14_18  and  C9_13 
REMARK    9  A    between atoms: C15_19  and  C16_20 
ROOT
HETATM    1  C8  UNK     1      17.702   6.623  31.970  1.00  0.00     0.036 A 
HETATM    2  C9  UNK     1      18.662   4.191  30.997  1.00  0.00    -0.036 A 
HETATM    3  C10 UNK     1      18.362   6.575  30.743  1.00  0.00     0.030 A 
HETATM    4  C11 UNK     1      17.522   5.454  32.711  1.00  0.00     0.030 A 
HETATM    5  C12 UNK     1      18.842   5.360  30.256  1.00  0.00     0.013 A 
HETATM    6  C13 UNK     1      18.002   4.239  32.225  1.00  0.00     0.013 A 
ENDROOT
BRANCH   1   7
HETATM    7  N2  UNK     1      17.215   7.855  32.465  1.00  0.00    -0.309 N 
HETATM    8  C7  UNK     1      15.904   8.338  32.424  1.00  0.00     0.320 C 
HETATM    9  O1  UNK     1      14.928   7.767  31.943  1.00  0.00    -0.247 OA
HETATM   10  N1  UNK     1      15.826   9.606  33.020  1.00  0.00    -0.343 N 
HETATM   11  H13 UNK     1      16.674  10.013  33.401  1.00  0.00     0.164 HD
HETATM   12  H14 UNK     1      17.909   8.457  32.902  1.00  0.00     0.170 HD
BRANCH  10  13
HETATM   13  C5  UNK     1      14.606  10.355  33.127  1.00  0.00     0.124 C 
BRANCH  13  14
HETATM   14  C3  UNK     1      14.647  11.376  34.259  1.00  0.00     0.020 C 
BRANCH  14  15
HETATM   15  C1  UNK     1      15.288  12.700  33.834  1.00  0.00     0.002 C 
BRANCH  15  16
HETATM   16  C2  UNK     1      15.842  13.460  35.043  1.00  0.00     0.001 C 
BRANCH  16  17
HETATM   17  C4  UNK     1      17.282  13.038  35.350  1.00  0.00     0.015 C 
BRANCH  17  18
HETATM   18  C6  UNK     1      18.128  12.825  34.098  1.00  0.00     0.114 C 
HETATM   19 Cl1  UNK     1      18.765  11.167  33.997  1.00  0.00    -0.130 Cl
ENDBRANCH  17  18
ENDBRANCH  16  17
ENDBRANCH  15  16
ENDBRANCH  14  15
ENDBRANCH  13  14
ENDBRANCH  10  13
ENDBRANCH   1   7
BRANCH   2  20
HETATM   20  C14 UNK     1      19.162   2.924  30.489  1.00  0.00     0.012 C 
HETATM   21  C15 UNK     1      19.009   1.723  31.097  1.00  0.00     0.012 C 
BRANCH  21  22
HETATM   22  C16 UNK     1      19.498   0.436  30.573  1.00  0.00    -0.036 A 
HETATM   23  C17 UNK     1      19.855   0.321  29.229  1.00  0.00     0.011 A 
HETATM   24  C19 UNK     1      20.319  -0.897  28.732  1.00  0.00     0.001 A 
HETATM   25  C21 UNK     1      20.425  -2.000  29.578  1.00  0.00     0.000 A 
HETATM   26  C20 UNK     1      20.068  -1.886  30.922  1.00  0.00     0.001 A 
HETATM   27  C18 UNK     1      19.604  -0.667  31.419  1.00  0.00     0.011 A 
ENDBRANCH  21  22
ENDBRANCH   2  20
TORSDOF 9
ENDMDL
