MODEL 1
REMARK VINA RESULT:      -9.0      0.000      0.000
REMARK  3 active torsions:
REMARK  status: ('A' for Active; 'I' for Inactive)
REMARK    1  A    between atoms: C26_33  and  O4_4 
REMARK    2  A    between atoms: C8_15  and  O4_4 
REMARK    3  A    between atoms: C1_8  and  C4_11 
ROOT
HETATM    1  O1  UNK     1      28.404  -7.746  34.307  1.00  0.00    -0.308 OA
HETATM    2  O2  UNK     1      29.809  -7.150  38.210  1.00  0.00    -0.274 OA
HETATM    3  O5  UNK     1      31.256  -5.556  37.461  1.00  0.00    -0.259 OA
HETATM    4  C1  UNK     1      30.552  -5.831  34.700  1.00  0.00     0.105 C 
HETATM    5  C2  UNK     1      29.911  -6.628  35.815  1.00  0.00     0.066 A 
HETATM    6  C3  UNK     1      29.769  -5.944  33.410  1.00  0.00    -0.011 A 
HETATM    7  C5  UNK     1      28.925  -7.506  35.568  1.00  0.00     0.102 A 
HETATM    8  C6  UNK     1      28.760  -6.905  33.279  1.00  0.00     0.083 A 
HETATM    9  C7  UNK     1      28.332  -8.291  36.651  1.00  0.00     0.033 A 
HETATM   10  C9  UNK     1      30.390  -6.388  37.204  1.00  0.00     0.298 A 
HETATM   11  C10 UNK     1      30.047  -5.104  32.321  1.00  0.00     0.011 A 
HETATM   12  C13 UNK     1      28.796  -8.090  37.946  1.00  0.00     0.092 A 
HETATM   13  C14 UNK     1      28.053  -7.041  32.082  1.00  0.00     0.038 A 
HETATM   14  C16 UNK     1      29.337  -5.235  31.126  1.00  0.00     0.001 A 
HETATM   15  C17 UNK     1      27.318  -9.238  36.453  1.00  0.00     0.017 A 
HETATM   16  C18 UNK     1      28.345  -6.206  31.006  1.00  0.00     0.003 A 
HETATM   17  C19 UNK     1      28.288  -8.798  39.036  1.00  0.00     0.038 A 
HETATM   18  C21 UNK     1      26.797  -9.956  37.535  1.00  0.00     0.001 A 
HETATM   19  C23 UNK     1      27.282  -9.735  38.825  1.00  0.00     0.003 A 
ENDROOT
BRANCH   4  20
HETATM   20  C4  UNK     1      31.981  -6.253  34.492  1.00  0.00     0.066 A 
HETATM   21  C11 UNK     1      32.974  -5.156  34.686  1.00  0.00     0.298 A 
HETATM   22  O3  UNK     1      34.313  -5.467  34.499  1.00  0.00    -0.274 OA
HETATM   23  O6  UNK     1      32.632  -4.019  34.999  1.00  0.00    -0.259 OA
HETATM   24  C15 UNK     1      34.737  -6.759  34.145  1.00  0.00     0.092 A 
HETATM   25  C12 UNK     1      33.815  -7.784  33.967  1.00  0.00     0.033 A 
HETATM   26  C22 UNK     1      36.109  -6.955  33.985  1.00  0.00     0.038 A 
HETATM   27  C8  UNK     1      32.392  -7.490  34.155  1.00  0.00     0.105 A 
HETATM   28  C20 UNK     1      34.303  -9.050  33.614  1.00  0.00     0.017 A 
HETATM   29  C24 UNK     1      35.675  -9.264  33.448  1.00  0.00     0.001 A 
HETATM   30  C25 UNK     1      36.577  -8.217  33.633  1.00  0.00     0.003 A 
BRANCH  27  31
HETATM   31  O4  UNK     1      31.554  -8.567  33.961  1.00  0.00    -0.277 OA
BRANCH  31  32
HETATM   32  C26 UNK     1      31.532  -9.454  35.008  1.00  0.00     0.260 C 
HETATM   33  O7  UNK     1      32.031  -9.309  36.115  1.00  0.00    -0.265 OA
HETATM   34  C27 UNK     1      30.765 -10.677  34.596  1.00  0.00     0.126 C 
ENDBRANCH  31  32
ENDBRANCH  27  31
ENDBRANCH   4  20
TORSDOF 3
ENDMDL
MODEL 2
REMARK VINA RESULT:      -9.0      1.708      6.125
REMARK  3 active torsions:
REMARK  status: ('A' for Active; 'I' for Inactive)
REMARK    1  A    between atoms: C26_33  and  O4_4 
REMARK    2  A    between atoms: C8_15  and  O4_4 
REMARK    3  A    between atoms: C1_8  and  C4_11 
ROOT
HETATM    1  O1  UNK     1      31.617  -6.940  31.800  1.00  0.00    -0.308 OA
HETATM    2  O2  UNK     1      33.453  -9.691  34.374  1.00  0.00    -0.274 OA
HETATM    3  O5  UNK     1      31.444 -10.138  35.352  1.00  0.00    -0.259 OA
HETATM    4  C1  UNK     1      29.960  -8.253  33.792  1.00  0.00     0.105 C 
HETATM    5  C2  UNK     1      31.444  -8.498  33.628  1.00  0.00     0.066 A 
HETATM    6  C3  UNK     1      29.393  -7.458  32.635  1.00  0.00    -0.011 A 
HETATM    7  C5  UNK     1      32.159  -7.853  32.691  1.00  0.00     0.102 A 
HETATM    8  C6  UNK     1      30.248  -6.832  31.723  1.00  0.00     0.083 A 
HETATM    9  C7  UNK     1      33.598  -8.078  32.560  1.00  0.00     0.033 A 
HETATM   10  C9  UNK     1      32.084  -9.501  34.521  1.00  0.00     0.298 A 
HETATM   11  C10 UNK     1      28.007  -7.323  32.464  1.00  0.00     0.011 A 
HETATM   12  C13 UNK     1      34.206  -8.994  33.412  1.00  0.00     0.092 A 
HETATM   13  C14 UNK     1      29.737  -6.069  30.671  1.00  0.00     0.038 A 
HETATM   14  C16 UNK     1      27.494  -6.565  31.409  1.00  0.00     0.001 A 
HETATM   15  C17 UNK     1      34.401  -7.418  31.620  1.00  0.00     0.017 A 
HETATM   16  C18 UNK     1      28.359  -5.936  30.517  1.00  0.00     0.003 A 
HETATM   17  C19 UNK     1      35.573  -9.266  33.356  1.00  0.00     0.038 A 
HETATM   18  C21 UNK     1      35.773  -7.681  31.550  1.00  0.00     0.001 A 
HETATM   19  C23 UNK     1      36.359  -8.604  32.418  1.00  0.00     0.003 A 
ENDROOT
BRANCH   4  20
HETATM   20  C4  UNK     1      29.671  -7.566  35.099  1.00  0.00     0.066 A 
HETATM   21  C11 UNK     1      28.731  -8.313  35.985  1.00  0.00     0.298 A 
HETATM   22  O3  UNK     1      28.408  -7.735  37.204  1.00  0.00    -0.274 OA
HETATM   23  O6  UNK     1      28.256  -9.397  35.659  1.00  0.00    -0.259 OA
HETATM   24  C15 UNK     1      28.937  -6.497  37.607  1.00  0.00     0.092 A 
HETATM   25  C12 UNK     1      29.816  -5.800  36.786  1.00  0.00     0.033 A 
HETATM   26  C22 UNK     1      28.542  -6.015  38.855  1.00  0.00     0.038 A 
HETATM   27  C8  UNK     1      30.178  -6.381  35.491  1.00  0.00     0.105 A 
HETATM   28  C20 UNK     1      30.309  -4.572  37.248  1.00  0.00     0.017 A 
HETATM   29  C24 UNK     1      29.922  -4.072  38.496  1.00  0.00     0.001 A 
HETATM   30  C25 UNK     1      29.039  -4.793  39.298  1.00  0.00     0.003 A 
BRANCH  27  31
HETATM   31  O4  UNK     1      31.056  -5.622  34.748  1.00  0.00    -0.277 OA
BRANCH  31  32
HETATM   32  C26 UNK     1      32.342  -5.624  35.229  1.00  0.00     0.260 C 
HETATM   33  O7  UNK     1      32.874  -6.477  35.927  1.00  0.00    -0.265 OA
HETATM   34  C27 UNK     1      33.046  -4.388  34.749  1.00  0.00     0.126 C 
ENDBRANCH  31  32
ENDBRANCH  27  31
ENDBRANCH   4  20
TORSDOF 3
ENDMDL
MODEL 3
REMARK VINA RESULT:      -8.8      2.950      5.849
REMARK  3 active torsions:
REMARK  status: ('A' for Active; 'I' for Inactive)
REMARK    1  A    between atoms: C26_33  and  O4_4 
REMARK    2  A    between atoms: C8_15  and  O4_4 
REMARK    3  A    between atoms: C1_8  and  C4_11 
ROOT
HETATM    1  O1  UNK     1      30.525  -6.480  33.158  1.00  0.00    -0.308 OA
HETATM    2  O2  UNK     1      34.648  -6.945  32.572  1.00  0.00    -0.274 OA
HETATM    3  O5  UNK     1      34.260  -8.074  30.631  1.00  0.00    -0.259 OA
HETATM    4  C1  UNK     1      31.407  -7.986  30.835  1.00  0.00     0.105 C 
HETATM    5  C2  UNK     1      32.343  -7.362  31.848  1.00  0.00     0.066 A 
HETATM    6  C3  UNK     1      29.982  -7.508  31.022  1.00  0.00    -0.011 A 
HETATM    7  C5  UNK     1      31.873  -6.682  32.907  1.00  0.00     0.102 A 
HETATM    8  C6  UNK     1      29.619  -6.806  32.175  1.00  0.00     0.083 A 
HETATM    9  C7  UNK     1      32.786  -6.107  33.893  1.00  0.00     0.033 A 
HETATM   10  C9  UNK     1      33.806  -7.500  31.617  1.00  0.00     0.298 A 
HETATM   11  C10 UNK     1      29.001  -7.772  30.054  1.00  0.00     0.011 A 
HETATM   12  C13 UNK     1      34.155  -6.259  33.696  1.00  0.00     0.092 A 
HETATM   13  C14 UNK     1      28.301  -6.389  32.374  1.00  0.00     0.038 A 
HETATM   14  C16 UNK     1      27.684  -7.351  30.248  1.00  0.00     0.001 A 
HETATM   15  C17 UNK     1      32.357  -5.409  35.030  1.00  0.00     0.017 A 
HETATM   16  C18 UNK     1      27.334  -6.664  31.409  1.00  0.00     0.003 A 
HETATM   17  C19 UNK     1      35.096  -5.744  34.589  1.00  0.00     0.038 A 
HETATM   18  C21 UNK     1      33.287  -4.886  35.935  1.00  0.00     0.001 A 
HETATM   19  C23 UNK     1      34.655  -5.053  35.714  1.00  0.00     0.003 A 
ENDROOT
BRANCH   4  20
HETATM   20  C4  UNK     1      31.474  -9.487  30.896  1.00  0.00     0.066 A 
HETATM   21  C11 UNK     1      31.766 -10.137  29.585  1.00  0.00     0.298 A 
HETATM   22  O3  UNK     1      31.833 -11.523  29.561  1.00  0.00    -0.274 OA
HETATM   23  O6  UNK     1      31.942  -9.482  28.562  1.00  0.00    -0.259 OA
HETATM   24  C15 UNK     1      31.639 -12.300  30.715  1.00  0.00     0.092 A 
HETATM   25  C12 UNK     1      31.372 -11.698  31.939  1.00  0.00     0.033 A 
HETATM   26  C22 UNK     1      31.731 -13.685  30.570  1.00  0.00     0.038 A 
HETATM   27  C8  UNK     1      31.293 -10.236  32.001  1.00  0.00     0.105 A 
HETATM   28  C20 UNK     1      31.190 -12.530  33.052  1.00  0.00     0.017 A 
HETATM   29  C24 UNK     1      31.276 -13.920  32.925  1.00  0.00     0.001 A 
HETATM   30  C25 UNK     1      31.546 -14.497  31.685  1.00  0.00     0.003 A 
BRANCH  27  31
HETATM   31  O4  UNK     1      31.027  -9.730  33.254  1.00  0.00    -0.277 OA
BRANCH  31  32
HETATM   32  C26 UNK     1      29.714  -9.846  33.638  1.00  0.00     0.260 C 
HETATM   33  O7  UNK     1      28.753 -10.109  32.928  1.00  0.00    -0.265 OA
HETATM   34  C27 UNK     1      29.614  -9.611  35.117  1.00  0.00     0.126 C 
ENDBRANCH  31  32
ENDBRANCH  27  31
ENDBRANCH   4  20
TORSDOF 3
ENDMDL
MODEL 4
REMARK VINA RESULT:      -8.8     19.622     23.647
REMARK  3 active torsions:
REMARK  status: ('A' for Active; 'I' for Inactive)
REMARK    1  A    between atoms: C26_33  and  O4_4 
REMARK    2  A    between atoms: C8_15  and  O4_4 
REMARK    3  A    between atoms: C1_8  and  C4_11 
ROOT
HETATM    1  O1  UNK     1      19.210  -4.990  12.048  1.00  0.00    -0.308 OA
HETATM    2  O2  UNK     1      16.709  -5.932  15.277  1.00  0.00    -0.274 OA
HETATM    3  O5  UNK     1      17.262  -3.969  16.295  1.00  0.00    -0.259 OA
HETATM    4  C1  UNK     1      19.107  -3.128  14.275  1.00  0.00     0.105 C 
HETATM    5  C2  UNK     1      18.317  -4.417  14.209  1.00  0.00     0.066 A 
HETATM    6  C3  UNK     1      19.741  -2.792  12.942  1.00  0.00    -0.011 A 
HETATM    7  C5  UNK     1      18.413  -5.242  13.154  1.00  0.00     0.102 A 
HETATM    8  C6  UNK     1      19.776  -3.744  11.917  1.00  0.00     0.083 A 
HETATM    9  C7  UNK     1      17.666  -6.499  13.113  1.00  0.00     0.033 A 
HETATM   10  C9  UNK     1      17.404  -4.730  15.342  1.00  0.00     0.298 A 
HETATM   11  C10 UNK     1      20.314  -1.532  12.713  1.00  0.00     0.011 A 
HETATM   12  C13 UNK     1      16.833  -6.808  14.184  1.00  0.00     0.092 A 
HETATM   13  C14 UNK     1      20.387  -3.457  10.695  1.00  0.00     0.038 A 
HETATM   14  C16 UNK     1      20.920  -1.241  11.490  1.00  0.00     0.001 A 
HETATM   15  C17 UNK     1      17.743  -7.411  12.053  1.00  0.00     0.017 A 
HETATM   16  C18 UNK     1      20.960  -2.204  10.484  1.00  0.00     0.003 A 
HETATM   17  C19 UNK     1      16.087  -7.986  14.228  1.00  0.00     0.038 A 
HETATM   18  C21 UNK     1      17.001  -8.596  12.081  1.00  0.00     0.001 A 
HETATM   19  C23 UNK     1      16.173  -8.883  13.167  1.00  0.00     0.003 A 
ENDROOT
BRANCH   4  20
HETATM   20  C4  UNK     1      20.150  -3.192  15.356  1.00  0.00     0.066 A 
HETATM   21  C11 UNK     1      19.976  -2.173  16.432  1.00  0.00     0.298 A 
HETATM   22  O3  UNK     1      20.909  -2.164  17.460  1.00  0.00    -0.274 OA
HETATM   23  O6  UNK     1      19.048  -1.370  16.420  1.00  0.00    -0.259 OA
HETATM   24  C15 UNK     1      21.979  -3.073  17.504  1.00  0.00     0.092 A 
HETATM   25  C12 UNK     1      22.142  -4.027  16.506  1.00  0.00     0.033 A 
HETATM   26  C22 UNK     1      22.854  -2.971  18.586  1.00  0.00     0.038 A 
HETATM   27  C8  UNK     1      21.176  -4.064  15.405  1.00  0.00     0.105 A 
HETATM   28  C20 UNK     1      23.230  -4.904  16.610  1.00  0.00     0.017 A 
HETATM   29  C24 UNK     1      24.118  -4.814  17.687  1.00  0.00     0.001 A 
HETATM   30  C25 UNK     1      23.930  -3.848  18.674  1.00  0.00     0.003 A 
BRANCH  27  31
HETATM   31  O4  UNK     1      21.416  -5.043  14.465  1.00  0.00    -0.277 OA
BRANCH  31  32
HETATM   32  C26 UNK     1      20.922  -6.277  14.806  1.00  0.00     0.260 C 
HETATM   33  O7  UNK     1      20.253  -6.565  15.789  1.00  0.00    -0.265 OA
HETATM   34  C27 UNK     1      21.319  -7.271  13.753  1.00  0.00     0.126 C 
ENDBRANCH  31  32
ENDBRANCH  27  31
ENDBRANCH   4  20
TORSDOF 3
ENDMDL
MODEL 5
REMARK VINA RESULT:      -8.8      2.124      4.563
REMARK  3 active torsions:
REMARK  status: ('A' for Active; 'I' for Inactive)
REMARK    1  A    between atoms: C26_33  and  O4_4 
REMARK    2  A    between atoms: C8_15  and  O4_4 
REMARK    3  A    between atoms: C1_8  and  C4_11 
ROOT
HETATM    1  O1  UNK     1      31.001  -6.021  36.591  1.00  0.00    -0.308 OA
HETATM    2  O2  UNK     1      30.081  -9.978  37.623  1.00  0.00    -0.274 OA
HETATM    3  O5  UNK     1      31.735 -10.735  36.249  1.00  0.00    -0.259 OA
HETATM    4  C1  UNK     1      32.503  -8.146  35.300  1.00  0.00     0.105 C 
HETATM    5  C2  UNK     1      31.408  -8.379  36.319  1.00  0.00     0.066 A 
HETATM    6  C3  UNK     1      32.906  -6.689  35.236  1.00  0.00    -0.011 A 
HETATM    7  C5  UNK     1      30.743  -7.353  36.876  1.00  0.00     0.102 A 
HETATM    8  C6  UNK     1      32.125  -5.712  35.862  1.00  0.00     0.083 A 
HETATM    9  C7  UNK     1      29.669  -7.590  37.839  1.00  0.00     0.033 A 
HETATM   10  C9  UNK     1      31.109  -9.784  36.708  1.00  0.00     0.298 A 
HETATM   11  C10 UNK     1      34.056  -6.289  34.538  1.00  0.00     0.011 A 
HETATM   12  C13 UNK     1      29.367  -8.904  38.184  1.00  0.00     0.092 A 
HETATM   13  C14 UNK     1      32.469  -4.361  35.781  1.00  0.00     0.038 A 
HETATM   14  C16 UNK     1      34.405  -4.940  34.461  1.00  0.00     0.001 A 
HETATM   15  C17 UNK     1      28.924  -6.565  38.436  1.00  0.00     0.017 A 
HETATM   16  C18 UNK     1      33.609  -3.977  35.079  1.00  0.00     0.003 A 
HETATM   17  C19 UNK     1      28.356  -9.220  39.092  1.00  0.00     0.038 A 
HETATM   18  C21 UNK     1      27.907  -6.864  39.349  1.00  0.00     0.001 A 
HETATM   19  C23 UNK     1      27.624  -8.191  39.676  1.00  0.00     0.003 A 
ENDROOT
BRANCH   4  20
HETATM   20  C4  UNK     1      32.086  -8.642  33.942  1.00  0.00     0.066 A 
HETATM   21  C11 UNK     1      33.105  -9.498  33.268  1.00  0.00     0.298 A 
HETATM   22  O3  UNK     1      32.795  -9.983  32.005  1.00  0.00    -0.274 OA
HETATM   23  O6  UNK     1      34.178  -9.769  33.799  1.00  0.00    -0.259 OA
HETATM   24  C15 UNK     1      31.575  -9.693  31.373  1.00  0.00     0.092 A 
HETATM   25  C12 UNK     1      30.621  -8.899  32.000  1.00  0.00     0.033 A 
HETATM   26  C22 UNK     1      31.373 -10.237  30.104  1.00  0.00     0.038 A 
HETATM   27  C8  UNK     1      30.916  -8.369  33.334  1.00  0.00     0.105 A 
HETATM   28  C20 UNK     1      29.424  -8.649  31.315  1.00  0.00     0.017 A 
HETATM   29  C24 UNK     1      29.206  -9.185  30.042  1.00  0.00     0.001 A 
HETATM   30  C25 UNK     1      30.180  -9.977  29.437  1.00  0.00     0.003 A 
BRANCH  27  31
HETATM   31  O4  UNK     1      29.913  -7.597  33.877  1.00  0.00    -0.277 OA
BRANCH  31  32
HETATM   32  C26 UNK     1      29.762  -6.372  33.277  1.00  0.00     0.260 C 
HETATM   33  O7  UNK     1      30.640  -5.663  32.803  1.00  0.00    -0.265 OA
HETATM   34  C27 UNK     1      28.306  -6.007  33.266  1.00  0.00     0.126 C 
ENDBRANCH  31  32
ENDBRANCH  27  31
ENDBRANCH   4  20
TORSDOF 3
ENDMDL
MODEL 6
REMARK VINA RESULT:      -8.7      2.243      5.938
REMARK  3 active torsions:
REMARK  status: ('A' for Active; 'I' for Inactive)
REMARK    1  A    between atoms: C26_33  and  O4_4 
REMARK    2  A    between atoms: C8_15  and  O4_4 
REMARK    3  A    between atoms: C1_8  and  C4_11 
ROOT
HETATM    1  O1  UNK     1      32.622  -9.294  31.872  1.00  0.00    -0.308 OA
HETATM    2  O2  UNK     1      29.308  -7.032  30.664  1.00  0.00    -0.274 OA
HETATM    3  O5  UNK     1      29.978  -5.311  32.001  1.00  0.00    -0.259 OA
HETATM    4  C1  UNK     1      32.261  -6.670  33.064  1.00  0.00     0.105 C 
HETATM    5  C2  UNK     1      31.326  -7.272  32.037  1.00  0.00     0.066 A 
HETATM    6  C3  UNK     1      33.539  -7.471  33.195  1.00  0.00    -0.011 A 
HETATM    7  C5  UNK     1      31.543  -8.496  31.528  1.00  0.00     0.102 A 
HETATM    8  C6  UNK     1      33.639  -8.739  32.613  1.00  0.00     0.083 A 
HETATM    9  C7  UNK     1      30.619  -9.078  30.556  1.00  0.00     0.033 A 
HETATM   10  C9  UNK     1      30.170  -6.451  31.586  1.00  0.00     0.298 A 
HETATM   11  C10 UNK     1      34.637  -6.966  33.908  1.00  0.00     0.011 A 
HETATM   12  C13 UNK     1      29.521  -8.325  30.153  1.00  0.00     0.092 A 
HETATM   13  C14 UNK     1      34.801  -9.501  32.755  1.00  0.00     0.038 A 
HETATM   14  C16 UNK     1      35.801  -7.723  34.045  1.00  0.00     0.001 A 
HETATM   15  C17 UNK     1      30.777 -10.357  30.007  1.00  0.00     0.017 A 
HETATM   16  C18 UNK     1      35.881  -8.991  33.472  1.00  0.00     0.003 A 
HETATM   17  C19 UNK     1      28.588  -8.804  29.233  1.00  0.00     0.038 A 
HETATM   18  C21 UNK     1      29.852 -10.853  29.082  1.00  0.00     0.001 A 
HETATM   19  C23 UNK     1      28.759 -10.077  28.696  1.00  0.00     0.003 A 
ENDROOT
BRANCH   4  20
HETATM   20  C4  UNK     1      31.579  -6.540  34.399  1.00  0.00     0.066 A 
HETATM   21  C11 UNK     1      31.687  -5.182  35.007  1.00  0.00     0.298 A 
HETATM   22  O3  UNK     1      31.091  -4.989  36.246  1.00  0.00    -0.274 OA
HETATM   23  O6  UNK     1      32.276  -4.264  34.445  1.00  0.00    -0.259 OA
HETATM   24  C15 UNK     1      30.406  -6.018  36.914  1.00  0.00     0.092 A 
HETATM   25  C12 UNK     1      30.301  -7.283  36.348  1.00  0.00     0.033 A 
HETATM   26  C22 UNK     1      29.847  -5.707  38.153  1.00  0.00     0.038 A 
HETATM   27  C8  UNK     1      30.919  -7.523  35.042  1.00  0.00     0.105 A 
HETATM   28  C20 UNK     1      29.604  -8.265  37.065  1.00  0.00     0.017 A 
HETATM   29  C24 UNK     1      29.038  -7.971  38.310  1.00  0.00     0.001 A 
HETATM   30  C25 UNK     1      29.159  -6.694  38.854  1.00  0.00     0.003 A 
BRANCH  27  31
HETATM   31  O4  UNK     1      30.760  -8.804  34.559  1.00  0.00    -0.277 OA
BRANCH  31  32
HETATM   32  C26 UNK     1      31.610  -9.723  35.122  1.00  0.00     0.260 C 
HETATM   33  O7  UNK     1      32.570  -9.501  35.848  1.00  0.00    -0.265 OA
HETATM   34  C27 UNK     1      31.174 -11.102  34.721  1.00  0.00     0.126 C 
ENDBRANCH  31  32
ENDBRANCH  27  31
ENDBRANCH   4  20
TORSDOF 3
ENDMDL
MODEL 7
REMARK VINA RESULT:      -8.7      1.815      6.347
REMARK  3 active torsions:
REMARK  status: ('A' for Active; 'I' for Inactive)
REMARK    1  A    between atoms: C26_33  and  O4_4 
REMARK    2  A    between atoms: C8_15  and  O4_4 
REMARK    3  A    between atoms: C1_8  and  C4_11 
ROOT
HETATM    1  O1  UNK     1      31.241  -5.623  33.459  1.00  0.00    -0.308 OA
HETATM    2  O2  UNK     1      33.256  -8.326  35.948  1.00  0.00    -0.274 OA
HETATM    3  O5  UNK     1      31.645  -9.894  35.572  1.00  0.00    -0.259 OA
HETATM    4  C1  UNK     1      30.023  -8.221  33.912  1.00  0.00     0.105 C 
HETATM    5  C2  UNK     1      31.337  -7.782  34.521  1.00  0.00     0.066 A 
HETATM    6  C3  UNK     1      29.557  -7.264  32.836  1.00  0.00    -0.011 A 
HETATM    7  C5  UNK     1      31.846  -6.563  34.279  1.00  0.00     0.102 A 
HETATM    8  C6  UNK     1      30.174  -6.017  32.685  1.00  0.00     0.083 A 
HETATM    9  C7  UNK     1      33.103  -6.139  34.894  1.00  0.00     0.033 A 
HETATM   10  C9  UNK     1      32.065  -8.758  35.376  1.00  0.00     0.298 A 
HETATM   11  C10 UNK     1      28.495  -7.599  31.983  1.00  0.00     0.011 A 
HETATM   12  C13 UNK     1      33.773  -7.039  35.717  1.00  0.00     0.092 A 
HETATM   13  C14 UNK     1      29.732  -5.113  31.718  1.00  0.00     0.038 A 
HETATM   14  C16 UNK     1      28.055  -6.698  31.011  1.00  0.00     0.001 A 
HETATM   15  C17 UNK     1      33.672  -4.874  34.700  1.00  0.00     0.017 A 
HETATM   16  C18 UNK     1      28.671  -5.455  30.882  1.00  0.00     0.003 A 
HETATM   17  C19 UNK     1      34.976  -6.716  36.346  1.00  0.00     0.038 A 
HETATM   18  C21 UNK     1      34.878  -4.534  35.322  1.00  0.00     0.001 A 
HETATM   19  C23 UNK     1      35.529  -5.455  36.144  1.00  0.00     0.003 A 
ENDROOT
BRANCH   4  20
HETATM   20  C4  UNK     1      28.967  -8.381  34.972  1.00  0.00     0.066 A 
HETATM   21  C11 UNK     1      28.278  -9.704  34.951  1.00  0.00     0.298 A 
HETATM   22  O3  UNK     1      27.283  -9.920  35.893  1.00  0.00    -0.274 OA
HETATM   23  O6  UNK     1      28.571 -10.574  34.137  1.00  0.00    -0.259 OA
HETATM   24  C15 UNK     1      26.927  -8.945  36.840  1.00  0.00     0.092 A 
HETATM   25  C12 UNK     1      27.570  -7.712  36.866  1.00  0.00     0.033 A 
HETATM   26  C22 UNK     1      25.913  -9.274  37.740  1.00  0.00     0.038 A 
HETATM   27  C8  UNK     1      28.625  -7.450  35.884  1.00  0.00     0.105 A 
HETATM   28  C20 UNK     1      27.169  -6.784  37.836  1.00  0.00     0.017 A 
HETATM   29  C24 UNK     1      26.152  -7.098  38.745  1.00  0.00     0.001 A 
HETATM   30  C25 UNK     1      25.525  -8.341  38.696  1.00  0.00     0.003 A 
BRANCH  27  31
HETATM   31  O4  UNK     1      29.207  -6.206  35.988  1.00  0.00    -0.277 OA
BRANCH  31  32
HETATM   32  C26 UNK     1      30.032  -6.063  37.076  1.00  0.00     0.260 C 
HETATM   33  O7  UNK     1      30.520  -6.952  37.761  1.00  0.00    -0.265 OA
HETATM   34  C27 UNK     1      30.279  -4.601  37.314  1.00  0.00     0.126 C 
ENDBRANCH  31  32
ENDBRANCH  27  31
ENDBRANCH   4  20
TORSDOF 3
ENDMDL
MODEL 8
REMARK VINA RESULT:      -8.7      2.506      4.695
REMARK  3 active torsions:
REMARK  status: ('A' for Active; 'I' for Inactive)
REMARK    1  A    between atoms: C26_33  and  O4_4 
REMARK    2  A    between atoms: C8_15  and  O4_4 
REMARK    3  A    between atoms: C1_8  and  C4_11 
ROOT
HETATM    1  O1  UNK     1      29.409 -10.062  31.249  1.00  0.00    -0.308 OA
HETATM    2  O2  UNK     1      31.122 -12.119  34.474  1.00  0.00    -0.274 OA
HETATM    3  O5  UNK     1      30.731 -10.335  35.837  1.00  0.00    -0.259 OA
HETATM    4  C1  UNK     1      29.607  -8.676  33.794  1.00  0.00     0.105 C 
HETATM    5  C2  UNK     1      30.086 -10.092  33.560  1.00  0.00     0.066 A 
HETATM    6  C3  UNK     1      28.776  -8.168  32.636  1.00  0.00    -0.011 A 
HETATM    7  C5  UNK     1      29.974 -10.677  32.355  1.00  0.00     0.102 A 
HETATM    8  C6  UNK     1      28.741  -8.874  31.428  1.00  0.00     0.083 A 
HETATM    9  C7  UNK     1      30.464 -12.037  32.133  1.00  0.00     0.033 A 
HETATM   10  C9  UNK     1      30.662 -10.830  34.716  1.00  0.00     0.298 A 
HETATM   11  C10 UNK     1      28.039  -6.979  32.744  1.00  0.00     0.011 A 
HETATM   12  C13 UNK     1      31.029 -12.720  33.206  1.00  0.00     0.092 A 
HETATM   13  C14 UNK     1      28.004  -8.397  30.342  1.00  0.00     0.038 A 
HETATM   14  C16 UNK     1      27.297  -6.504  31.661  1.00  0.00     0.001 A 
HETATM   15  C17 UNK     1      30.398 -12.691  30.896  1.00  0.00     0.017 A 
HETATM   16  C18 UNK     1      27.283  -7.211  30.461  1.00  0.00     0.003 A 
HETATM   17  C19 UNK     1      31.525 -14.019  33.081  1.00  0.00     0.038 A 
HETATM   18  C21 UNK     1      30.889 -13.993  30.755  1.00  0.00     0.001 A 
HETATM   19  C23 UNK     1      31.452 -14.656  31.846  1.00  0.00     0.003 A 
ENDROOT
BRANCH   4  20
HETATM   20  C4  UNK     1      30.767  -7.755  34.058  1.00  0.00     0.066 A 
HETATM   21  C11 UNK     1      30.551  -6.816  35.197  1.00  0.00     0.298 A 
HETATM   22  O3  UNK     1      31.574  -5.926  35.494  1.00  0.00    -0.274 OA
HETATM   23  O6  UNK     1      29.514  -6.820  35.854  1.00  0.00    -0.259 OA
HETATM   24  C15 UNK     1      32.774  -5.899  34.764  1.00  0.00     0.092 A 
HETATM   25  C12 UNK     1      32.980  -6.775  33.705  1.00  0.00     0.033 A 
HETATM   26  C22 UNK     1      33.732  -4.962  35.154  1.00  0.00     0.038 A 
HETATM   27  C8  UNK     1      31.920  -7.726  33.363  1.00  0.00     0.105 A 
HETATM   28  C20 UNK     1      34.200  -6.696  33.018  1.00  0.00     0.017 A 
HETATM   29  C24 UNK     1      35.171  -5.762  33.394  1.00  0.00     0.001 A 
HETATM   30  C25 UNK     1      34.936  -4.896  34.461  1.00  0.00     0.003 A 
BRANCH  27  31
HETATM   31  O4  UNK     1      32.215  -8.556  32.303  1.00  0.00    -0.277 OA
BRANCH  31  32
HETATM   32  C26 UNK     1      32.120  -7.949  31.075  1.00  0.00     0.260 C 
HETATM   33  O7  UNK     1      31.499  -6.934  30.794  1.00  0.00    -0.265 OA
HETATM   34  C27 UNK     1      32.931  -8.729  30.081  1.00  0.00     0.126 C 
ENDBRANCH  31  32
ENDBRANCH  27  31
ENDBRANCH   4  20
TORSDOF 3
ENDMDL
MODEL 9
REMARK VINA RESULT:      -8.6     19.185     23.739
REMARK  3 active torsions:
REMARK  status: ('A' for Active; 'I' for Inactive)
REMARK    1  A    between atoms: C26_33  and  O4_4 
REMARK    2  A    between atoms: C8_15  and  O4_4 
REMARK    3  A    between atoms: C1_8  and  C4_11 
ROOT
HETATM    1  O1  UNK     1      21.486  -2.590  14.799  1.00  0.00    -0.308 OA
HETATM    2  O2  UNK     1      22.759  -6.224  16.455  1.00  0.00    -0.274 OA
HETATM    3  O5  UNK     1      21.467  -7.370  14.967  1.00  0.00    -0.259 OA
HETATM    4  C1  UNK     1      20.364  -5.043  13.719  1.00  0.00     0.105 C 
HETATM    5  C2  UNK     1      21.376  -4.995  14.843  1.00  0.00     0.066 A 
HETATM    6  C3  UNK     1      20.211  -3.695  13.047  1.00  0.00    -0.011 A 
HETATM    7  C5  UNK     1      21.853  -3.827  15.305  1.00  0.00     0.102 A 
HETATM    8  C6  UNK     1      20.758  -2.548  13.633  1.00  0.00     0.083 A 
HETATM    9  C7  UNK     1      22.811  -3.793  16.409  1.00  0.00     0.033 A 
HETATM   10  C9  UNK     1      21.851  -6.289  15.404  1.00  0.00     0.298 A 
HETATM   11  C10 UNK     1      19.509  -3.567  11.839  1.00  0.00     0.011 A 
HETATM   12  C13 UNK     1      23.236  -4.999  16.956  1.00  0.00     0.092 A 
HETATM   13  C14 UNK     1      20.595  -1.295  13.039  1.00  0.00     0.038 A 
HETATM   14  C16 UNK     1      19.350  -2.316  11.242  1.00  0.00     0.001 A 
HETATM   15  C17 UNK     1      23.326  -2.607  16.950  1.00  0.00     0.017 A 
HETATM   16  C18 UNK     1      19.889  -1.181  11.843  1.00  0.00     0.003 A 
HETATM   17  C19 UNK     1      24.145  -5.057  18.013  1.00  0.00     0.038 A 
HETATM   18  C21 UNK     1      24.239  -2.647  18.009  1.00  0.00     0.001 A 
HETATM   19  C23 UNK     1      24.648  -3.872  18.540  1.00  0.00     0.003 A 
ENDROOT
BRANCH   4  20
HETATM   20  C4  UNK     1      19.034  -5.542  14.216  1.00  0.00     0.066 A 
HETATM   21  C11 UNK     1      18.488  -6.692  13.439  1.00  0.00     0.298 A 
HETATM   22  O3  UNK     1      17.257  -7.199  13.832  1.00  0.00    -0.274 OA
HETATM   23  O6  UNK     1      19.092  -7.178  12.488  1.00  0.00    -0.259 OA
HETATM   24  C15 UNK     1      16.542  -6.667  14.917  1.00  0.00     0.092 A 
HETATM   25  C12 UNK     1      17.051  -5.598  15.646  1.00  0.00     0.033 A 
HETATM   26  C22 UNK     1      15.316  -7.259  15.221  1.00  0.00     0.038 A 
HETATM   27  C8  UNK     1      18.347  -5.036  15.258  1.00  0.00     0.105 A 
HETATM   28  C20 UNK     1      16.288  -5.114  16.718  1.00  0.00     0.017 A 
HETATM   29  C24 UNK     1      15.056  -5.695  17.036  1.00  0.00     0.001 A 
HETATM   30  C25 UNK     1      14.570  -6.766  16.288  1.00  0.00     0.003 A 
BRANCH  27  31
HETATM   31  O4  UNK     1      18.772  -3.983  16.039  1.00  0.00    -0.277 OA
BRANCH  31  32
HETATM   32  C26 UNK     1      18.233  -2.772  15.685  1.00  0.00     0.260 C 
HETATM   33  O7  UNK     1      17.497  -2.533  14.736  1.00  0.00    -0.265 OA
HETATM   34  C27 UNK     1      18.677  -1.732  16.672  1.00  0.00     0.126 C 
ENDBRANCH  31  32
ENDBRANCH  27  31
ENDBRANCH   4  20
TORSDOF 3
ENDMDL
MODEL 10
REMARK VINA RESULT:      -8.5      2.612      4.441
REMARK  3 active torsions:
REMARK  status: ('A' for Active; 'I' for Inactive)
REMARK    1  A    between atoms: C26_33  and  O4_4 
REMARK    2  A    between atoms: C8_15  and  O4_4 
REMARK    3  A    between atoms: C1_8  and  C4_11 
ROOT
HETATM    1  O1  UNK     1      29.729  -6.462  34.042  1.00  0.00    -0.308 OA
HETATM    2  O2  UNK     1      33.811  -6.248  34.970  1.00  0.00    -0.274 OA
HETATM    3  O5  UNK     1      34.341  -6.660  32.791  1.00  0.00    -0.259 OA
HETATM    4  C1  UNK     1      31.636  -6.954  31.906  1.00  0.00     0.105 C 
HETATM    5  C2  UNK     1      32.024  -6.629  33.332  1.00  0.00     0.066 A 
HETATM    6  C3  UNK     1      30.159  -6.728  31.663  1.00  0.00    -0.011 A 
HETATM    7  C5  UNK     1      31.094  -6.418  34.279  1.00  0.00     0.102 A 
HETATM    8  C6  UNK     1      29.291  -6.518  32.740  1.00  0.00     0.083 A 
HETATM    9  C7  UNK     1      31.481  -6.131  35.660  1.00  0.00     0.033 A 
HETATM   10  C9  UNK     1      33.474  -6.520  33.649  1.00  0.00     0.298 A 
HETATM   11  C10 UNK     1      29.632  -6.739  30.363  1.00  0.00     0.011 A 
HETATM   12  C13 UNK     1      32.836  -6.057  35.966  1.00  0.00     0.092 A 
HETATM   13  C14 UNK     1      27.921  -6.341  32.531  1.00  0.00     0.038 A 
HETATM   14  C16 UNK     1      28.265  -6.556  30.151  1.00  0.00     0.001 A 
HETATM   15  C17 UNK     1      30.560  -5.927  36.695  1.00  0.00     0.017 A 
HETATM   16  C18 UNK     1      27.410  -6.362  31.235  1.00  0.00     0.003 A 
HETATM   17  C19 UNK     1      33.293  -5.790  37.257  1.00  0.00     0.038 A 
HETATM   18  C21 UNK     1      31.000  -5.657  37.995  1.00  0.00     0.001 A 
HETATM   19  C23 UNK     1      32.366  -5.589  38.275  1.00  0.00     0.003 A 
ENDROOT
BRANCH   4  20
HETATM   20  C4  UNK     1      32.021  -8.365  31.555  1.00  0.00     0.066 A 
HETATM   21  C11 UNK     1      32.844  -8.481  30.316  1.00  0.00     0.298 A 
HETATM   22  O3  UNK     1      33.227  -9.755  29.921  1.00  0.00    -0.274 OA
HETATM   23  O6  UNK     1      33.174  -7.495  29.662  1.00  0.00    -0.259 OA
HETATM   24  C15 UNK     1      32.868 -10.901  30.649  1.00  0.00     0.092 A 
HETATM   25  C12 UNK     1      32.105 -10.797  31.806  1.00  0.00     0.033 A 
HETATM   26  C22 UNK     1      33.312 -12.129  30.157  1.00  0.00     0.038 A 
HETATM   27  C8  UNK     1      31.681  -9.467  32.251  1.00  0.00     0.105 A 
HETATM   28  C20 UNK     1      31.781 -11.980  32.485  1.00  0.00     0.017 A 
HETATM   29  C24 UNK     1      32.217 -13.220  32.006  1.00  0.00     0.001 A 
HETATM   30  C25 UNK     1      32.981 -13.294  30.843  1.00  0.00     0.003 A 
BRANCH  27  31
HETATM   31  O4  UNK     1      30.933  -9.462  33.408  1.00  0.00    -0.277 OA
BRANCH  31  32
HETATM   32  C26 UNK     1      29.611  -9.780  33.220  1.00  0.00     0.260 C 
HETATM   33  O7  UNK     1      29.032  -9.954  32.156  1.00  0.00    -0.265 OA
HETATM   34  C27 UNK     1      28.943  -9.905  34.558  1.00  0.00     0.126 C 
ENDBRANCH  31  32
ENDBRANCH  27  31
ENDBRANCH   4  20
TORSDOF 3
ENDMDL
