MODEL 1
REMARK VINA RESULT:      -8.6      0.000      0.000
REMARK  4 active torsions:
REMARK  status: ('A' for Active; 'I' for Inactive)
REMARK    1  A    between atoms: C5_11  and  N1_3 
REMARK    2  A    between atoms: C8_14  and  N2_4 
REMARK    3  A    between atoms: C5_11  and  C6_12 
REMARK    4  A    between atoms: C12_18  and  C16_22 
ROOT
HETATM    1  O1  UNK     1      14.349   8.644  32.814  1.00  0.00    -0.275 OA
HETATM    2  O2  UNK     1      13.466   6.704  31.985  1.00  0.00    -0.260 OA
HETATM    3  C6  UNK     1      16.901   7.433  32.660  1.00  0.00    -0.011 A 
HETATM    4  C7  UNK     1      16.761   8.808  33.158  1.00  0.00     0.007 A 
HETATM    5  C9  UNK     1      15.801   6.766  32.282  1.00  0.00     0.092 A 
HETATM    6  C10 UNK     1      15.486   9.371  33.219  1.00  0.00     0.090 A 
HETATM    7  C11 UNK     1      17.841   9.597  33.578  1.00  0.00     0.022 A 
HETATM    8  C12 UNK     1      17.636  10.902  34.041  1.00  0.00    -0.058 A 
HETATM    9  C13 UNK     1      14.449   7.346  32.340  1.00  0.00     0.288 A 
HETATM   10  C14 UNK     1      15.265  10.671  33.678  1.00  0.00     0.039 A 
HETATM   11  C15 UNK     1      16.350  11.438  34.091  1.00  0.00     0.010 A 
ENDROOT
BRANCH   3  12
HETATM   12  C5  UNK     1      18.259   6.799  32.582  1.00  0.00     0.312 C 
BRANCH  12  13
HETATM   13  N1  UNK     1      18.077   5.561  31.826  1.00  0.00     0.095 N 
HETATM   14  C1  UNK     1      18.288   4.393  32.689  1.00  0.00     0.293 C 
HETATM   15  C3  UNK     1      18.045   3.090  31.923  1.00  0.00     0.171 C 
HETATM   16  N2  UNK     1      18.857   3.053  30.702  1.00  0.00    -0.211 N 
HETATM   17  C4  UNK     1      18.783   4.249  29.853  1.00  0.00     0.171 C 
HETATM   18  C2  UNK     1      19.003   5.514  30.687  1.00  0.00     0.293 C 
BRANCH  16  19
HETATM   19  C8  UNK     1      19.129   1.826  30.087  1.00  0.00     0.724 A 
HETATM   20  N3  UNK     1      19.943   0.986  30.753  1.00  0.00    -0.075 NA
HETATM   21  C17 UNK     1      20.183  -0.187  30.131  1.00  0.00     0.138 A 
HETATM   22  C20 UNK     1      19.651  -0.527  28.904  1.00  0.00     0.040 A 
HETATM   23  C18 UNK     1      18.832   0.420  28.325  1.00  0.00     0.138 A 
HETATM   24  N4  UNK     1      18.548   1.612  28.890  1.00  0.00    -0.075 NA
ENDBRANCH  16  19
ENDBRANCH  12  13
ENDBRANCH   3  12
BRANCH   8  25
HETATM   25  C16 UNK     1      18.800  11.724  34.484  1.00  0.00     0.034 C 
HETATM   26  C19 UNK     1      18.370  13.034  35.137  1.00  0.00     0.010 C 
ENDBRANCH   8  25
TORSDOF 4
ENDMDL
MODEL 2
REMARK VINA RESULT:      -8.5      8.761     11.750
REMARK  4 active torsions:
REMARK  status: ('A' for Active; 'I' for Inactive)
REMARK    1  A    between atoms: C5_11  and  N1_3 
REMARK    2  A    between atoms: C8_14  and  N2_4 
REMARK    3  A    between atoms: C5_11  and  C6_12 
REMARK    4  A    between atoms: C12_18  and  C16_22 
ROOT
HETATM    1  O1  UNK     1      19.484  -1.223  32.876  1.00  0.00    -0.275 OA
HETATM    2  O2  UNK     1      20.934  -2.770  32.021  1.00  0.00    -0.260 OA
HETATM    3  C6  UNK     1      19.959  -2.335  35.433  1.00  0.00    -0.011 A 
HETATM    4  C7  UNK     1      19.037  -1.201  35.277  1.00  0.00     0.007 A 
HETATM    5  C9  UNK     1      20.568  -2.830  34.346  1.00  0.00     0.092 A 
HETATM    6  C10 UNK     1      18.829  -0.680  33.999  1.00  0.00     0.090 A 
HETATM    7  C11 UNK     1      18.349  -0.605  36.342  1.00  0.00     0.022 A 
HETATM    8  C12 UNK     1      17.485   0.474  36.121  1.00  0.00    -0.058 A 
HETATM    9  C13 UNK     1      20.359  -2.291  32.991  1.00  0.00     0.288 A 
HETATM   10  C14 UNK     1      17.971   0.396  33.763  1.00  0.00     0.039 A 
HETATM   11  C15 UNK     1      17.297   0.974  34.834  1.00  0.00     0.010 A 
ENDROOT
BRANCH   3  12
HETATM   12  C5  UNK     1      20.205  -2.918  36.794  1.00  0.00     0.312 C 
BRANCH  12  13
HETATM   13  N1  UNK     1      20.333  -4.360  36.591  1.00  0.00     0.095 N 
HETATM   14  C1  UNK     1      19.010  -4.995  36.552  1.00  0.00     0.293 C 
HETATM   15  C3  UNK     1      19.128  -6.498  36.283  1.00  0.00     0.171 C 
HETATM   16  N2  UNK     1      20.034  -7.124  37.252  1.00  0.00    -0.211 N 
HETATM   17  C4  UNK     1      21.334  -6.461  37.426  1.00  0.00     0.171 C 
HETATM   18  C2  UNK     1      21.144  -4.960  37.659  1.00  0.00     0.293 C 
BRANCH  16  19
HETATM   19  C8  UNK     1      19.965  -8.503  37.477  1.00  0.00     0.724 A 
HETATM   20  N3  UNK     1      19.407  -8.896  38.637  1.00  0.00    -0.075 NA
HETATM   21  C17 UNK     1      19.356 -10.231  38.821  1.00  0.00     0.138 A 
HETATM   22  C20 UNK     1      19.832 -11.149  37.907  1.00  0.00     0.040 A 
HETATM   23  C18 UNK     1      20.381 -10.619  36.758  1.00  0.00     0.138 A 
HETATM   24  N4  UNK     1      20.464  -9.296  36.509  1.00  0.00    -0.075 NA
ENDBRANCH  16  19
ENDBRANCH  12  13
ENDBRANCH   3  12
BRANCH   8  25
HETATM   25  C16 UNK     1      16.763   1.093  37.271  1.00  0.00     0.034 C 
HETATM   26  C19 UNK     1      17.682   1.353  38.461  1.00  0.00     0.010 C 
ENDBRANCH   8  25
TORSDOF 4
ENDMDL
MODEL 3
REMARK VINA RESULT:      -8.5      8.893     12.261
REMARK  4 active torsions:
REMARK  status: ('A' for Active; 'I' for Inactive)
REMARK    1  A    between atoms: C5_11  and  N1_3 
REMARK    2  A    between atoms: C8_14  and  N2_4 
REMARK    3  A    between atoms: C5_11  and  C6_12 
REMARK    4  A    between atoms: C12_18  and  C16_22 
ROOT
HETATM    1  O1  UNK     1      17.593  -0.479  35.402  1.00  0.00    -0.275 OA
HETATM    2  O2  UNK     1      17.089  -0.325  37.627  1.00  0.00    -0.260 OA
HETATM    3  C6  UNK     1      19.747  -2.173  36.108  1.00  0.00    -0.011 A 
HETATM    4  C7  UNK     1      19.495  -1.841  34.698  1.00  0.00     0.007 A 
HETATM    5  C9  UNK     1      18.940  -1.660  37.048  1.00  0.00     0.092 A 
HETATM    6  C10 UNK     1      18.423  -1.002  34.391  1.00  0.00     0.090 A 
HETATM    7  C11 UNK     1      20.272  -2.321  33.635  1.00  0.00     0.022 A 
HETATM    8  C12 UNK     1      19.975  -1.965  32.315  1.00  0.00    -0.058 A 
HETATM    9  C13 UNK     1      17.805  -0.774  36.739  1.00  0.00     0.288 A 
HETATM   10  C14 UNK     1      18.114  -0.638  33.079  1.00  0.00     0.039 A 
HETATM   11  C15 UNK     1      18.898  -1.125  32.037  1.00  0.00     0.010 A 
ENDROOT
BRANCH   3  12
HETATM   12  C5  UNK     1      20.891  -3.072  36.473  1.00  0.00     0.312 C 
BRANCH  12  13
HETATM   13  N1  UNK     1      20.285  -4.281  37.029  1.00  0.00     0.095 N 
HETATM   14  C1  UNK     1      21.204  -4.931  37.972  1.00  0.00     0.293 C 
HETATM   15  C3  UNK     1      20.561  -6.167  38.605  1.00  0.00     0.171 C 
HETATM   16  N2  UNK     1      20.067  -7.078  37.568  1.00  0.00    -0.211 N 
HETATM   17  C4  UNK     1      19.238  -6.462  36.523  1.00  0.00     0.171 C 
HETATM   18  C2  UNK     1      19.925  -5.217  35.957  1.00  0.00     0.293 C 
BRANCH  16  19
HETATM   19  C8  UNK     1      19.842  -8.424  37.876  1.00  0.00     0.724 A 
HETATM   20  N3  UNK     1      19.877  -8.757  39.180  1.00  0.00    -0.075 NA
HETATM   21  C17 UNK     1      19.656 -10.062  39.440  1.00  0.00     0.138 A 
HETATM   22  C20 UNK     1      19.411 -11.007  38.465  1.00  0.00     0.040 A 
HETATM   23  C18 UNK     1      19.402 -10.539  37.168  1.00  0.00     0.138 A 
HETATM   24  N4  UNK     1      19.614  -9.249  36.835  1.00  0.00    -0.075 NA
ENDBRANCH  16  19
ENDBRANCH  12  13
ENDBRANCH   3  12
BRANCH   8  25
HETATM   25  C16 UNK     1      20.816  -2.487  31.199  1.00  0.00     0.034 C 
HETATM   26  C19 UNK     1      20.409  -1.908  29.847  1.00  0.00     0.010 C 
ENDBRANCH   8  25
TORSDOF 4
ENDMDL
MODEL 4
REMARK VINA RESULT:      -8.3      3.005      9.169
REMARK  4 active torsions:
REMARK  status: ('A' for Active; 'I' for Inactive)
REMARK    1  A    between atoms: C5_11  and  N1_3 
REMARK    2  A    between atoms: C8_14  and  N2_4 
REMARK    3  A    between atoms: C5_11  and  C6_12 
REMARK    4  A    between atoms: C12_18  and  C16_22 
ROOT
HETATM    1  O1  UNK     1      18.428   0.878  34.470  1.00  0.00    -0.275 OA
HETATM    2  O2  UNK     1      17.844   2.241  36.211  1.00  0.00    -0.260 OA
HETATM    3  C6  UNK     1      18.373   3.158  32.795  1.00  0.00    -0.011 A 
HETATM    4  C7  UNK     1      18.712   1.839  32.242  1.00  0.00     0.007 A 
HETATM    5  C9  UNK     1      18.093   3.260  34.102  1.00  0.00     0.092 A 
HETATM    6  C10 UNK     1      18.729   0.739  33.100  1.00  0.00     0.090 A 
HETATM    7  C11 UNK     1      19.023   1.617  30.894  1.00  0.00     0.022 A 
HETATM    8  C12 UNK     1      19.337   0.333  30.434  1.00  0.00    -0.058 A 
HETATM    9  C13 UNK     1      18.106   2.108  35.020  1.00  0.00     0.288 A 
HETATM   10  C14 UNK     1      19.040  -0.548  32.657  1.00  0.00     0.039 A 
HETATM   11  C15 UNK     1      19.346  -0.748  31.314  1.00  0.00     0.010 A 
ENDROOT
BRANCH   3  12
HETATM   12  C5  UNK     1      18.347   4.361  31.900  1.00  0.00     0.312 C 
BRANCH  12  13
HETATM   13  N1  UNK     1      18.086   5.503  32.775  1.00  0.00     0.095 N 
HETATM   14  C1  UNK     1      16.797   6.123  32.443  1.00  0.00     0.293 C 
HETATM   15  C3  UNK     1      16.485   7.285  33.389  1.00  0.00     0.171 C 
HETATM   16  N2  UNK     1      17.594   8.245  33.407  1.00  0.00    -0.211 N 
HETATM   17  C4  UNK     1      18.929   7.669  33.615  1.00  0.00     0.171 C 
HETATM   18  C2  UNK     1      19.162   6.496  32.660  1.00  0.00     0.293 C 
BRANCH  16  19
HETATM   19  C8  UNK     1      17.369   9.557  33.840  1.00  0.00     0.724 A 
HETATM   20  N3  UNK     1      16.163   9.814  34.380  1.00  0.00    -0.075 NA
HETATM   21  C17 UNK     1      15.982  11.087  34.787  1.00  0.00     0.138 A 
HETATM   22  C20 UNK     1      16.940  12.073  34.669  1.00  0.00     0.040 A 
HETATM   23  C18 UNK     1      18.133  11.682  34.098  1.00  0.00     0.138 A 
HETATM   24  N4  UNK     1      18.383  10.427  33.671  1.00  0.00    -0.075 NA
ENDBRANCH  16  19
ENDBRANCH  12  13
ENDBRANCH   3  12
BRANCH   8  25
HETATM   25  C16 UNK     1      19.665   0.121  28.994  1.00  0.00     0.034 C 
HETATM   26  C19 UNK     1      20.816  -0.863  28.801  1.00  0.00     0.010 C 
ENDBRANCH   8  25
TORSDOF 4
ENDMDL
MODEL 5
REMARK VINA RESULT:      -8.1     14.895     17.985
REMARK  4 active torsions:
REMARK  status: ('A' for Active; 'I' for Inactive)
REMARK    1  A    between atoms: C5_11  and  N1_3 
REMARK    2  A    between atoms: C8_14  and  N2_4 
REMARK    3  A    between atoms: C5_11  and  C6_12 
REMARK    4  A    between atoms: C12_18  and  C16_22 
ROOT
HETATM    1  O1  UNK     1      20.880  -6.834  36.422  1.00  0.00    -0.275 OA
HETATM    2  O2  UNK     1      20.584  -4.909  37.619  1.00  0.00    -0.260 OA
HETATM    3  C6  UNK     1      22.864  -7.579  38.297  1.00  0.00    -0.011 A 
HETATM    4  C7  UNK     1      22.539  -8.464  37.170  1.00  0.00     0.007 A 
HETATM    5  C9  UNK     1      22.206  -6.417  38.419  1.00  0.00     0.092 A 
HETATM    6  C10 UNK     1      21.554  -8.062  36.267  1.00  0.00     0.090 A 
HETATM    7  C11 UNK     1      23.161  -9.700  36.947  1.00  0.00     0.022 A 
HETATM    8  C12 UNK     1      22.802 -10.494  35.852  1.00  0.00    -0.058 A 
HETATM    9  C13 UNK     1      21.165  -5.979  37.474  1.00  0.00     0.288 A 
HETATM   10  C14 UNK     1      21.184  -8.843  35.171  1.00  0.00     0.039 A 
HETATM   11  C15 UNK     1      21.815 -10.067  34.966  1.00  0.00     0.010 A 
ENDROOT
BRANCH   3  12
HETATM   12  C5  UNK     1      23.917  -7.982  39.287  1.00  0.00     0.312 C 
BRANCH  12  13
HETATM   13  N1  UNK     1      25.194  -7.597  38.688  1.00  0.00     0.095 N 
HETATM   14  C1  UNK     1      26.238  -8.570  39.032  1.00  0.00     0.293 C 
HETATM   15  C3  UNK     1      27.568  -8.210  38.364  1.00  0.00     0.171 C 
HETATM   16  N2  UNK     1      27.946  -6.829  38.682  1.00  0.00    -0.211 N 
HETATM   17  C4  UNK     1      26.899  -5.820  38.473  1.00  0.00     0.171 C 
HETATM   18  C2  UNK     1      25.592  -6.257  39.138  1.00  0.00     0.293 C 
BRANCH  16  19
HETATM   19  C8  UNK     1      29.280  -6.427  38.554  1.00  0.00     0.724 A 
HETATM   20  N3  UNK     1      29.524  -5.108  38.662  1.00  0.00    -0.075 NA
HETATM   21  C17 UNK     1      30.820  -4.757  38.535  1.00  0.00     0.138 A 
HETATM   22  C20 UNK     1      31.840  -5.658  38.309  1.00  0.00     0.040 A 
HETATM   23  C18 UNK     1      31.459  -6.981  38.217  1.00  0.00     0.138 A 
HETATM   24  N4  UNK     1      30.183  -7.403  38.336  1.00  0.00    -0.075 NA
ENDBRANCH  16  19
ENDBRANCH  12  13
ENDBRANCH   3  12
BRANCH   8  25
HETATM   25  C16 UNK     1      23.478 -11.806  35.634  1.00  0.00     0.034 C 
HETATM   26  C19 UNK     1      24.925 -11.800  36.120  1.00  0.00     0.010 C 
ENDBRANCH   8  25
TORSDOF 4
ENDMDL
MODEL 6
REMARK VINA RESULT:      -7.9      3.601      8.970
REMARK  4 active torsions:
REMARK  status: ('A' for Active; 'I' for Inactive)
REMARK    1  A    between atoms: C5_11  and  N1_3 
REMARK    2  A    between atoms: C8_14  and  N2_4 
REMARK    3  A    between atoms: C5_11  and  C6_12 
REMARK    4  A    between atoms: C12_18  and  C16_22 
ROOT
HETATM    1  O1  UNK     1      19.028   4.305  30.400  1.00  0.00    -0.275 OA
HETATM    2  O2  UNK     1      19.502   6.263  29.318  1.00  0.00    -0.260 OA
HETATM    3  C6  UNK     1      18.816   5.796  32.796  1.00  0.00    -0.011 A 
HETATM    4  C7  UNK     1      18.604   4.341  32.806  1.00  0.00     0.007 A 
HETATM    5  C9  UNK     1      19.110   6.400  31.636  1.00  0.00     0.092 A 
HETATM    6  C10 UNK     1      18.717   3.642  31.604  1.00  0.00     0.090 A 
HETATM    7  C11 UNK     1      18.292   3.609  33.959  1.00  0.00     0.022 A 
HETATM    8  C12 UNK     1      18.102   2.223  33.896  1.00  0.00    -0.058 A 
HETATM    9  C13 UNK     1      19.233   5.675  30.359  1.00  0.00     0.288 A 
HETATM   10  C14 UNK     1      18.531   2.260  31.525  1.00  0.00     0.039 A 
HETATM   11  C15 UNK     1      18.221   1.550  32.682  1.00  0.00     0.010 A 
ENDROOT
BRANCH   3  12
HETATM   12  C5  UNK     1      18.702   6.578  34.071  1.00  0.00     0.312 C 
BRANCH  12  13
HETATM   13  N1  UNK     1      17.617   7.534  33.856  1.00  0.00     0.095 N 
HETATM   14  C1  UNK     1      18.023   8.879  34.279  1.00  0.00     0.293 C 
HETATM   15  C3  UNK     1      16.916   9.901  34.007  1.00  0.00     0.171 C 
HETATM   16  N2  UNK     1      15.655   9.466  34.615  1.00  0.00    -0.211 N 
HETATM   17  C4  UNK     1      15.253   8.083  34.326  1.00  0.00     0.171 C 
HETATM   18  C2  UNK     1      16.414   7.121  34.590  1.00  0.00     0.293 C 
BRANCH  16  19
HETATM   19  C8  UNK     1      14.647  10.403  34.868  1.00  0.00     0.724 A 
HETATM   20  N3  UNK     1      13.878  10.757  33.822  1.00  0.00    -0.075 NA
HETATM   21  C17 UNK     1      12.917  11.662  34.102  1.00  0.00     0.138 A 
HETATM   22  C20 UNK     1      12.714  12.201  35.356  1.00  0.00     0.040 A 
HETATM   23  C18 UNK     1      13.569  11.757  36.343  1.00  0.00     0.138 A 
HETATM   24  N4  UNK     1      14.550  10.855  36.134  1.00  0.00    -0.075 NA
ENDBRANCH  16  19
ENDBRANCH  12  13
ENDBRANCH   3  12
BRANCH   8  25
HETATM   25  C16 UNK     1      17.771   1.463  35.136  1.00  0.00     0.034 C 
HETATM   26  C19 UNK     1      16.592   0.515  34.937  1.00  0.00     0.010 C 
ENDBRANCH   8  25
TORSDOF 4
ENDMDL
MODEL 7
REMARK VINA RESULT:      -7.9      1.794      2.316
REMARK  4 active torsions:
REMARK  status: ('A' for Active; 'I' for Inactive)
REMARK    1  A    between atoms: C5_11  and  N1_3 
REMARK    2  A    between atoms: C8_14  and  N2_4 
REMARK    3  A    between atoms: C5_11  and  C6_12 
REMARK    4  A    between atoms: C12_18  and  C16_22 
ROOT
HETATM    1  O1  UNK     1      14.337   8.597  32.834  1.00  0.00    -0.275 OA
HETATM    2  O2  UNK     1      13.344   6.739  31.945  1.00  0.00    -0.260 OA
HETATM    3  C6  UNK     1      16.820   7.260  32.605  1.00  0.00    -0.011 A 
HETATM    4  C7  UNK     1      16.758   8.622  33.155  1.00  0.00     0.007 A 
HETATM    5  C9  UNK     1      15.683   6.666  32.216  1.00  0.00     0.092 A 
HETATM    6  C10 UNK     1      15.515   9.248  33.251  1.00  0.00     0.090 A 
HETATM    7  C11 UNK     1      17.882   9.337  33.590  1.00  0.00     0.022 A 
HETATM    8  C12 UNK     1      17.751  10.633  34.103  1.00  0.00    -0.058 A 
HETATM    9  C13 UNK     1      14.363   7.314  32.312  1.00  0.00     0.288 A 
HETATM   10  C14 UNK     1      15.368  10.540  33.760  1.00  0.00     0.039 A 
HETATM   11  C15 UNK     1      16.497  11.233  34.187  1.00  0.00     0.010 A 
ENDROOT
BRANCH   3  12
HETATM   12  C5  UNK     1      18.141   6.559  32.488  1.00  0.00     0.312 C 
BRANCH  12  13
HETATM   13  N1  UNK     1      17.854   5.136  32.665  1.00  0.00     0.095 N 
HETATM   14  C1  UNK     1      18.377   4.661  33.952  1.00  0.00     0.293 C 
HETATM   15  C3  UNK     1      18.033   3.186  34.176  1.00  0.00     0.171 C 
HETATM   16  N2  UNK     1      18.484   2.375  33.040  1.00  0.00    -0.211 N 
HETATM   17  C4  UNK     1      18.094   2.868  31.712  1.00  0.00     0.171 C 
HETATM   18  C2  UNK     1      18.437   4.353  31.569  1.00  0.00     0.293 C 
BRANCH  16  19
HETATM   19  C8  UNK     1      18.670   0.998  33.201  1.00  0.00     0.724 A 
HETATM   20  N3  UNK     1      18.823   0.276  32.075  1.00  0.00    -0.075 NA
HETATM   21  C17 UNK     1      19.000  -1.048  32.268  1.00  0.00     0.138 A 
HETATM   22  C20 UNK     1      19.026  -1.645  33.511  1.00  0.00     0.040 A 
HETATM   23  C18 UNK     1      18.858  -0.796  34.585  1.00  0.00     0.138 A 
HETATM   24  N4  UNK     1      18.677   0.536  34.467  1.00  0.00    -0.075 NA
ENDBRANCH  16  19
ENDBRANCH  12  13
ENDBRANCH   3  12
BRANCH   8  25
HETATM   25  C16 UNK     1      18.962  11.375  34.560  1.00  0.00     0.034 C 
HETATM   26  C19 UNK     1      18.647  12.818  34.944  1.00  0.00     0.010 C 
ENDBRANCH   8  25
TORSDOF 4
ENDMDL
MODEL 8
REMARK VINA RESULT:      -7.9     17.733     19.223
REMARK  4 active torsions:
REMARK  status: ('A' for Active; 'I' for Inactive)
REMARK    1  A    between atoms: C5_11  and  N1_3 
REMARK    2  A    between atoms: C8_14  and  N2_4 
REMARK    3  A    between atoms: C5_11  and  C6_12 
REMARK    4  A    between atoms: C12_18  and  C16_22 
ROOT
HETATM    1  O1  UNK     1      30.568  -3.639  38.096  1.00  0.00    -0.275 OA
HETATM    2  O2  UNK     1      29.079  -3.636  39.831  1.00  0.00    -0.260 OA
HETATM    3  C6  UNK     1      30.385  -6.462  38.073  1.00  0.00    -0.011 A 
HETATM    4  C7  UNK     1      31.257  -5.767  37.115  1.00  0.00     0.007 A 
HETATM    5  C9  UNK     1      29.682  -5.737  38.954  1.00  0.00     0.092 A 
HETATM    6  C10 UNK     1      31.320  -4.374  37.158  1.00  0.00     0.090 A 
HETATM    7  C11 UNK     1      32.034  -6.424  36.152  1.00  0.00     0.022 A 
HETATM    8  C12 UNK     1      32.843  -5.699  35.269  1.00  0.00    -0.058 A 
HETATM    9  C13 UNK     1      29.738  -4.266  39.011  1.00  0.00     0.288 A 
HETATM   10  C14 UNK     1      32.121  -3.637  36.284  1.00  0.00     0.039 A 
HETATM   11  C15 UNK     1      32.886  -4.308  35.334  1.00  0.00     0.010 A 
ENDROOT
BRANCH   3  12
HETATM   12  C5  UNK     1      30.295  -7.960  38.053  1.00  0.00     0.312 C 
BRANCH  12  13
HETATM   13  N1  UNK     1      28.876  -8.271  37.888  1.00  0.00     0.095 N 
HETATM   14  C1  UNK     1      28.559  -9.569  38.494  1.00  0.00     0.293 C 
HETATM   15  C3  UNK     1      27.065  -9.881  38.377  1.00  0.00     0.171 C 
HETATM   16  N2  UNK     1      26.625  -9.779  36.982  1.00  0.00    -0.211 N 
HETATM   17  C4  UNK     1      27.018  -8.549  36.281  1.00  0.00     0.171 C 
HETATM   18  C2  UNK     1      28.514  -8.282  36.465  1.00  0.00     0.293 C 
BRANCH  16  19
HETATM   19  C8  UNK     1      25.450 -10.419  36.575  1.00  0.00     0.724 A 
HETATM   20  N3  UNK     1      24.333  -9.668  36.550  1.00  0.00    -0.075 NA
HETATM   21  C17 UNK     1      23.219 -10.317  36.153  1.00  0.00     0.138 A 
HETATM   22  C20 UNK     1      23.195 -11.649  35.795  1.00  0.00     0.040 A 
HETATM   23  C18 UNK     1      24.404 -12.309  35.864  1.00  0.00     0.138 A 
HETATM   24  N4  UNK     1      25.556 -11.723  36.251  1.00  0.00    -0.075 NA
ENDBRANCH  16  19
ENDBRANCH  12  13
ENDBRANCH   3  12
BRANCH   8  25
HETATM   25  C16 UNK     1      33.662  -6.420  34.251  1.00  0.00     0.034 C 
HETATM   26  C19 UNK     1      35.028  -5.772  34.042  1.00  0.00     0.010 C 
ENDBRANCH   8  25
TORSDOF 4
ENDMDL
MODEL 9
REMARK VINA RESULT:      -7.9     17.629     18.998
REMARK  4 active torsions:
REMARK  status: ('A' for Active; 'I' for Inactive)
REMARK    1  A    between atoms: C5_11  and  N1_3 
REMARK    2  A    between atoms: C8_14  and  N2_4 
REMARK    3  A    between atoms: C5_11  and  C6_12 
REMARK    4  A    between atoms: C12_18  and  C16_22 
ROOT
HETATM    1  O1  UNK     1      28.127  -6.991  39.406  1.00  0.00    -0.275 OA
HETATM    2  O2  UNK     1      27.253  -9.075  39.752  1.00  0.00    -0.260 OA
HETATM    3  C6  UNK     1      29.846  -8.140  37.474  1.00  0.00    -0.011 A 
HETATM    4  C7  UNK     1      29.907  -6.699  37.758  1.00  0.00     0.007 A 
HETATM    5  C9  UNK     1      28.965  -8.895  38.144  1.00  0.00     0.092 A 
HETATM    6  C10 UNK     1      29.043  -6.170  38.717  1.00  0.00     0.090 A 
HETATM    7  C11 UNK     1      30.787  -5.816  37.117  1.00  0.00     0.022 A 
HETATM    8  C12 UNK     1      30.791  -4.453  37.436  1.00  0.00    -0.058 A 
HETATM    9  C13 UNK     1      28.047  -8.352  39.160  1.00  0.00     0.288 A 
HETATM   10  C14 UNK     1      29.035  -4.813  39.046  1.00  0.00     0.039 A 
HETATM   11  C15 UNK     1      29.916  -3.952  38.398  1.00  0.00     0.010 A 
ENDROOT
BRANCH   3  12
HETATM   12  C5  UNK     1      30.761  -8.740  36.448  1.00  0.00     0.312 C 
BRANCH  12  13
HETATM   13  N1  UNK     1      29.975  -8.834  35.219  1.00  0.00     0.095 N 
HETATM   14  C1  UNK     1      29.986 -10.208  34.703  1.00  0.00     0.293 C 
HETATM   15  C3  UNK     1      29.119 -10.332  33.447  1.00  0.00     0.171 C 
HETATM   16  N2  UNK     1      29.523  -9.341  32.444  1.00  0.00    -0.211 N 
HETATM   17  C4  UNK     1      29.648  -7.960  32.930  1.00  0.00     0.171 C 
HETATM   18  C2  UNK     1      30.499  -7.914  34.202  1.00  0.00     0.293 C 
BRANCH  16  19
HETATM   19  C8  UNK     1      29.186  -9.537  31.101  1.00  0.00     0.724 A 
HETATM   20  N3  UNK     1      29.947 -10.407  30.410  1.00  0.00    -0.075 NA
HETATM   21  C17 UNK     1      29.594 -10.571  29.119  1.00  0.00     0.138 A 
HETATM   22  C20 UNK     1      28.539  -9.911  28.522  1.00  0.00     0.040 A 
HETATM   23  C18 UNK     1      27.838  -9.046  29.337  1.00  0.00     0.138 A 
HETATM   24  N4  UNK     1      28.135  -8.834  30.636  1.00  0.00    -0.075 NA
ENDBRANCH  16  19
ENDBRANCH  12  13
ENDBRANCH   3  12
BRANCH   8  25
HETATM   25  C16 UNK     1      31.737  -3.532  36.741  1.00  0.00     0.034 C 
HETATM   26  C19 UNK     1      32.736  -4.281  35.865  1.00  0.00     0.010 C 
ENDBRANCH   8  25
TORSDOF 4
ENDMDL
MODEL 10
REMARK VINA RESULT:      -7.9     22.633     24.064
REMARK  4 active torsions:
REMARK  status: ('A' for Active; 'I' for Inactive)
REMARK    1  A    between atoms: C5_11  and  N1_3 
REMARK    2  A    between atoms: C8_14  and  N2_4 
REMARK    3  A    between atoms: C5_11  and  C6_12 
REMARK    4  A    between atoms: C12_18  and  C16_22 
ROOT
HETATM    1  O1  UNK     1      16.375   6.161  10.039  1.00  0.00    -0.275 OA
HETATM    2  O2  UNK     1      15.972   3.923   9.803  1.00  0.00    -0.260 OA
HETATM    3  C6  UNK     1      14.038   6.642   8.519  1.00  0.00    -0.011 A 
HETATM    4  C7  UNK     1      14.838   7.766   9.026  1.00  0.00     0.007 A 
HETATM    5  C9  UNK     1      14.435   5.391   8.790  1.00  0.00     0.092 A 
HETATM    6  C10 UNK     1      15.984   7.488   9.772  1.00  0.00     0.090 A 
HETATM    7  C11 UNK     1      14.517   9.112   8.805  1.00  0.00     0.022 A 
HETATM    8  C12 UNK     1      15.324  10.134   9.318  1.00  0.00    -0.058 A 
HETATM    9  C13 UNK     1      15.642   5.081   9.576  1.00  0.00     0.288 A 
HETATM   10  C14 UNK     1      16.799   8.496  10.291  1.00  0.00     0.039 A 
HETATM   11  C15 UNK     1      16.463   9.827  10.060  1.00  0.00     0.010 A 
ENDROOT
BRANCH   3  12
HETATM   12  C5  UNK     1      12.800   6.907   7.714  1.00  0.00     0.312 C 
BRANCH  12  13
HETATM   13  N1  UNK     1      11.677   6.623   8.606  1.00  0.00     0.095 N 
HETATM   14  C1  UNK     1      11.443   5.176   8.695  1.00  0.00     0.293 C 
HETATM   15  C3  UNK     1      10.306   4.861   9.670  1.00  0.00     0.171 C 
HETATM   16  N2  UNK     1       9.099   5.614   9.313  1.00  0.00    -0.211 N 
HETATM   17  C4  UNK     1       9.291   7.053   9.091  1.00  0.00     0.171 C 
HETATM   18  C2  UNK     1      10.461   7.297   8.133  1.00  0.00     0.293 C 
BRANCH  16  19
HETATM   19  C8  UNK     1       7.850   5.181   9.771  1.00  0.00     0.724 A 
HETATM   20  N3  UNK     1       7.054   6.117  10.323  1.00  0.00    -0.075 NA
HETATM   21  C17 UNK     1       5.858   5.665  10.753  1.00  0.00     0.138 A 
HETATM   22  C20 UNK     1       5.453   4.350  10.650  1.00  0.00     0.040 A 
HETATM   23  C18 UNK     1       6.360   3.490  10.066  1.00  0.00     0.138 A 
HETATM   24  N4  UNK     1       7.572   3.873   9.613  1.00  0.00    -0.075 NA
ENDBRANCH  16  19
ENDBRANCH  12  13
ENDBRANCH   3  12
BRANCH   8  25
HETATM   25  C16 UNK     1      14.962  11.560   9.070  1.00  0.00     0.034 C 
HETATM   26  C19 UNK     1      15.561  12.092   7.770  1.00  0.00     0.010 C 
ENDBRANCH   8  25
TORSDOF 4
ENDMDL
