MODEL 1
REMARK VINA RESULT:      -8.2      0.000      0.000
REMARK  2 active torsions:
REMARK  status: ('A' for Active; 'I' for Inactive)
REMARK    1  A    between atoms: C15_20  and  O4_4 
REMARK       I    between atoms: C7_12  and  N1_5 
REMARK    2  A    between atoms: C7_12  and  C8_13 
ROOT
HETATM    1  O2  UNK     1      19.251   1.067  15.470  1.00  0.00    -0.274 OA
HETATM    2  O3  UNK     1      19.346  -0.283  13.629  1.00  0.00    -0.259 OA
HETATM    3  C8  UNK     1      18.930  -1.346  15.705  1.00  0.00     0.108 A 
HETATM    4  C9  UNK     1      18.762  -1.222  17.027  1.00  0.00     0.037 A 
HETATM    5  C10 UNK     1      18.833   0.088  17.656  1.00  0.00     0.002 A 
HETATM    6  C11 UNK     1      19.191  -0.174  14.841  1.00  0.00     0.304 A 
HETATM    7  C12 UNK     1      19.077   1.204  16.861  1.00  0.00     0.089 A 
HETATM    8  C13 UNK     1      18.665   0.264  19.032  1.00  0.00     0.051 A 
HETATM    9  C14 UNK     1      19.155   2.486  17.401  1.00  0.00     0.041 A 
HETATM   10  C15 UNK     1      18.743   1.545  19.587  1.00  0.00     0.069 A 
HETATM   11  C16 UNK     1      18.987   2.653  18.774  1.00  0.00     0.039 A 
ENDROOT
BRANCH   3  12
HETATM   12  C7  UNK     1      18.840  -2.718  15.161  1.00  0.00     0.259 C 
HETATM   13  O1  UNK     1      17.718  -3.162  14.910  1.00  0.00    -0.267 OA
HETATM   14  N1  UNK     1      20.039  -3.413  14.961  1.00  0.00    -0.348 N 
HETATM   15  C5  UNK     1      21.359  -2.849  15.273  1.00  0.00     0.126 C 
HETATM   16  C6  UNK     1      19.965  -4.768  14.408  1.00  0.00     0.126 C 
HETATM   17  C3  UNK     1      22.530  -3.826  15.386  1.00  0.00     0.020 C 
HETATM   18  C1  UNK     1      22.312  -4.917  16.432  1.00  0.00     0.002 C 
HETATM   19  C2  UNK     1      21.541  -6.121  15.898  1.00  0.00     0.002 C 
HETATM   20  C4  UNK     1      20.099  -5.834  15.491  1.00  0.00     0.020 C 
ENDBRANCH   3  12
BRANCH  10  21
HETATM   21  O4  UNK     1      18.579   1.712  20.929  1.00  0.00    -0.356 OA
HETATM   22  C17 UNK     1      19.722   2.130  21.674  1.00  0.00     0.210 C 
ENDBRANCH  10  21
TORSDOF 2
ENDMDL
MODEL 2
REMARK VINA RESULT:      -7.9     14.770     18.109
REMARK  2 active torsions:
REMARK  status: ('A' for Active; 'I' for Inactive)
REMARK    1  A    between atoms: C15_20  and  O4_4 
REMARK       I    between atoms: C7_12  and  N1_5 
REMARK    2  A    between atoms: C7_12  and  C8_13 
ROOT
HETATM    1  O2  UNK     1      19.028   4.257  30.024  1.00  0.00    -0.274 OA
HETATM    2  O3  UNK     1      19.047   6.530  29.793  1.00  0.00    -0.259 OA
HETATM    3  C8  UNK     1      18.513   5.686  31.941  1.00  0.00     0.108 A 
HETATM    4  C9  UNK     1      18.332   4.615  32.724  1.00  0.00     0.037 A 
HETATM    5  C10 UNK     1      18.492   3.275  32.182  1.00  0.00     0.002 A 
HETATM    6  C11 UNK     1      18.880   5.552  30.514  1.00  0.00     0.304 A 
HETATM    7  C12 UNK     1      18.837   3.126  30.843  1.00  0.00     0.089 A 
HETATM    8  C13 UNK     1      18.311   2.130  32.962  1.00  0.00     0.051 A 
HETATM    9  C14 UNK     1      19.007   1.871  30.264  1.00  0.00     0.041 A 
HETATM   10  C15 UNK     1      18.477   0.863  32.394  1.00  0.00     0.069 A 
HETATM   11  C16 UNK     1      18.824   0.734  31.048  1.00  0.00     0.039 A 
ENDROOT
BRANCH   3  12
HETATM   12  C7  UNK     1      18.328   7.004  32.584  1.00  0.00     0.259 C 
HETATM   13  O1  UNK     1      19.304   7.514  33.137  1.00  0.00    -0.267 OA
HETATM   14  N1  UNK     1      17.056   7.585  32.509  1.00  0.00    -0.348 N 
HETATM   15  C5  UNK     1      15.916   6.946  31.839  1.00  0.00     0.126 C 
HETATM   16  C6  UNK     1      16.862   8.899  33.129  1.00  0.00     0.126 C 
HETATM   17  C3  UNK     1      14.522   7.480  32.166  1.00  0.00     0.020 C 
HETATM   18  C1  UNK     1      14.182   7.426  33.654  1.00  0.00     0.002 C 
HETATM   19  C2  UNK     1      14.678   8.642  34.431  1.00  0.00     0.002 C 
HETATM   20  C4  UNK     1      16.195   8.792  34.497  1.00  0.00     0.020 C 
ENDBRANCH   3  12
BRANCH  10  21
HETATM   21  O4  UNK     1      18.298  -0.251  33.158  1.00  0.00    -0.356 OA
HETATM   22  C17 UNK     1      19.040  -1.413  32.792  1.00  0.00     0.210 C 
ENDBRANCH  10  21
TORSDOF 2
ENDMDL
MODEL 3
REMARK VINA RESULT:      -7.7     21.533     23.959
REMARK  2 active torsions:
REMARK  status: ('A' for Active; 'I' for Inactive)
REMARK    1  A    between atoms: C15_20  and  O4_4 
REMARK       I    between atoms: C7_12  and  N1_5 
REMARK    2  A    between atoms: C7_12  and  C8_13 
ROOT
HETATM    1  O2  UNK     1      25.743  -6.081  38.662  1.00  0.00    -0.274 OA
HETATM    2  O3  UNK     1      23.563  -5.402  38.748  1.00  0.00    -0.259 OA
HETATM    3  C8  UNK     1      23.967  -7.718  39.044  1.00  0.00     0.108 A 
HETATM    4  C9  UNK     1      24.861  -8.712  39.110  1.00  0.00     0.037 A 
HETATM    5  C10 UNK     1      26.280  -8.434  38.950  1.00  0.00     0.002 A 
HETATM    6  C11 UNK     1      24.379  -6.316  38.810  1.00  0.00     0.304 A 
HETATM    7  C12 UNK     1      26.689  -7.123  38.729  1.00  0.00     0.089 A 
HETATM    8  C13 UNK     1      27.247  -9.440  39.009  1.00  0.00     0.051 A 
HETATM    9  C14 UNK     1      28.032  -6.790  38.569  1.00  0.00     0.041 A 
HETATM   10  C15 UNK     1      28.599  -9.121  38.849  1.00  0.00     0.069 A 
HETATM   11  C16 UNK     1      28.990  -7.799  38.630  1.00  0.00     0.039 A 
ENDROOT
BRANCH   3  12
HETATM   12  C7  UNK     1      22.550  -8.101  39.219  1.00  0.00     0.259 C 
HETATM   13  O1  UNK     1      22.083  -8.062  40.359  1.00  0.00    -0.267 OA
HETATM   14  N1  UNK     1      21.835  -8.472  38.073  1.00  0.00    -0.348 N 
HETATM   15  C5  UNK     1      22.428  -8.505  36.729  1.00  0.00     0.126 C 
HETATM   16  C6  UNK     1      20.426  -8.839  38.230  1.00  0.00     0.126 C 
HETATM   17  C3  UNK     1      21.680  -9.291  35.653  1.00  0.00     0.020 C 
HETATM   18  C1  UNK     1      21.452 -10.757  36.018  1.00  0.00     0.002 C 
HETATM   19  C2  UNK     1      20.198 -10.983  36.857  1.00  0.00     0.002 C 
HETATM   20  C4  UNK     1      20.228 -10.352  38.246  1.00  0.00     0.020 C 
ENDBRANCH   3  12
BRANCH  10  21
HETATM   21  O4  UNK     1      29.539 -10.106  38.908  1.00  0.00    -0.356 OA
HETATM   22  C17 UNK     1      30.776  -9.861  38.241  1.00  0.00     0.210 C 
ENDBRANCH  10  21
TORSDOF 2
ENDMDL
MODEL 4
REMARK VINA RESULT:      -7.6     16.656     19.400
REMARK  2 active torsions:
REMARK  status: ('A' for Active; 'I' for Inactive)
REMARK    1  A    between atoms: C15_20  and  O4_4 
REMARK       I    between atoms: C7_12  and  N1_5 
REMARK    2  A    between atoms: C7_12  and  C8_13 
ROOT
HETATM    1  O2  UNK     1      17.980   2.189  32.486  1.00  0.00    -0.274 OA
HETATM    2  O3  UNK     1      18.261   3.943  31.049  1.00  0.00    -0.259 OA
HETATM    3  C8  UNK     1      18.594   4.392  33.351  1.00  0.00     0.108 A 
HETATM    4  C9  UNK     1      18.604   3.926  34.606  1.00  0.00     0.037 A 
HETATM    5  C10 UNK     1      18.293   2.530  34.872  1.00  0.00     0.002 A 
HETATM    6  C11 UNK     1      18.271   3.520  32.200  1.00  0.00     0.304 A 
HETATM    7  C12 UNK     1      17.987   1.693  33.804  1.00  0.00     0.089 A 
HETATM    8  C13 UNK     1      18.289   2.001  36.165  1.00  0.00     0.051 A 
HETATM    9  C14 UNK     1      17.681   0.346  33.991  1.00  0.00     0.041 A 
HETATM   10  C15 UNK     1      17.983   0.652  36.368  1.00  0.00     0.069 A 
HETATM   11  C16 UNK     1      17.680  -0.173  35.284  1.00  0.00     0.039 A 
ENDROOT
BRANCH   3  12
HETATM   12  C7  UNK     1      18.923   5.824  33.183  1.00  0.00     0.259 C 
HETATM   13  O1  UNK     1      20.111   6.148  33.238  1.00  0.00    -0.267 OA
HETATM   14  N1  UNK     1      17.861   6.709  32.964  1.00  0.00    -0.348 N 
HETATM   15  C5  UNK     1      16.456   6.283  32.904  1.00  0.00     0.126 C 
HETATM   16  C6  UNK     1      18.174   8.129  32.780  1.00  0.00     0.126 C 
HETATM   17  C3  UNK     1      15.389   7.366  33.058  1.00  0.00     0.020 C 
HETATM   18  C1  UNK     1      15.505   8.155  34.361  1.00  0.00     0.002 C 
HETATM   19  C2  UNK     1      16.480   9.325  34.274  1.00  0.00     0.002 C 
HETATM   20  C4  UNK     1      17.939   8.934  34.054  1.00  0.00     0.020 C 
ENDBRANCH   3  12
BRANCH  10  21
HETATM   21  O4  UNK     1      17.980   0.141  37.631  1.00  0.00    -0.356 OA
HETATM   22  C17 UNK     1      18.051  -1.278  37.756  1.00  0.00     0.210 C 
ENDBRANCH  10  21
TORSDOF 2
ENDMDL
MODEL 5
REMARK VINA RESULT:      -7.5     12.510     15.020
REMARK  2 active torsions:
REMARK  status: ('A' for Active; 'I' for Inactive)
REMARK    1  A    between atoms: C15_20  and  O4_4 
REMARK       I    between atoms: C7_12  and  N1_5 
REMARK    2  A    between atoms: C7_12  and  C8_13 
ROOT
HETATM    1  O2  UNK     1      12.339   5.758   7.058  1.00  0.00    -0.274 OA
HETATM    2  O3  UNK     1      14.577   5.696   7.512  1.00  0.00    -0.259 OA
HETATM    3  C8  UNK     1      13.222   6.924   9.018  1.00  0.00     0.108 A 
HETATM    4  C9  UNK     1      11.997   7.347   9.351  1.00  0.00     0.037 A 
HETATM    5  C10 UNK     1      10.849   6.989   8.532  1.00  0.00     0.002 A 
HETATM    6  C11 UNK     1      13.456   6.086   7.821  1.00  0.00     0.304 A 
HETATM    7  C12 UNK     1      11.047   6.202   7.403  1.00  0.00     0.089 A 
HETATM    8  C13 UNK     1       9.553   7.411   8.841  1.00  0.00     0.051 A 
HETATM    9  C14 UNK     1       9.991   5.824   6.577  1.00  0.00     0.041 A 
HETATM   10  C15 UNK     1       8.483   7.039   8.022  1.00  0.00     0.069 A 
HETATM   11  C16 UNK     1       8.701   6.248   6.892  1.00  0.00     0.039 A 
ENDROOT
BRANCH   3  12
HETATM   12  C7  UNK     1      14.323   7.340   9.913  1.00  0.00     0.259 C 
HETATM   13  O1  UNK     1      14.562   6.632  10.893  1.00  0.00    -0.267 OA
HETATM   14  N1  UNK     1      15.023   8.505   9.576  1.00  0.00    -0.348 N 
HETATM   15  C5  UNK     1      14.708   9.322   8.397  1.00  0.00     0.126 C 
HETATM   16  C6  UNK     1      16.127   8.920  10.446  1.00  0.00     0.126 C 
HETATM   17  C3  UNK     1      15.264  10.745   8.362  1.00  0.00     0.020 C 
HETATM   18  C1  UNK     1      14.834  11.596   9.555  1.00  0.00     0.002 C 
HETATM   19  C2  UNK     1      15.734  11.424  10.776  1.00  0.00     0.002 C 
HETATM   20  C4  UNK     1      15.711  10.034  11.403  1.00  0.00     0.020 C 
ENDBRANCH   3  12
BRANCH  10  21
HETATM   21  O4  UNK     1       7.221   7.453   8.326  1.00  0.00    -0.356 OA
HETATM   22  C17 UNK     1       6.901   7.591   9.709  1.00  0.00     0.210 C 
ENDBRANCH  10  21
TORSDOF 2
ENDMDL
MODEL 6
REMARK VINA RESULT:      -7.5     14.348     16.069
REMARK  2 active torsions:
REMARK  status: ('A' for Active; 'I' for Inactive)
REMARK    1  A    between atoms: C15_20  and  O4_4 
REMARK       I    between atoms: C7_12  and  N1_5 
REMARK    2  A    between atoms: C7_12  and  C8_13 
ROOT
HETATM    1  O2  UNK     1       7.738   5.108  11.176  1.00  0.00    -0.274 OA
HETATM    2  O3  UNK     1       9.367   4.185   9.867  1.00  0.00    -0.259 OA
HETATM    3  C8  UNK     1       8.280   6.108   9.011  1.00  0.00     0.108 A 
HETATM    4  C9  UNK     1       7.355   7.059   9.189  1.00  0.00     0.037 A 
HETATM    5  C10 UNK     1       6.552   7.083  10.401  1.00  0.00     0.002 A 
HETATM    6  C11 UNK     1       8.521   5.058  10.026  1.00  0.00     0.304 A 
HETATM    7  C12 UNK     1       6.762   6.106  11.368  1.00  0.00     0.089 A 
HETATM    8  C13 UNK     1       5.574   8.056  10.628  1.00  0.00     0.051 A 
HETATM    9  C14 UNK     1       6.028   6.074  12.552  1.00  0.00     0.041 A 
HETATM   10  C15 UNK     1       4.829   8.036  11.810  1.00  0.00     0.069 A 
HETATM   11  C16 UNK     1       5.055   7.047  12.770  1.00  0.00     0.039 A 
ENDROOT
BRANCH   3  12
HETATM   12  C7  UNK     1       9.044   6.168   7.747  1.00  0.00     0.259 C 
HETATM   13  O1  UNK     1       8.639   5.491   6.800  1.00  0.00    -0.267 OA
HETATM   14  N1  UNK     1      10.171   6.998   7.713  1.00  0.00    -0.348 N 
HETATM   15  C5  UNK     1      10.623   7.791   8.865  1.00  0.00     0.126 C 
HETATM   16  C6  UNK     1      10.930   7.079   6.462  1.00  0.00     0.126 C 
HETATM   17  C3  UNK     1      12.054   8.327   8.828  1.00  0.00     0.020 C 
HETATM   18  C1  UNK     1      13.109   7.236   8.665  1.00  0.00     0.002 C 
HETATM   19  C2  UNK     1      13.364   6.854   7.209  1.00  0.00     0.002 C 
HETATM   20  C4  UNK     1      12.181   6.206   6.496  1.00  0.00     0.020 C 
ENDBRANCH   3  12
BRANCH  10  21
HETATM   21  O4  UNK     1       3.876   8.985  12.026  1.00  0.00    -0.356 OA
HETATM   22  C17 UNK     1       4.016  10.216  11.319  1.00  0.00     0.210 C 
ENDBRANCH  10  21
TORSDOF 2
ENDMDL
MODEL 7
REMARK VINA RESULT:      -7.5     15.119     18.912
REMARK  2 active torsions:
REMARK  status: ('A' for Active; 'I' for Inactive)
REMARK    1  A    between atoms: C15_20  and  O4_4 
REMARK       I    between atoms: C7_12  and  N1_5 
REMARK    2  A    between atoms: C7_12  and  C8_13 
ROOT
HETATM    1  O2  UNK     1      18.379  -1.143  35.038  1.00  0.00    -0.274 OA
HETATM    2  O3  UNK     1      18.137  -1.794  37.215  1.00  0.00    -0.259 OA
HETATM    3  C8  UNK     1      19.817  -2.894  35.959  1.00  0.00     0.108 A 
HETATM    4  C9  UNK     1      20.451  -3.026  34.787  1.00  0.00     0.037 A 
HETATM    5  C10 UNK     1      20.069  -2.203  33.650  1.00  0.00     0.002 A 
HETATM    6  C11 UNK     1      18.720  -1.919  36.143  1.00  0.00     0.304 A 
HETATM    7  C12 UNK     1      19.041  -1.279  33.802  1.00  0.00     0.089 A 
HETATM    8  C13 UNK     1      20.702  -2.309  32.408  1.00  0.00     0.051 A 
HETATM    9  C14 UNK     1      18.628  -0.460  32.753  1.00  0.00     0.041 A 
HETATM   10  C15 UNK     1      20.298  -1.494  31.346  1.00  0.00     0.069 A 
HETATM   11  C16 UNK     1      19.264  -0.572  31.518  1.00  0.00     0.039 A 
ENDROOT
BRANCH   3  12
HETATM   12  C7  UNK     1      20.277  -3.775  37.053  1.00  0.00     0.259 C 
HETATM   13  O1  UNK     1      20.888  -3.255  37.988  1.00  0.00    -0.267 OA
HETATM   14  N1  UNK     1      19.976  -5.139  36.954  1.00  0.00    -0.348 N 
HETATM   15  C5  UNK     1      19.244  -5.722  35.821  1.00  0.00     0.126 C 
HETATM   16  C6  UNK     1      20.413  -6.021  38.039  1.00  0.00     0.126 C 
HETATM   17  C3  UNK     1      19.329  -7.237  35.638  1.00  0.00     0.020 C 
HETATM   18  C1  UNK     1      20.758  -7.753  35.488  1.00  0.00     0.002 C 
HETATM   19  C2  UNK     1      21.449  -8.017  36.823  1.00  0.00     0.002 C 
HETATM   20  C4  UNK     1      21.688  -6.778  37.681  1.00  0.00     0.020 C 
ENDBRANCH   3  12
BRANCH  10  21
HETATM   21  O4  UNK     1      20.917  -1.601  30.137  1.00  0.00    -0.356 OA
HETATM   22  C17 UNK     1      20.562  -0.644  29.141  1.00  0.00     0.210 C 
ENDBRANCH  10  21
TORSDOF 2
ENDMDL
MODEL 8
REMARK VINA RESULT:      -7.3     12.515     14.683
REMARK  2 active torsions:
REMARK  status: ('A' for Active; 'I' for Inactive)
REMARK    1  A    between atoms: C15_20  and  O4_4 
REMARK       I    between atoms: C7_12  and  N1_5 
REMARK    2  A    between atoms: C7_12  and  C8_13 
ROOT
HETATM    1  O2  UNK     1      11.516   6.791   6.743  1.00  0.00    -0.274 OA
HETATM    2  O3  UNK     1      13.752   7.265   6.767  1.00  0.00    -0.259 OA
HETATM    3  C8  UNK     1      12.472   8.089   8.582  1.00  0.00     0.108 A 
HETATM    4  C9  UNK     1      11.272   8.193   9.167  1.00  0.00     0.037 A 
HETATM    5  C10 UNK     1      10.102   7.587   8.553  1.00  0.00     0.002 A 
HETATM    6  C11 UNK     1      12.654   7.363   7.306  1.00  0.00     0.304 A 
HETATM    7  C12 UNK     1      10.251   6.899   7.353  1.00  0.00     0.089 A 
HETATM    8  C13 UNK     1       8.831   7.673   9.127  1.00  0.00     0.051 A 
HETATM    9  C14 UNK     1       9.171   6.295   6.714  1.00  0.00     0.041 A 
HETATM   10  C15 UNK     1       7.737   7.072   8.496  1.00  0.00     0.069 A 
HETATM   11  C16 UNK     1       7.906   6.385   7.293  1.00  0.00     0.039 A 
ENDROOT
BRANCH   3  12
HETATM   12  C7  UNK     1      13.600   8.739   9.284  1.00  0.00     0.259 C 
HETATM   13  O1  UNK     1      13.667   9.969   9.244  1.00  0.00    -0.267 OA
HETATM   14  N1  UNK     1      14.508   7.909   9.953  1.00  0.00    -0.348 N 
HETATM   15  C5  UNK     1      14.394   6.444   9.977  1.00  0.00     0.126 C 
HETATM   16  C6  UNK     1      15.622   8.540  10.665  1.00  0.00     0.126 C 
HETATM   17  C3  UNK     1      15.634   5.652  10.388  1.00  0.00     0.020 C 
HETATM   18  C1  UNK     1      16.855   5.935   9.515  1.00  0.00     0.002 C 
HETATM   19  C2  UNK     1      17.654   7.153   9.970  1.00  0.00     0.002 C 
HETATM   20  C4  UNK     1      16.918   8.485   9.861  1.00  0.00     0.020 C 
ENDBRANCH   3  12
BRANCH  10  21
HETATM   21  O4  UNK     1       6.499   7.159   9.059  1.00  0.00    -0.356 OA
HETATM   22  C17 UNK     1       6.404   7.829  10.314  1.00  0.00     0.210 C 
ENDBRANCH  10  21
TORSDOF 2
ENDMDL
MODEL 9
REMARK VINA RESULT:      -7.2     12.239     13.994
REMARK  2 active torsions:
REMARK  status: ('A' for Active; 'I' for Inactive)
REMARK    1  A    between atoms: C15_20  and  O4_4 
REMARK       I    between atoms: C7_12  and  N1_5 
REMARK    2  A    between atoms: C7_12  and  C8_13 
ROOT
HETATM    1  O2  UNK     1      14.717  10.274  11.575  1.00  0.00    -0.274 OA
HETATM    2  O3  UNK     1      13.001   8.851  12.077  1.00  0.00    -0.259 OA
HETATM    3  C8  UNK     1      14.548   8.113  10.442  1.00  0.00     0.108 A 
HETATM    4  C9  UNK     1      15.654   8.370   9.732  1.00  0.00     0.037 A 
HETATM    5  C10 UNK     1      16.365   9.626   9.910  1.00  0.00     0.002 A 
HETATM    6  C11 UNK     1      14.013   9.082  11.424  1.00  0.00     0.304 A 
HETATM    7  C12 UNK     1      15.879  10.550  10.829  1.00  0.00     0.089 A 
HETATM    8  C13 UNK     1      17.521   9.936   9.189  1.00  0.00     0.051 A 
HETATM    9  C14 UNK     1      16.514  11.771  11.049  1.00  0.00     0.041 A 
HETATM   10  C15 UNK     1      18.169  11.158   9.398  1.00  0.00     0.069 A 
HETATM   11  C16 UNK     1      17.666  12.073  10.325  1.00  0.00     0.039 A 
ENDROOT
BRANCH   3  12
HETATM   12  C7  UNK     1      13.897   6.811  10.189  1.00  0.00     0.259 C 
HETATM   13  O1  UNK     1      14.448   5.800  10.628  1.00  0.00    -0.267 OA
HETATM   14  N1  UNK     1      12.692   6.819   9.475  1.00  0.00    -0.348 N 
HETATM   15  C5  UNK     1      12.065   8.047   8.968  1.00  0.00     0.126 C 
HETATM   16  C6  UNK     1      12.028   5.536   9.231  1.00  0.00     0.126 C 
HETATM   17  C3  UNK     1      10.994   7.892   7.888  1.00  0.00     0.020 C 
HETATM   18  C1  UNK     1      11.488   7.159   6.642  1.00  0.00     0.002 C 
HETATM   19  C2  UNK     1      11.393   5.640   6.757  1.00  0.00     0.002 C 
HETATM   20  C4  UNK     1      12.292   5.017   7.821  1.00  0.00     0.020 C 
ENDBRANCH   3  12
BRANCH  10  21
HETATM   21  O4  UNK     1      19.295  11.457   8.692  1.00  0.00    -0.356 OA
HETATM   22  C17 UNK     1      19.131  11.753   7.306  1.00  0.00     0.210 C 
ENDBRANCH  10  21
TORSDOF 2
ENDMDL
MODEL 10
REMARK VINA RESULT:      -7.2     14.922     17.360
REMARK  2 active torsions:
REMARK  status: ('A' for Active; 'I' for Inactive)
REMARK    1  A    between atoms: C15_20  and  O4_4 
REMARK       I    between atoms: C7_12  and  N1_5 
REMARK    2  A    between atoms: C7_12  and  C8_13 
ROOT
HETATM    1  O2  UNK     1      19.296   2.569  30.220  1.00  0.00    -0.274 OA
HETATM    2  O3  UNK     1      19.553   0.315  30.492  1.00  0.00    -0.259 OA
HETATM    3  C8  UNK     1      18.526   1.490  32.275  1.00  0.00     0.108 A 
HETATM    4  C9  UNK     1      18.101   2.662  32.763  1.00  0.00     0.037 A 
HETATM    5  C10 UNK     1      18.257   3.880  31.984  1.00  0.00     0.002 A 
HETATM    6  C11 UNK     1      19.162   1.387  30.943  1.00  0.00     0.304 A 
HETATM    7  C12 UNK     1      18.852   3.806  30.729  1.00  0.00     0.089 A 
HETATM    8  C13 UNK     1      17.830   5.125  32.454  1.00  0.00     0.051 A 
HETATM    9  C14 UNK     1      19.030   4.935  29.933  1.00  0.00     0.041 A 
HETATM   10  C15 UNK     1      18.003   6.267  31.667  1.00  0.00     0.069 A 
HETATM   11  C16 UNK     1      18.602   6.172  30.409  1.00  0.00     0.039 A 
ENDROOT
BRANCH   3  12
HETATM   12  C7  UNK     1      18.323   0.309  33.142  1.00  0.00     0.259 C 
HETATM   13  O1  UNK     1      18.047  -0.761  32.596  1.00  0.00    -0.267 OA
HETATM   14  N1  UNK     1      18.468   0.489  34.522  1.00  0.00    -0.348 N 
HETATM   15  C5  UNK     1      18.798   1.783  35.136  1.00  0.00     0.126 C 
HETATM   16  C6  UNK     1      18.284  -0.676  35.392  1.00  0.00     0.126 C 
HETATM   17  C3  UNK     1      18.538   1.933  36.635  1.00  0.00     0.020 C 
HETATM   18  C1  UNK     1      17.087   1.671  37.031  1.00  0.00     0.002 C 
HETATM   19  C2  UNK     1      16.783   0.194  37.269  1.00  0.00     0.002 C 
HETATM   20  C4  UNK     1      16.901  -0.696  36.035  1.00  0.00     0.020 C 
ENDBRANCH   3  12
BRANCH  10  21
HETATM   21  O4  UNK     1      17.586   7.479  32.130  1.00  0.00    -0.356 OA
HETATM   22  C17 UNK     1      16.271   7.893  31.765  1.00  0.00     0.210 C 
ENDBRANCH  10  21
TORSDOF 2
ENDMDL
