MODEL 1
REMARK VINA RESULT:      -8.0      0.000      0.000
REMARK  5 active torsions:
REMARK  status: ('A' for Active; 'I' for Inactive)
REMARK    1  A    between atoms: C9_15  and  O2_2 
REMARK    2  A    between atoms: C10_16  and  O3_3 
REMARK    3  A    between atoms: C13_19  and  O5_5 
REMARK    4  A    between atoms: C14_20  and  O6_6 
REMARK    5  A    between atoms: C2_8  and  C4_10 
ROOT
HETATM    1  O1  UNK     1      18.670   8.881  33.825  1.00  0.00    -0.321 OA
HETATM    2  O4  UNK     1      15.581   7.145  31.802  1.00  0.00    -0.286 OA
HETATM    3  C1  UNK     1      16.361   8.960  33.084  1.00  0.00     0.052 A 
HETATM    4  C2  UNK     1      17.867   7.041  32.459  1.00  0.00     0.048 A 
HETATM    5  C3  UNK     1      17.448   9.499  33.769  1.00  0.00     0.092 A 
HETATM    6  C5  UNK     1      16.519   7.668  32.391  1.00  0.00     0.198 A 
HETATM    7  C6  UNK     1      15.137   9.634  33.062  1.00  0.00     0.058 A 
HETATM    8  C7  UNK     1      17.320  10.719  34.436  1.00  0.00     0.077 A 
HETATM    9  C8  UNK     1      18.812   7.689  33.156  1.00  0.00     0.159 A 
HETATM   10  C9  UNK     1      15.011  10.854  33.730  1.00  0.00     0.102 A 
HETATM   11  C10 UNK     1      16.099  11.395  34.415  1.00  0.00     0.104 A 
ENDROOT
BRANCH   4  12
HETATM   12  C4  UNK     1      18.171   5.772  31.777  1.00  0.00    -0.017 A 
HETATM   13  C11 UNK     1      17.854   4.556  32.385  1.00  0.00     0.052 A 
HETATM   14  C13 UNK     1      18.143   3.353  31.739  1.00  0.00     0.102 A 
HETATM   15  C14 UNK     1      18.750   3.365  30.484  1.00  0.00     0.101 A 
HETATM   16  C15 UNK     1      19.068   4.578  29.874  1.00  0.00     0.040 A 
HETATM   17  C12 UNK     1      18.778   5.780  30.519  1.00  0.00     0.015 A 
BRANCH  14  18
HETATM   18  O5  UNK     1      17.827   2.175  32.345  1.00  0.00    -0.353 OA
HETATM   19  C18 UNK     1      18.120   2.063  33.737  1.00  0.00     0.210 C 
ENDBRANCH  14  18
BRANCH  15  20
HETATM   20  O6  UNK     1      19.036   2.198  29.842  1.00  0.00    -0.353 OA
HETATM   21  C19 UNK     1      18.155   1.805  28.791  1.00  0.00     0.210 C 
ENDBRANCH  15  20
ENDBRANCH   4  12
BRANCH  10  22
HETATM   22  O2  UNK     1      13.816  11.508  33.705  1.00  0.00    -0.353 OA
HETATM   23  C16 UNK     1      13.463  12.167  32.491  1.00  0.00     0.210 C 
ENDBRANCH  10  22
BRANCH  11  24
HETATM   24  O3  UNK     1      15.983  12.585  35.068  1.00  0.00    -0.353 OA
HETATM   25  C17 UNK     1      17.191  13.212  35.494  1.00  0.00     0.210 C 
ENDBRANCH  11  24
TORSDOF 5
ENDMDL
MODEL 2
REMARK VINA RESULT:      -7.8      1.742      8.693
REMARK  5 active torsions:
REMARK  status: ('A' for Active; 'I' for Inactive)
REMARK    1  A    between atoms: C9_15  and  O2_2 
REMARK    2  A    between atoms: C10_16  and  O3_3 
REMARK    3  A    between atoms: C13_19  and  O5_5 
REMARK    4  A    between atoms: C14_20  and  O6_6 
REMARK    5  A    between atoms: C2_8  and  C4_10 
ROOT
HETATM    1  O1  UNK     1      18.868   4.551  29.657  1.00  0.00    -0.321 OA
HETATM    2  O4  UNK     1      18.008   4.301  33.638  1.00  0.00    -0.286 OA
HETATM    3  C1  UNK     1      18.552   3.184  31.638  1.00  0.00     0.052 A 
HETATM    4  C2  UNK     1      18.357   5.693  31.739  1.00  0.00     0.048 A 
HETATM    5  C3  UNK     1      18.829   3.330  30.279  1.00  0.00     0.092 A 
HETATM    6  C5  UNK     1      18.284   4.387  32.448  1.00  0.00     0.198 A 
HETATM    7  C6  UNK     1      18.524   1.914  32.218  1.00  0.00     0.058 A 
HETATM    8  C7  UNK     1      19.081   2.205  29.492  1.00  0.00     0.077 A 
HETATM    9  C8  UNK     1      18.639   5.666  30.427  1.00  0.00     0.159 A 
HETATM   10  C9  UNK     1      18.777   0.790  31.430  1.00  0.00     0.102 A 
HETATM   11  C10 UNK     1      19.055   0.935  30.070  1.00  0.00     0.104 A 
ENDROOT
BRANCH   4  12
HETATM   12  C4  UNK     1      18.150   6.973  32.438  1.00  0.00    -0.017 A 
HETATM   13  C11 UNK     1      16.965   7.687  32.257  1.00  0.00     0.052 A 
HETATM   14  C13 UNK     1      16.769   8.899  32.919  1.00  0.00     0.102 A 
HETATM   15  C14 UNK     1      17.760   9.399  33.764  1.00  0.00     0.101 A 
HETATM   16  C15 UNK     1      18.945   8.688  33.947  1.00  0.00     0.040 A 
HETATM   17  C12 UNK     1      19.140   7.475  33.285  1.00  0.00     0.015 A 
BRANCH  14  18
HETATM   18  O5  UNK     1      15.607   9.584  32.732  1.00  0.00    -0.353 OA
HETATM   19  C18 UNK     1      14.469   9.147  33.474  1.00  0.00     0.210 C 
ENDBRANCH  14  18
BRANCH  15  20
HETATM   20  O6  UNK     1      17.580  10.581  34.417  1.00  0.00    -0.353 OA
HETATM   21  C19 UNK     1      18.368  11.688  33.981  1.00  0.00     0.210 C 
ENDBRANCH  15  20
ENDBRANCH   4  12
BRANCH  10  22
HETATM   22  O2  UNK     1      18.749  -0.447  32.000  1.00  0.00    -0.353 OA
HETATM   23  C16 UNK     1      18.484  -0.508  33.399  1.00  0.00     0.210 C 
ENDBRANCH  10  22
BRANCH  11  24
HETATM   24  O3  UNK     1      19.303  -0.157  29.295  1.00  0.00    -0.353 OA
HETATM   25  C17 UNK     1      20.669  -0.533  29.123  1.00  0.00     0.210 C 
ENDBRANCH  11  24
TORSDOF 5
ENDMDL
MODEL 3
REMARK VINA RESULT:      -7.7     14.004     18.759
REMARK  5 active torsions:
REMARK  status: ('A' for Active; 'I' for Inactive)
REMARK    1  A    between atoms: C9_15  and  O2_2 
REMARK    2  A    between atoms: C10_16  and  O3_3 
REMARK    3  A    between atoms: C13_19  and  O5_5 
REMARK    4  A    between atoms: C14_20  and  O6_6 
REMARK    5  A    between atoms: C2_8  and  C4_10 
ROOT
HETATM    1  O1  UNK     1      18.337  -1.225  18.028  1.00  0.00    -0.321 OA
HETATM    2  O4  UNK     1      19.610   1.057  14.894  1.00  0.00    -0.286 OA
HETATM    3  C1  UNK     1      19.137   0.910  17.196  1.00  0.00     0.052 A 
HETATM    4  C2  UNK     1      18.878  -1.073  15.665  1.00  0.00     0.048 A 
HETATM    5  C3  UNK     1      18.685   0.086  18.226  1.00  0.00     0.092 A 
HETATM    6  C5  UNK     1      19.246   0.360  15.832  1.00  0.00     0.198 A 
HETATM    7  C6  UNK     1      19.476   2.240  17.456  1.00  0.00     0.058 A 
HETATM    8  C7  UNK     1      18.570   0.587  19.524  1.00  0.00     0.077 A 
HETATM    9  C8  UNK     1      18.464  -1.733  16.757  1.00  0.00     0.159 A 
HETATM   10  C9  UNK     1      19.362   2.740  18.755  1.00  0.00     0.102 A 
HETATM   11  C10 UNK     1      18.910   1.915  19.786  1.00  0.00     0.104 A 
ENDROOT
BRANCH   4  12
HETATM   12  C4  UNK     1      18.979  -1.757  14.365  1.00  0.00    -0.017 A 
HETATM   13  C11 UNK     1      18.694  -3.120  14.267  1.00  0.00     0.052 A 
HETATM   14  C13 UNK     1      18.789  -3.768  13.035  1.00  0.00     0.102 A 
HETATM   15  C14 UNK     1      19.171  -3.054  11.899  1.00  0.00     0.101 A 
HETATM   16  C15 UNK     1      19.457  -1.692  11.995  1.00  0.00     0.040 A 
HETATM   17  C12 UNK     1      19.360  -1.044  13.227  1.00  0.00     0.015 A 
BRANCH  14  18
HETATM   18  O5  UNK     1      18.508  -5.098  12.954  1.00  0.00    -0.353 OA
HETATM   19  C18 UNK     1      17.957  -5.716  14.116  1.00  0.00     0.210 C 
ENDBRANCH  14  18
BRANCH  15  20
HETATM   20  O6  UNK     1      19.267  -3.674  10.691  1.00  0.00    -0.353 OA
HETATM   21  C19 UNK     1      20.568  -3.765  10.111  1.00  0.00     0.210 C 
ENDBRANCH  15  20
ENDBRANCH   4  12
BRANCH  10  22
HETATM   22  O2  UNK     1      19.695   4.037  19.004  1.00  0.00    -0.353 OA
HETATM   23  C16 UNK     1      20.905   4.518  18.424  1.00  0.00     0.210 C 
ENDBRANCH  10  22
BRANCH  11  24
HETATM   24  O3  UNK     1      18.796   2.396  21.056  1.00  0.00    -0.353 OA
HETATM   25  C17 UNK     1      19.849   2.080  21.965  1.00  0.00     0.210 C 
ENDBRANCH  11  24
TORSDOF 5
ENDMDL
MODEL 4
REMARK VINA RESULT:      -7.6      7.332     11.941
REMARK  5 active torsions:
REMARK  status: ('A' for Active; 'I' for Inactive)
REMARK    1  A    between atoms: C9_15  and  O2_2 
REMARK    2  A    between atoms: C10_16  and  O3_3 
REMARK    3  A    between atoms: C13_19  and  O5_5 
REMARK    4  A    between atoms: C14_20  and  O6_6 
REMARK    5  A    between atoms: C2_8  and  C4_10 
ROOT
HETATM    1  O1  UNK     1      18.542  -1.405  36.780  1.00  0.00    -0.321 OA
HETATM    2  O4  UNK     1      20.534  -3.686  34.045  1.00  0.00    -0.286 OA
HETATM    3  C1  UNK     1      19.331  -1.715  34.506  1.00  0.00     0.052 A 
HETATM    4  C2  UNK     1      19.828  -3.409  36.302  1.00  0.00     0.048 A 
HETATM    5  C3  UNK     1      18.654  -0.983  35.480  1.00  0.00     0.092 A 
HETATM    6  C5  UNK     1      19.955  -2.999  34.877  1.00  0.00     0.198 A 
HETATM    7  C6  UNK     1      19.412  -1.236  33.195  1.00  0.00     0.058 A 
HETATM    8  C7  UNK     1      18.053   0.233  35.150  1.00  0.00     0.077 A 
HETATM    9  C8  UNK     1      19.146  -2.592  37.118  1.00  0.00     0.159 A 
HETATM   10  C9  UNK     1      18.811  -0.020  32.867  1.00  0.00     0.102 A 
HETATM   11  C10 UNK     1      18.132   0.713  33.843  1.00  0.00     0.104 A 
ENDROOT
BRANCH   4  12
HETATM   12  C4  UNK     1      20.438  -4.648  36.813  1.00  0.00    -0.017 A 
HETATM   13  C11 UNK     1      20.050  -5.885  36.296  1.00  0.00     0.052 A 
HETATM   14  C13 UNK     1      20.628  -7.059  36.781  1.00  0.00     0.102 A 
HETATM   15  C14 UNK     1      21.594  -6.997  37.784  1.00  0.00     0.101 A 
HETATM   16  C15 UNK     1      21.983  -5.762  38.303  1.00  0.00     0.040 A 
HETATM   17  C12 UNK     1      21.406  -4.589  37.818  1.00  0.00     0.015 A 
BRANCH  14  18
HETATM   18  O5  UNK     1      20.240  -8.259  36.265  1.00  0.00    -0.353 OA
HETATM   19  C18 UNK     1      19.026  -8.817  36.766  1.00  0.00     0.210 C 
ENDBRANCH  14  18
BRANCH  15  20
HETATM   20  O6  UNK     1      22.166  -8.136  38.265  1.00  0.00    -0.353 OA
HETATM   21  C19 UNK     1      21.873  -8.486  39.617  1.00  0.00     0.210 C 
ENDBRANCH  15  20
ENDBRANCH   4  12
BRANCH  10  22
HETATM   22  O2  UNK     1      18.892   0.443  31.589  1.00  0.00    -0.353 OA
HETATM   23  C16 UNK     1      20.059   0.094  30.847  1.00  0.00     0.210 C 
ENDBRANCH  10  22
BRANCH  11  24
HETATM   24  O3  UNK     1      17.544   1.901  33.529  1.00  0.00    -0.353 OA
HETATM   25  C17 UNK     1      18.228   3.088  33.927  1.00  0.00     0.210 C 
ENDBRANCH  11  24
TORSDOF 5
ENDMDL
MODEL 5
REMARK VINA RESULT:      -7.5      1.902      8.770
REMARK  5 active torsions:
REMARK  status: ('A' for Active; 'I' for Inactive)
REMARK    1  A    between atoms: C9_15  and  O2_2 
REMARK    2  A    between atoms: C10_16  and  O3_3 
REMARK    3  A    between atoms: C13_19  and  O5_5 
REMARK    4  A    between atoms: C14_20  and  O6_6 
REMARK    5  A    between atoms: C2_8  and  C4_10 
ROOT
HETATM    1  O1  UNK     1      18.919   4.239  29.628  1.00  0.00    -0.321 OA
HETATM    2  O4  UNK     1      17.936   4.030  33.583  1.00  0.00    -0.286 OA
HETATM    3  C1  UNK     1      18.555   2.894  31.615  1.00  0.00     0.052 A 
HETATM    4  C2  UNK     1      18.329   5.401  31.677  1.00  0.00     0.048 A 
HETATM    5  C3  UNK     1      18.874   3.026  30.265  1.00  0.00     0.092 A 
HETATM    6  C5  UNK     1      18.248   4.104  32.401  1.00  0.00     0.198 A 
HETATM    7  C6  UNK     1      18.523   1.631  32.211  1.00  0.00     0.058 A 
HETATM    8  C7  UNK     1      19.164   1.894  29.501  1.00  0.00     0.077 A 
HETATM    9  C8  UNK     1      18.653   5.361  30.376  1.00  0.00     0.159 A 
HETATM   10  C9  UNK     1      18.814   0.500  31.446  1.00  0.00     0.102 A 
HETATM   11  C10 UNK     1      19.133   0.631  30.094  1.00  0.00     0.104 A 
ENDROOT
BRANCH   4  12
HETATM   12  C4  UNK     1      18.086   6.687  32.353  1.00  0.00    -0.017 A 
HETATM   13  C11 UNK     1      18.994   7.164  33.300  1.00  0.00     0.052 A 
HETATM   14  C13 UNK     1      18.764   8.382  33.940  1.00  0.00     0.102 A 
HETATM   15  C14 UNK     1      17.625   9.125  33.634  1.00  0.00     0.101 A 
HETATM   16  C15 UNK     1      16.716   8.652  32.688  1.00  0.00     0.040 A 
HETATM   17  C12 UNK     1      16.947   7.434  32.048  1.00  0.00     0.015 A 
BRANCH  14  18
HETATM   18  O5  UNK     1      19.659   8.834  34.862  1.00  0.00    -0.353 OA
HETATM   19  C18 UNK     1      20.721   9.658  34.385  1.00  0.00     0.210 C 
ENDBRANCH  14  18
BRANCH  15  20
HETATM   20  O6  UNK     1      17.389  10.317  34.251  1.00  0.00    -0.353 OA
HETATM   21  C19 UNK     1      16.041  10.595  34.627  1.00  0.00     0.210 C 
ENDBRANCH  15  20
ENDBRANCH   4  12
BRANCH  10  22
HETATM   22  O2  UNK     1      18.781  -0.730  32.032  1.00  0.00    -0.353 OA
HETATM   23  C16 UNK     1      18.465  -0.777  33.421  1.00  0.00     0.210 C 
ENDBRANCH  10  22
BRANCH  11  24
HETATM   24  O3  UNK     1      19.418  -0.468  29.342  1.00  0.00    -0.353 OA
HETATM   25  C17 UNK     1      20.794  -0.724  29.062  1.00  0.00     0.210 C 
ENDBRANCH  11  24
TORSDOF 5
ENDMDL
MODEL 6
REMARK VINA RESULT:      -7.5      2.194      8.949
REMARK  5 active torsions:
REMARK  status: ('A' for Active; 'I' for Inactive)
REMARK    1  A    between atoms: C9_15  and  O2_2 
REMARK    2  A    between atoms: C10_16  and  O3_3 
REMARK    3  A    between atoms: C13_19  and  O5_5 
REMARK    4  A    between atoms: C14_20  and  O6_6 
REMARK    5  A    between atoms: C2_8  and  C4_10 
ROOT
HETATM    1  O1  UNK     1      18.288   2.323  33.934  1.00  0.00    -0.321 OA
HETATM    2  O4  UNK     1      18.604   4.465  30.475  1.00  0.00    -0.286 OA
HETATM    3  C1  UNK     1      18.712   2.369  31.545  1.00  0.00     0.052 A 
HETATM    4  C2  UNK     1      18.130   4.469  32.808  1.00  0.00     0.048 A 
HETATM    5  C3  UNK     1      18.601   1.692  32.758  1.00  0.00     0.092 A 
HETATM    6  C5  UNK     1      18.488   3.827  31.514  1.00  0.00     0.198 A 
HETATM    7  C6  UNK     1      19.036   1.674  30.377  1.00  0.00     0.058 A 
HETATM    8  C7  UNK     1      18.813   0.313  32.811  1.00  0.00     0.077 A 
HETATM    9  C8  UNK     1      18.060   3.677  33.889  1.00  0.00     0.159 A 
HETATM   10  C9  UNK     1      19.246   0.295  30.432  1.00  0.00     0.102 A 
HETATM   11  C10 UNK     1      19.135  -0.384  31.646  1.00  0.00     0.104 A 
ENDROOT
BRANCH   4  12
HETATM   12  C4  UNK     1      17.841   5.909  32.910  1.00  0.00    -0.017 A 
HETATM   13  C11 UNK     1      16.598   6.405  32.513  1.00  0.00     0.052 A 
HETATM   14  C13 UNK     1      16.325   7.770  32.609  1.00  0.00     0.102 A 
HETATM   15  C14 UNK     1      17.295   8.641  33.103  1.00  0.00     0.101 A 
HETATM   16  C15 UNK     1      18.538   8.149  33.500  1.00  0.00     0.040 A 
HETATM   17  C12 UNK     1      18.811   6.784  33.405  1.00  0.00     0.015 A 
BRANCH  14  18
HETATM   18  O5  UNK     1      15.107   8.238  32.218  1.00  0.00    -0.353 OA
HETATM   19  C18 UNK     1      13.966   7.467  32.589  1.00  0.00     0.210 C 
ENDBRANCH  14  18
BRANCH  15  20
HETATM   20  O6  UNK     1      17.040   9.976  33.203  1.00  0.00    -0.353 OA
HETATM   21  C19 UNK     1      16.498  10.440  34.438  1.00  0.00     0.210 C 
ENDBRANCH  15  20
ENDBRANCH   4  12
BRANCH  10  22
HETATM   22  O2  UNK     1      19.561  -0.378  29.291  1.00  0.00    -0.353 OA
HETATM   23  C16 UNK     1      20.932  -0.715  29.095  1.00  0.00     0.210 C 
ENDBRANCH  10  22
BRANCH  11  24
HETATM   24  O3  UNK     1      19.339  -1.729  31.706  1.00  0.00    -0.353 OA
HETATM   25  C17 UNK     1      20.157  -2.214  32.770  1.00  0.00     0.210 C 
ENDBRANCH  11  24
TORSDOF 5
ENDMDL
MODEL 7
REMARK VINA RESULT:      -7.3     16.458     18.962
REMARK  5 active torsions:
REMARK  status: ('A' for Active; 'I' for Inactive)
REMARK    1  A    between atoms: C9_15  and  O2_2 
REMARK    2  A    between atoms: C10_16  and  O3_3 
REMARK    3  A    between atoms: C13_19  and  O5_5 
REMARK    4  A    between atoms: C14_20  and  O6_6 
REMARK    5  A    between atoms: C2_8  and  C4_10 
ROOT
HETATM    1  O1  UNK     1      27.395  -9.003  38.534  1.00  0.00    -0.321 OA
HETATM    2  O4  UNK     1      25.274  -5.523  38.739  1.00  0.00    -0.286 OA
HETATM    3  C1  UNK     1      27.376  -6.579  38.637  1.00  0.00     0.052 A 
HETATM    4  C2  UNK     1      25.232  -7.899  38.588  1.00  0.00     0.048 A 
HETATM    5  C3  UNK     1      28.048  -7.799  38.577  1.00  0.00     0.092 A 
HETATM    6  C5  UNK     1      25.902  -6.571  38.658  1.00  0.00     0.198 A 
HETATM    7  C6  UNK     1      28.095  -5.381  38.681  1.00  0.00     0.058 A 
HETATM    8  C7  UNK     1      29.443  -7.829  38.560  1.00  0.00     0.077 A 
HETATM    9  C8  UNK     1      26.021  -8.983  38.531  1.00  0.00     0.159 A 
HETATM   10  C9  UNK     1      29.491  -5.413  38.663  1.00  0.00     0.102 A 
HETATM   11  C10 UNK     1      30.163  -6.635  38.603  1.00  0.00     0.104 A 
ENDROOT
BRANCH   4  12
HETATM   12  C4  UNK     1      23.766  -8.032  38.561  1.00  0.00    -0.017 A 
HETATM   13  C11 UNK     1      23.131  -8.558  37.435  1.00  0.00     0.052 A 
HETATM   14  C13 UNK     1      21.741  -8.683  37.410  1.00  0.00     0.102 A 
HETATM   15  C14 UNK     1      20.985  -8.282  38.510  1.00  0.00     0.101 A 
HETATM   16  C15 UNK     1      21.617  -7.756  39.637  1.00  0.00     0.040 A 
HETATM   17  C12 UNK     1      23.006  -7.632  39.663  1.00  0.00     0.015 A 
BRANCH  14  18
HETATM   18  O5  UNK     1      21.136  -9.198  36.303  1.00  0.00    -0.353 OA
HETATM   19  C18 UNK     1      21.120  -8.382  35.133  1.00  0.00     0.210 C 
ENDBRANCH  14  18
BRANCH  15  20
HETATM   20  O6  UNK     1      19.628  -8.401  38.498  1.00  0.00    -0.353 OA
HETATM   21  C19 UNK     1      18.883  -7.266  38.059  1.00  0.00     0.210 C 
ENDBRANCH  15  20
ENDBRANCH   4  12
BRANCH  10  22
HETATM   22  O2  UNK     1      30.187  -4.244  38.706  1.00  0.00    -0.353 OA
HETATM   23  C16 UNK     1      30.505  -3.633  37.457  1.00  0.00     0.210 C 
ENDBRANCH  10  22
BRANCH  11  24
HETATM   24  O3  UNK     1      31.525  -6.674  38.585  1.00  0.00    -0.353 OA
HETATM   25  C17 UNK     1      32.134  -7.918  38.243  1.00  0.00     0.210 C 
ENDBRANCH  11  24
TORSDOF 5
ENDMDL
MODEL 8
REMARK VINA RESULT:      -7.3     13.996     18.842
REMARK  5 active torsions:
REMARK  status: ('A' for Active; 'I' for Inactive)
REMARK    1  A    between atoms: C9_15  and  O2_2 
REMARK    2  A    between atoms: C10_16  and  O3_3 
REMARK    3  A    between atoms: C13_19  and  O5_5 
REMARK    4  A    between atoms: C14_20  and  O6_6 
REMARK    5  A    between atoms: C2_8  and  C4_10 
ROOT
HETATM    1  O1  UNK     1      19.617   1.224  15.180  1.00  0.00    -0.321 OA
HETATM    2  O4  UNK     1      18.385  -1.776  17.657  1.00  0.00    -0.286 OA
HETATM    3  C1  UNK     1      18.985   0.487  17.405  1.00  0.00     0.052 A 
HETATM    4  C2  UNK     1      18.947  -1.096  15.446  1.00  0.00     0.048 A 
HETATM    5  C3  UNK     1      19.415   1.469  16.514  1.00  0.00     0.092 A 
HETATM    6  C5  UNK     1      18.736  -0.878  16.903  1.00  0.00     0.198 A 
HETATM    7  C6  UNK     1      18.798   0.794  18.755  1.00  0.00     0.058 A 
HETATM    8  C7  UNK     1      19.661   2.766  16.967  1.00  0.00     0.077 A 
HETATM    9  C8  UNK     1      19.360  -0.046  14.720  1.00  0.00     0.159 A 
HETATM   10  C9  UNK     1      19.043   2.093  19.207  1.00  0.00     0.102 A 
HETATM   11  C10 UNK     1      19.474   3.076  18.315  1.00  0.00     0.104 A 
ENDROOT
BRANCH   4  12
HETATM   12  C4  UNK     1      18.696  -2.400  14.809  1.00  0.00    -0.017 A 
HETATM   13  C11 UNK     1      19.121  -2.633  13.500  1.00  0.00     0.052 A 
HETATM   14  C13 UNK     1      18.884  -3.869  12.897  1.00  0.00     0.102 A 
HETATM   15  C14 UNK     1      18.220  -4.872  13.602  1.00  0.00     0.101 A 
HETATM   16  C15 UNK     1      17.795  -4.642  14.910  1.00  0.00     0.040 A 
HETATM   17  C12 UNK     1      18.033  -3.407  15.513  1.00  0.00     0.015 A 
BRANCH  14  18
HETATM   18  O5  UNK     1      19.305  -4.081  11.619  1.00  0.00    -0.353 OA
HETATM   19  C18 UNK     1      19.280  -2.963  10.733  1.00  0.00     0.210 C 
ENDBRANCH  14  18
BRANCH  15  20
HETATM   20  O6  UNK     1      17.984  -6.083  13.024  1.00  0.00    -0.353 OA
HETATM   21  C19 UNK     1      17.623  -7.155  13.894  1.00  0.00     0.210 C 
ENDBRANCH  15  20
ENDBRANCH   4  12
BRANCH  10  22
HETATM   22  O2  UNK     1      18.859   2.387  20.524  1.00  0.00    -0.353 OA
HETATM   23  C16 UNK     1      19.906   2.026  21.421  1.00  0.00     0.210 C 
ENDBRANCH  10  22
BRANCH  11  24
HETATM   24  O3  UNK     1      19.714   4.344  18.749  1.00  0.00    -0.353 OA
HETATM   25  C17 UNK     1      20.945   4.944  18.349  1.00  0.00     0.210 C 
ENDBRANCH  11  24
TORSDOF 5
ENDMDL
MODEL 9
REMARK VINA RESULT:      -7.2     13.826     18.649
REMARK  5 active torsions:
REMARK  status: ('A' for Active; 'I' for Inactive)
REMARK    1  A    between atoms: C9_15  and  O2_2 
REMARK    2  A    between atoms: C10_16  and  O3_3 
REMARK    3  A    between atoms: C13_19  and  O5_5 
REMARK    4  A    between atoms: C14_20  and  O6_6 
REMARK    5  A    between atoms: C2_8  and  C4_10 
ROOT
HETATM    1  O1  UNK     1      19.549   1.199  15.075  1.00  0.00    -0.321 OA
HETATM    2  O4  UNK     1      18.433  -1.872  17.520  1.00  0.00    -0.286 OA
HETATM    3  C1  UNK     1      18.963   0.412  17.295  1.00  0.00     0.052 A 
HETATM    4  C2  UNK     1      18.952  -1.143  15.314  1.00  0.00     0.048 A 
HETATM    5  C3  UNK     1      19.354   1.419  16.414  1.00  0.00     0.092 A 
HETATM    6  C5  UNK     1      18.750  -0.952  16.776  1.00  0.00     0.198 A 
HETATM    7  C6  UNK     1      18.780   0.694  18.651  1.00  0.00     0.058 A 
HETATM    8  C7  UNK     1      19.566   2.716  16.884  1.00  0.00     0.077 A 
HETATM    9  C8  UNK     1      19.326  -0.071  14.599  1.00  0.00     0.159 A 
HETATM   10  C9  UNK     1      18.991   1.992  19.119  1.00  0.00     0.102 A 
HETATM   11  C10 UNK     1      19.383   3.001  18.238  1.00  0.00     0.104 A 
ENDROOT
BRANCH   4  12
HETATM   12  C4  UNK     1      18.734  -2.445  14.660  1.00  0.00    -0.017 A 
HETATM   13  C11 UNK     1      17.979  -3.431  15.297  1.00  0.00     0.052 A 
HETATM   14  C13 UNK     1      17.772  -4.664  14.678  1.00  0.00     0.102 A 
HETATM   15  C14 UNK     1      18.321  -4.913  13.421  1.00  0.00     0.101 A 
HETATM   16  C15 UNK     1      19.076  -3.929  12.782  1.00  0.00     0.040 A 
HETATM   17  C12 UNK     1      19.281  -2.696  13.400  1.00  0.00     0.015 A 
BRANCH  14  18
HETATM   18  O5  UNK     1      17.033  -5.616  15.313  1.00  0.00    -0.353 OA
HETATM   19  C18 UNK     1      17.717  -6.456  16.241  1.00  0.00     0.210 C 
ENDBRANCH  14  18
BRANCH  15  20
HETATM   20  O6  UNK     1      18.125  -6.112  12.805  1.00  0.00    -0.353 OA
HETATM   21  C19 UNK     1      19.203  -7.046  12.850  1.00  0.00     0.210 C 
ENDBRANCH  15  20
ENDBRANCH   4  12
BRANCH  10  22
HETATM   22  O2  UNK     1      18.812   2.262  20.442  1.00  0.00    -0.353 OA
HETATM   23  C16 UNK     1      19.725   1.660  21.356  1.00  0.00     0.210 C 
ENDBRANCH  10  22
BRANCH  11  24
HETATM   24  O3  UNK     1      19.591   4.270  18.688  1.00  0.00    -0.353 OA
HETATM   25  C17 UNK     1      20.854   4.863  18.395  1.00  0.00     0.210 C 
ENDBRANCH  11  24
TORSDOF 5
ENDMDL
MODEL 10
REMARK VINA RESULT:      -7.1     14.465     20.629
REMARK  5 active torsions:
REMARK  status: ('A' for Active; 'I' for Inactive)
REMARK    1  A    between atoms: C9_15  and  O2_2 
REMARK    2  A    between atoms: C10_16  and  O3_3 
REMARK    3  A    between atoms: C13_19  and  O5_5 
REMARK    4  A    between atoms: C14_20  and  O6_6 
REMARK    5  A    between atoms: C2_8  and  C4_10 
ROOT
HETATM    1  O1  UNK     1      18.376  -3.316  15.577  1.00  0.00    -0.321 OA
HETATM    2  O4  UNK     1      19.711   0.445  14.729  1.00  0.00    -0.286 OA
HETATM    3  C1  UNK     1      19.170  -1.707  13.943  1.00  0.00     0.052 A 
HETATM    4  C2  UNK     1      18.890  -1.077  16.365  1.00  0.00     0.048 A 
HETATM    5  C3  UNK     1      18.718  -2.979  14.294  1.00  0.00     0.092 A 
HETATM    6  C5  UNK     1      19.292  -0.675  14.990  1.00  0.00     0.198 A 
HETATM    7  C6  UNK     1      19.506  -1.420  12.617  1.00  0.00     0.058 A 
HETATM    8  C7  UNK     1      18.599  -3.972  13.320  1.00  0.00     0.077 A 
HETATM    9  C8  UNK     1      18.473  -2.340  16.540  1.00  0.00     0.159 A 
HETATM   10  C9  UNK     1      19.385  -2.415  11.645  1.00  0.00     0.102 A 
HETATM   11  C10 UNK     1      18.933  -3.688  11.996  1.00  0.00     0.104 A 
ENDROOT
BRANCH   4  12
HETATM   12  C4  UNK     1      18.925  -0.133  17.494  1.00  0.00    -0.017 A 
HETATM   13  C11 UNK     1      19.012   1.240  17.257  1.00  0.00     0.052 A 
HETATM   14  C13 UNK     1      19.045   2.135  18.327  1.00  0.00     0.102 A 
HETATM   15  C14 UNK     1      18.992   1.658  19.636  1.00  0.00     0.101 A 
HETATM   16  C15 UNK     1      18.906   0.287  19.876  1.00  0.00     0.040 A 
HETATM   17  C12 UNK     1      18.872  -0.608  18.807  1.00  0.00     0.015 A 
BRANCH  14  18
HETATM   18  O5  UNK     1      19.129   3.472  18.080  1.00  0.00    -0.353 OA
HETATM   19  C18 UNK     1      20.382   4.102  18.343  1.00  0.00     0.210 C 
ENDBRANCH  14  18
BRANCH  15  20
HETATM   20  O6  UNK     1      19.023   2.521  20.690  1.00  0.00    -0.353 OA
HETATM   21  C19 UNK     1      19.799   2.133  21.822  1.00  0.00     0.210 C 
ENDBRANCH  15  20
ENDBRANCH   4  12
BRANCH  10  22
HETATM   22  O2  UNK     1      19.714  -2.130  10.354  1.00  0.00    -0.353 OA
HETATM   23  C16 UNK     1      21.079  -2.298   9.981  1.00  0.00     0.210 C 
ENDBRANCH  10  22
BRANCH  11  24
HETATM   24  O3  UNK     1      18.813  -4.662  11.051  1.00  0.00    -0.353 OA
HETATM   25  C17 UNK     1      19.808  -5.685  11.045  1.00  0.00     0.210 C 
ENDBRANCH  11  24
TORSDOF 5
ENDMDL
