MODEL 1
REMARK VINA RESULT:      -8.8      0.000      0.000
REMARK  3 active torsions:
REMARK  status: ('A' for Active; 'I' for Inactive)
REMARK    1  A    between atoms: C7_11  and  O3_3 
REMARK    2  A    between atoms: C12_16  and  O4_4 
REMARK    3  A    between atoms: C1_5  and  C4_8 
ROOT
HETATM    1  O1  UNK     1      19.031  -0.391  33.697  1.00  0.00    -0.340 OA
HETATM    2  O2  UNK     1      20.466  -3.717  35.621  1.00  0.00    -0.292 OA
HETATM    3  C1  UNK     1      19.315  -1.595  32.968  1.00  0.00     0.169 C 
HETATM    4  C2  UNK     1      20.444  -2.382  33.629  1.00  0.00     0.121 C 
HETATM    5  C3  UNK     1      19.166  -1.749  35.718  1.00  0.00     0.076 A 
HETATM    6  C5  UNK     1      20.045  -2.725  35.040  1.00  0.00     0.167 C 
HETATM    7  C6  UNK     1      18.726  -0.624  35.014  1.00  0.00     0.089 A 
HETATM    8  C7  UNK     1      18.814  -1.924  37.058  1.00  0.00     0.085 A 
HETATM    9  C8  UNK     1      17.961   0.345  35.662  1.00  0.00     0.074 A 
HETATM   10  C11 UNK     1      18.031  -0.961  37.696  1.00  0.00     0.074 A 
HETATM   11  C12 UNK     1      17.610   0.173  37.002  1.00  0.00     0.071 A 
ENDROOT
BRANCH   3  12
HETATM   12  C4  UNK     1      19.673  -1.219  31.545  1.00  0.00    -0.029 A 
HETATM   13  C10 UNK     1      20.207  -2.178  30.684  1.00  0.00     0.010 A 
HETATM   14  C14 UNK     1      20.537  -1.832  29.374  1.00  0.00     0.001 A 
HETATM   15  C15 UNK     1      20.332  -0.527  28.924  1.00  0.00     0.000 A 
HETATM   16  C13 UNK     1      19.796   0.432  29.785  1.00  0.00     0.001 A 
HETATM   17  C9  UNK     1      19.467   0.086  31.095  1.00  0.00     0.010 A 
ENDBRANCH   3  12
BRANCH   8  18
HETATM   18  O3  UNK     1      19.211  -3.003  37.789  1.00  0.00    -0.360 OA
HETATM   19  H11 UNK     1      19.257  -3.794  37.229  1.00  0.00     0.217 HD
ENDBRANCH   8  18
BRANCH  11  20
HETATM   20  O4  UNK     1      16.854   1.114  37.632  1.00  0.00    -0.361 OA
HETATM   21  H12 UNK     1      16.275   0.672  38.277  1.00  0.00     0.217 HD
ENDBRANCH  11  20
TORSDOF 3
ENDMDL
MODEL 2
REMARK VINA RESULT:      -8.0      2.621      6.893
REMARK  3 active torsions:
REMARK  status: ('A' for Active; 'I' for Inactive)
REMARK    1  A    between atoms: C7_11  and  O3_3 
REMARK    2  A    between atoms: C12_16  and  O4_4 
REMARK    3  A    between atoms: C1_5  and  C4_8 
ROOT
HETATM    1  O1  UNK     1      19.019  -0.237  33.258  1.00  0.00    -0.340 OA
HETATM    2  O2  UNK     1      18.539   2.694  30.429  1.00  0.00    -0.292 OA
HETATM    3  C1  UNK     1      17.979   0.745  33.388  1.00  0.00     0.169 C 
HETATM    4  C2  UNK     1      18.388   2.065  32.738  1.00  0.00     0.121 C 
HETATM    5  C3  UNK     1      19.230   0.496  30.942  1.00  0.00     0.076 A 
HETATM    6  C5  UNK     1      18.683   1.826  31.281  1.00  0.00     0.167 C 
HETATM    7  C6  UNK     1      19.388  -0.454  31.955  1.00  0.00     0.089 A 
HETATM    8  C7  UNK     1      19.626   0.205  29.635  1.00  0.00     0.085 A 
HETATM    9  C8  UNK     1      19.976  -1.686  31.667  1.00  0.00     0.074 A 
HETATM   10  C11 UNK     1      20.194  -1.037  29.347  1.00  0.00     0.074 A 
HETATM   11  C12 UNK     1      20.374  -1.978  30.361  1.00  0.00     0.071 A 
ENDROOT
BRANCH   3  12
HETATM   12  C4  UNK     1      17.679   0.932  34.861  1.00  0.00    -0.029 A 
HETATM   13  C10 UNK     1      18.577   1.624  35.673  1.00  0.00     0.010 A 
HETATM   14  C14 UNK     1      18.300   1.796  37.029  1.00  0.00     0.001 A 
HETATM   15  C15 UNK     1      17.125   1.276  37.573  1.00  0.00     0.000 A 
HETATM   16  C13 UNK     1      16.226   0.585  36.760  1.00  0.00     0.001 A 
HETATM   17  C9  UNK     1      16.503   0.413  35.404  1.00  0.00     0.010 A 
ENDBRANCH   3  12
BRANCH   8  18
HETATM   18  O3  UNK     1      19.490   1.091  28.609  1.00  0.00    -0.360 OA
HETATM   19  H11 UNK     1      20.327   1.552  28.445  1.00  0.00     0.217 HD
ENDBRANCH   8  18
BRANCH  11  20
HETATM   20  O4  UNK     1      20.937  -3.184  30.077  1.00  0.00    -0.361 OA
HETATM   21  H12 UNK     1      21.359  -3.532  30.881  1.00  0.00     0.217 HD
ENDBRANCH  11  20
TORSDOF 3
ENDMDL
MODEL 3
REMARK VINA RESULT:      -8.0      2.621      6.873
REMARK  3 active torsions:
REMARK  status: ('A' for Active; 'I' for Inactive)
REMARK    1  A    between atoms: C7_11  and  O3_3 
REMARK    2  A    between atoms: C12_16  and  O4_4 
REMARK    3  A    between atoms: C1_5  and  C4_8 
ROOT
HETATM    1  O1  UNK     1      19.019  -0.237  33.258  1.00  0.00    -0.340 OA
HETATM    2  O2  UNK     1      18.539   2.694  30.428  1.00  0.00    -0.292 OA
HETATM    3  C1  UNK     1      17.979   0.745  33.388  1.00  0.00     0.169 C 
HETATM    4  C2  UNK     1      18.387   2.065  32.738  1.00  0.00     0.121 C 
HETATM    5  C3  UNK     1      19.230   0.496  30.942  1.00  0.00     0.076 A 
HETATM    6  C5  UNK     1      18.682   1.826  31.280  1.00  0.00     0.167 C 
HETATM    7  C6  UNK     1      19.388  -0.454  31.955  1.00  0.00     0.089 A 
HETATM    8  C7  UNK     1      19.626   0.204  29.635  1.00  0.00     0.085 A 
HETATM    9  C8  UNK     1      19.976  -1.686  31.667  1.00  0.00     0.074 A 
HETATM   10  C11 UNK     1      20.194  -1.037  29.347  1.00  0.00     0.074 A 
HETATM   11  C12 UNK     1      20.374  -1.978  30.361  1.00  0.00     0.071 A 
ENDROOT
BRANCH   3  12
HETATM   12  C4  UNK     1      17.678   0.932  34.860  1.00  0.00    -0.029 A 
HETATM   13  C10 UNK     1      16.503   0.412  35.403  1.00  0.00     0.010 A 
HETATM   14  C14 UNK     1      16.226   0.584  36.759  1.00  0.00     0.001 A 
HETATM   15  C15 UNK     1      17.124   1.276  37.573  1.00  0.00     0.000 A 
HETATM   16  C13 UNK     1      18.299   1.795  37.029  1.00  0.00     0.001 A 
HETATM   17  C9  UNK     1      18.576   1.623  35.673  1.00  0.00     0.010 A 
ENDBRANCH   3  12
BRANCH   8  18
HETATM   18  O3  UNK     1      19.489   1.091  28.609  1.00  0.00    -0.360 OA
HETATM   19  H11 UNK     1      19.079   0.662  27.842  1.00  0.00     0.217 HD
ENDBRANCH   8  18
BRANCH  11  20
HETATM   20  O4  UNK     1      20.937  -3.184  30.077  1.00  0.00    -0.361 OA
HETATM   21  H12 UNK     1      20.279  -3.740  29.624  1.00  0.00     0.217 HD
ENDBRANCH  11  20
TORSDOF 3
ENDMDL
MODEL 4
REMARK VINA RESULT:      -7.9      2.483      7.023
REMARK  3 active torsions:
REMARK  status: ('A' for Active; 'I' for Inactive)
REMARK    1  A    between atoms: C7_11  and  O3_3 
REMARK    2  A    between atoms: C12_16  and  O4_4 
REMARK    3  A    between atoms: C1_5  and  C4_8 
ROOT
HETATM    1  O1  UNK     1      19.025   0.197  33.246  1.00  0.00    -0.340 OA
HETATM    2  O2  UNK     1      17.783   3.772  31.665  1.00  0.00    -0.292 OA
HETATM    3  C1  UNK     1      17.948   0.932  33.849  1.00  0.00     0.169 C 
HETATM    4  C2  UNK     1      18.117   2.433  33.626  1.00  0.00     0.121 C 
HETATM    5  C3  UNK     1      18.739   1.644  31.305  1.00  0.00     0.076 A 
HETATM    6  C5  UNK     1      18.154   2.709  32.146  1.00  0.00     0.167 C 
HETATM    7  C6  UNK     1      19.162   0.455  31.906  1.00  0.00     0.089 A 
HETATM    8  C7  UNK     1      18.908   1.838  29.932  1.00  0.00     0.085 A 
HETATM    9  C8  UNK     1      19.787  -0.527  31.139  1.00  0.00     0.074 A 
HETATM   10  C11 UNK     1      19.515   0.844  29.164  1.00  0.00     0.074 A 
HETATM   11  C12 UNK     1      19.958  -0.334  29.767  1.00  0.00     0.071 A 
ENDROOT
BRANCH   3  12
HETATM   12  C4  UNK     1      17.912   0.601  35.327  1.00  0.00    -0.029 A 
HETATM   13  C10 UNK     1      18.099  -0.714  35.751  1.00  0.00     0.010 A 
HETATM   14  C14 UNK     1      18.066  -1.019  37.112  1.00  0.00     0.001 A 
HETATM   15  C15 UNK     1      17.845  -0.008  38.049  1.00  0.00     0.000 A 
HETATM   16  C13 UNK     1      17.659   1.308  37.623  1.00  0.00     0.001 A 
HETATM   17  C9  UNK     1      17.692   1.612  36.262  1.00  0.00     0.010 A 
ENDBRANCH   3  12
BRANCH   8  18
HETATM   18  O3  UNK     1      18.509   2.975  29.294  1.00  0.00    -0.360 OA
HETATM   19  H11 UNK     1      17.681   2.821  28.814  1.00  0.00     0.217 HD
ENDBRANCH   8  18
BRANCH  11  20
HETATM   20  O4  UNK     1      20.558  -1.298  29.015  1.00  0.00    -0.361 OA
HETATM   21  H12 UNK     1      20.150  -2.157  29.221  1.00  0.00     0.217 HD
ENDBRANCH  11  20
TORSDOF 3
ENDMDL
MODEL 5
REMARK VINA RESULT:      -7.9     25.729     27.566
REMARK  3 active torsions:
REMARK  status: ('A' for Active; 'I' for Inactive)
REMARK    1  A    between atoms: C7_11  and  O3_3 
REMARK    2  A    between atoms: C12_16  and  O4_4 
REMARK    3  A    between atoms: C1_5  and  C4_8 
ROOT
HETATM    1  O1  UNK     1      13.196   7.920   8.338  1.00  0.00    -0.340 OA
HETATM    2  O2  UNK     1      15.726   4.859   9.366  1.00  0.00    -0.292 OA
HETATM    3  C1  UNK     1      12.683   6.610   8.628  1.00  0.00     0.169 C 
HETATM    4  C2  UNK     1      13.702   5.531   8.269  1.00  0.00     0.121 C 
HETATM    5  C3  UNK     1      15.282   7.178   9.360  1.00  0.00     0.076 A 
HETATM    6  C5  UNK     1      14.967   5.767   9.052  1.00  0.00     0.167 C 
HETATM    7  C6  UNK     1      14.388   8.178   8.965  1.00  0.00     0.089 A 
HETATM    8  C7  UNK     1      16.478   7.513   9.998  1.00  0.00     0.085 A 
HETATM    9  C8  UNK     1      14.708   9.518   9.178  1.00  0.00     0.074 A 
HETATM   10  C11 UNK     1      16.783   8.855  10.228  1.00  0.00     0.074 A 
HETATM   11  C12 UNK     1      15.904   9.856   9.814  1.00  0.00     0.071 A 
ENDROOT
BRANCH   3  12
HETATM   12  C4  UNK     1      11.392   6.420   7.859  1.00  0.00    -0.029 A 
HETATM   13  C10 UNK     1      11.416   6.347   6.467  1.00  0.00     0.010 A 
HETATM   14  C14 UNK     1      10.227   6.171   5.758  1.00  0.00     0.001 A 
HETATM   15  C15 UNK     1       9.015   6.070   6.442  1.00  0.00     0.000 A 
HETATM   16  C13 UNK     1       8.992   6.143   7.836  1.00  0.00     0.001 A 
HETATM   17  C9  UNK     1      10.181   6.318   8.544  1.00  0.00     0.010 A 
ENDBRANCH   3  12
BRANCH   8  18
HETATM   18  O3  UNK     1      17.381   6.579  10.408  1.00  0.00    -0.360 OA
HETATM   19  H11 UNK     1      17.473   6.597  11.373  1.00  0.00     0.217 HD
ENDBRANCH   8  18
BRANCH  11  20
HETATM   20  O4  UNK     1      16.210  11.164  10.033  1.00  0.00    -0.361 OA
HETATM   21  H12 UNK     1      16.084  11.364  10.977  1.00  0.00     0.217 HD
ENDBRANCH  11  20
TORSDOF 3
ENDMDL
MODEL 6
REMARK VINA RESULT:      -7.8      3.295      4.321
REMARK  3 active torsions:
REMARK  status: ('A' for Active; 'I' for Inactive)
REMARK    1  A    between atoms: C7_11  and  O3_3 
REMARK    2  A    between atoms: C12_16  and  O4_4 
REMARK    3  A    between atoms: C1_5  and  C4_8 
ROOT
HETATM    1  O1  UNK     1      18.425   2.896  34.353  1.00  0.00    -0.340 OA
HETATM    2  O2  UNK     1      18.299  -0.922  32.859  1.00  0.00    -0.292 OA
HETATM    3  C1  UNK     1      17.980   2.648  33.010  1.00  0.00     0.169 C 
HETATM    4  C2  UNK     1      18.658   1.410  32.428  1.00  0.00     0.121 C 
HETATM    5  C3  UNK     1      18.157   0.503  34.736  1.00  0.00     0.076 A 
HETATM    6  C5  UNK     1      18.342   0.221  33.297  1.00  0.00     0.167 C 
HETATM    7  C6  UNK     1      18.231   1.824  35.186  1.00  0.00     0.089 A 
HETATM    8  C7  UNK     1      17.954  -0.540  35.642  1.00  0.00     0.085 A 
HETATM    9  C8  UNK     1      18.137   2.099  36.550  1.00  0.00     0.074 A 
HETATM   10  C11 UNK     1      17.840  -0.258  37.004  1.00  0.00     0.074 A 
HETATM   11  C12 UNK     1      17.937   1.058  37.458  1.00  0.00     0.071 A 
ENDROOT
BRANCH   3  12
HETATM   12  C4  UNK     1      18.275   3.875  32.173  1.00  0.00    -0.029 A 
HETATM   13  C10 UNK     1      18.790   3.733  30.885  1.00  0.00     0.010 A 
HETATM   14  C14 UNK     1      19.061   4.863  30.115  1.00  0.00     0.001 A 
HETATM   15  C15 UNK     1      18.817   6.136  30.632  1.00  0.00     0.000 A 
HETATM   16  C13 UNK     1      18.301   6.278  31.920  1.00  0.00     0.001 A 
HETATM   17  C9  UNK     1      18.029   5.147  32.691  1.00  0.00     0.010 A 
ENDBRANCH   3  12
BRANCH   8  18
HETATM   18  O3  UNK     1      17.869  -1.845  35.257  1.00  0.00    -0.360 OA
HETATM   19  H11 UNK     1      17.503  -1.911  34.362  1.00  0.00     0.217 HD
ENDBRANCH   8  18
BRANCH  11  20
HETATM   20  O4  UNK     1      17.833   1.327  38.788  1.00  0.00    -0.361 OA
HETATM   21  H12 UNK     1      18.712   1.245  39.196  1.00  0.00     0.217 HD
ENDBRANCH  11  20
TORSDOF 3
ENDMDL
MODEL 7
REMARK VINA RESULT:      -7.8     25.232     28.262
REMARK  3 active torsions:
REMARK  status: ('A' for Active; 'I' for Inactive)
REMARK    1  A    between atoms: C7_11  and  O3_3 
REMARK    2  A    between atoms: C12_16  and  O4_4 
REMARK    3  A    between atoms: C1_5  and  C4_8 
ROOT
HETATM    1  O1  UNK     1      11.409   7.451   9.485  1.00  0.00    -0.340 OA
HETATM    2  O2  UNK     1      12.201   6.209   5.657  1.00  0.00    -0.292 OA
HETATM    3  C1  UNK     1      12.641   7.806   8.839  1.00  0.00     0.169 C 
HETATM    4  C2  UNK     1      13.060   6.735   7.833  1.00  0.00     0.121 C 
HETATM    5  C3  UNK     1      10.594   6.818   7.275  1.00  0.00     0.076 A 
HETATM    6  C5  UNK     1      11.973   6.576   6.803  1.00  0.00     0.167 C 
HETATM    7  C6  UNK     1      10.388   7.221   8.598  1.00  0.00     0.089 A 
HETATM    8  C7  UNK     1       9.506   6.606   6.426  1.00  0.00     0.085 A 
HETATM    9  C8  UNK     1       9.089   7.378   9.081  1.00  0.00     0.074 A 
HETATM   10  C11 UNK     1       8.210   6.785   6.908  1.00  0.00     0.074 A 
HETATM   11  C12 UNK     1       8.001   7.164   8.234  1.00  0.00     0.071 A 
ENDROOT
BRANCH   3  12
HETATM   12  C4  UNK     1      13.701   7.998   9.903  1.00  0.00    -0.029 A 
HETATM   13  C10 UNK     1      14.874   7.244   9.863  1.00  0.00     0.010 A 
HETATM   14  C14 UNK     1      15.850   7.422  10.844  1.00  0.00     0.001 A 
HETATM   15  C15 UNK     1      15.654   8.354  11.864  1.00  0.00     0.000 A 
HETATM   16  C13 UNK     1      14.481   9.108  11.903  1.00  0.00     0.001 A 
HETATM   17  C9  UNK     1      13.504   8.930  10.923  1.00  0.00     0.010 A 
ENDBRANCH   3  12
BRANCH   8  18
HETATM   18  O3  UNK     1       9.651   6.218   5.127  1.00  0.00    -0.360 OA
HETATM   19  H11 UNK     1       9.325   5.313   5.005  1.00  0.00     0.217 HD
ENDBRANCH   8  18
BRANCH  11  20
HETATM   20  O4  UNK     1       6.733   7.329   8.703  1.00  0.00    -0.361 OA
HETATM   21  H12 UNK     1       6.213   6.535   8.491  1.00  0.00     0.217 HD
ENDBRANCH  11  20
TORSDOF 3
ENDMDL
MODEL 8
REMARK VINA RESULT:      -7.6      1.629      3.175
REMARK  3 active torsions:
REMARK  status: ('A' for Active; 'I' for Inactive)
REMARK    1  A    between atoms: C7_11  and  O3_3 
REMARK    2  A    between atoms: C12_16  and  O4_4 
REMARK    3  A    between atoms: C1_5  and  C4_8 
ROOT
HETATM    1  O1  UNK     1      18.495  -0.596  33.154  1.00  0.00    -0.340 OA
HETATM    2  O2  UNK     1      18.110   3.280  34.439  1.00  0.00    -0.292 OA
HETATM    3  C1  UNK     1      19.188   0.470  32.487  1.00  0.00     0.169 C 
HETATM    4  C2  UNK     1      18.409   1.780  32.592  1.00  0.00     0.121 C 
HETATM    5  C3  UNK     1      18.107   0.981  34.973  1.00  0.00     0.076 A 
HETATM    6  C5  UNK     1      18.222   2.126  34.046  1.00  0.00     0.167 C 
HETATM    7  C6  UNK     1      18.228  -0.318  34.470  1.00  0.00     0.089 A 
HETATM    8  C7  UNK     1      17.837   1.190  36.328  1.00  0.00     0.085 A 
HETATM    9  C8  UNK     1      18.044  -1.411  35.318  1.00  0.00     0.074 A 
HETATM   10  C11 UNK     1      17.675   0.094  37.175  1.00  0.00     0.074 A 
HETATM   11  C12 UNK     1      17.772  -1.203  36.671  1.00  0.00     0.071 A 
ENDROOT
BRANCH   3  12
HETATM   12  C4  UNK     1      19.396   0.074  31.040  1.00  0.00    -0.029 A 
HETATM   13  C10 UNK     1      20.051  -1.118  30.731  1.00  0.00     0.010 A 
HETATM   14  C14 UNK     1      20.243  -1.482  29.399  1.00  0.00     0.001 A 
HETATM   15  C15 UNK     1      19.780  -0.655  28.375  1.00  0.00     0.000 A 
HETATM   16  C13 UNK     1      19.124   0.537  28.684  1.00  0.00     0.001 A 
HETATM   17  C9  UNK     1      18.933   0.902  30.017  1.00  0.00     0.010 A 
ENDBRANCH   3  12
BRANCH   8  18
HETATM   18  O3  UNK     1      17.715   2.434  36.871  1.00  0.00    -0.360 OA
HETATM   19  H11 UNK     1      16.917   2.872  36.538  1.00  0.00     0.217 HD
ENDBRANCH   8  18
BRANCH  11  20
HETATM   20  O4  UNK     1      17.605  -2.270  37.501  1.00  0.00    -0.361 OA
HETATM   21  H12 UNK     1      18.435  -2.428  37.982  1.00  0.00     0.217 HD
ENDBRANCH  11  20
TORSDOF 3
ENDMDL
MODEL 9
REMARK VINA RESULT:      -7.6     26.994     28.793
REMARK  3 active torsions:
REMARK  status: ('A' for Active; 'I' for Inactive)
REMARK    1  A    between atoms: C7_11  and  O3_3 
REMARK    2  A    between atoms: C12_16  and  O4_4 
REMARK    3  A    between atoms: C1_5  and  C4_8 
ROOT
HETATM    1  O1  UNK     1       9.783   7.177   9.483  1.00  0.00    -0.340 OA
HETATM    2  O2  UNK     1       9.555   5.892   5.594  1.00  0.00    -0.292 OA
HETATM    3  C1  UNK     1       8.740   6.284   9.066  1.00  0.00     0.169 C 
HETATM    4  C2  UNK     1       8.385   6.503   7.597  1.00  0.00     0.121 C 
HETATM    5  C3  UNK     1      10.903   6.624   7.389  1.00  0.00     0.076 A 
HETATM    6  C5  UNK     1       9.614   6.279   6.755  1.00  0.00     0.167 C 
HETATM    7  C6  UNK     1      10.913   7.076   8.712  1.00  0.00     0.089 A 
HETATM    8  C7  UNK     1      12.094   6.544   6.663  1.00  0.00     0.085 A 
HETATM    9  C8  UNK     1      12.111   7.480   9.299  1.00  0.00     0.074 A 
HETATM   10  C11 UNK     1      13.293   6.929   7.262  1.00  0.00     0.074 A 
HETATM   11  C12 UNK     1      13.302   7.402   8.574  1.00  0.00     0.071 A 
ENDROOT
BRANCH   3  12
HETATM   12  C4  UNK     1       7.535   6.505   9.957  1.00  0.00    -0.029 A 
HETATM   13  C10 UNK     1       6.735   7.634   9.778  1.00  0.00     0.010 A 
HETATM   14  C14 UNK     1       5.625   7.838  10.599  1.00  0.00     0.001 A 
HETATM   15  C15 UNK     1       5.316   6.914  11.597  1.00  0.00     0.000 A 
HETATM   16  C13 UNK     1       6.116   5.784  11.774  1.00  0.00     0.001 A 
HETATM   17  C9  UNK     1       7.225   5.580  10.954  1.00  0.00     0.010 A 
ENDBRANCH   3  12
BRANCH   8  18
HETATM   18  O3  UNK     1      12.142   6.106   5.374  1.00  0.00    -0.360 OA
HETATM   19  H11 UNK     1      12.521   6.787   4.798  1.00  0.00     0.217 HD
ENDBRANCH   8  18
BRANCH  11  20
HETATM   20  O4  UNK     1      14.474   7.785   9.151  1.00  0.00    -0.361 OA
HETATM   21  H12 UNK     1      14.298   8.518   9.766  1.00  0.00     0.217 HD
ENDBRANCH  11  20
TORSDOF 3
ENDMDL
MODEL 10
REMARK VINA RESULT:      -7.5     14.113     17.298
REMARK  3 active torsions:
REMARK  status: ('A' for Active; 'I' for Inactive)
REMARK    1  A    between atoms: C7_11  and  O3_3 
REMARK    2  A    between atoms: C12_16  and  O4_4 
REMARK    3  A    between atoms: C1_5  and  C4_8 
ROOT
HETATM    1  O1  UNK     1      18.824  -1.077  17.750  1.00  0.00    -0.340 OA
HETATM    2  O2  UNK     1      19.358   2.173  15.306  1.00  0.00    -0.292 OA
HETATM    3  C1  UNK     1      19.511  -1.208  16.496  1.00  0.00     0.169 C 
HETATM    4  C2  UNK     1      18.995  -0.191  15.480  1.00  0.00     0.121 C 
HETATM    5  C3  UNK     1      19.109   1.331  17.497  1.00  0.00     0.076 A 
HETATM    6  C5  UNK     1      19.195   1.198  16.028  1.00  0.00     0.167 C 
HETATM    7  C6  UNK     1      18.906   0.187  18.275  1.00  0.00     0.089 A 
HETATM    8  C7  UNK     1      19.185   2.589  18.100  1.00  0.00     0.085 A 
HETATM    9  C8  UNK     1      18.744   0.306  19.655  1.00  0.00     0.074 A 
HETATM   10  C11 UNK     1      19.044   2.700  19.484  1.00  0.00     0.074 A 
HETATM   11  C12 UNK     1      18.818   1.562  20.259  1.00  0.00     0.071 A 
ENDROOT
BRANCH   3  12
HETATM   12  C4  UNK     1      19.325  -2.624  15.993  1.00  0.00    -0.029 A 
HETATM   13  C10 UNK     1      18.081  -3.036  15.516  1.00  0.00     0.010 A 
HETATM   14  C14 UNK     1      17.910  -4.340  15.052  1.00  0.00     0.001 A 
HETATM   15  C15 UNK     1      18.982  -5.233  15.067  1.00  0.00     0.000 A 
HETATM   16  C13 UNK     1      20.227  -4.820  15.544  1.00  0.00     0.001 A 
HETATM   17  C9  UNK     1      20.398  -3.516  16.007  1.00  0.00     0.010 A 
ENDBRANCH   3  12
BRANCH   8  18
HETATM   18  O3  UNK     1      19.387   3.735  17.391  1.00  0.00    -0.360 OA
HETATM   19  H11 UNK     1      18.778   4.429  17.687  1.00  0.00     0.217 HD
ENDBRANCH   8  18
BRANCH  11  20
HETATM   20  O4  UNK     1      18.672   1.676  21.608  1.00  0.00    -0.361 OA
HETATM   21  H12 UNK     1      17.796   1.337  21.860  1.00  0.00     0.217 HD
ENDBRANCH  11  20
TORSDOF 3
ENDMDL
