MODEL 1
REMARK VINA RESULT:      -9.0      0.000      0.000
REMARK  6 active torsions:
REMARK  status: ('A' for Active; 'I' for Inactive)
REMARK    1  A    between atoms: C1_7  and  O1_4 
REMARK    2  A    between atoms: C4_10  and  O1_4 
REMARK    3  A    between atoms: C3_9  and  O2_5 
REMARK    4  A    between atoms: C2_8  and  C9_15 
REMARK    5  A    between atoms: C4_10  and  C8_14 
REMARK    6  A    between atoms: C10_16  and  C11_17 
ROOT
HETATM    1  N1  UNK     1      17.898   2.680  33.924  1.00  0.00    -0.191 NA
HETATM    2  C9  UNK     1      18.274   4.642  31.113  1.00  0.00     0.036 C 
HETATM    3  C10 UNK     1      18.335   3.325  31.443  1.00  0.00     0.055 C 
HETATM    4  C23 UNK     1      18.092   2.978  32.819  1.00  0.00     0.100 C 
ENDROOT
BRANCH   3   5
HETATM    5  C11 UNK     1      18.621   2.263  30.489  1.00  0.00    -0.015 A 
HETATM    6  C16 UNK     1      17.973   2.240  29.255  1.00  0.00     0.016 A 
HETATM    7  C19 UNK     1      18.247   1.222  28.342  1.00  0.00     0.043 A 
HETATM    8  C21 UNK     1      19.170   0.227  28.664  1.00  0.00     0.116 A 
HETATM    9  C20 UNK     1      19.818   0.250  29.898  1.00  0.00     0.043 A 
HETATM   10  F2  UNK     1      19.433  -0.752  27.788  1.00  0.00    -0.206 F 
HETATM   11  C17 UNK     1      19.544   1.268  30.811  1.00  0.00     0.016 A 
ENDBRANCH   3   5
BRANCH   2  12
HETATM   12  C2  UNK     1      17.982   5.745  32.040  1.00  0.00    -0.015 A 
HETATM   13  C5  UNK     1      16.646   5.999  32.322  1.00  0.00     0.052 A 
HETATM   14  C3  UNK     1      16.311   7.034  33.195  1.00  0.00     0.102 A 
HETATM   15  C1  UNK     1      17.315   7.806  33.780  1.00  0.00     0.103 A 
HETATM   16  C6  UNK     1      18.654   7.543  33.490  1.00  0.00     0.059 A 
HETATM   17  C7  UNK     1      18.989   6.508  32.617  1.00  0.00     0.024 A 
HETATM   18 Br1  UNK     1      20.832   6.204  32.267  1.00  0.00    -0.050 Br
BRANCH  14  19
HETATM   19  O2  UNK     1      15.000   7.281  33.471  1.00  0.00    -0.353 OA
HETATM   20  C22 UNK     1      14.087   7.230  32.376  1.00  0.00     0.210 C 
ENDBRANCH  14  19
BRANCH  15  21
HETATM   21  O1  UNK     1      17.000   8.818  34.634  1.00  0.00    -0.344 OA
BRANCH  21  22
HETATM   22  C4  UNK     1      16.981  10.139  34.095  1.00  0.00     0.214 C 
BRANCH  22  23
HETATM   23  C8  UNK     1      15.591  10.692  34.203  1.00  0.00    -0.034 A 
HETATM   24  C12 UNK     1      15.124  11.148  35.430  1.00  0.00     0.012 A 
HETATM   25  C14 UNK     1      13.832  11.664  35.530  1.00  0.00     0.043 A 
HETATM   26  C18 UNK     1      13.015  11.721  34.400  1.00  0.00     0.116 A 
HETATM   27  C15 UNK     1      13.490  11.262  33.172  1.00  0.00     0.043 A 
HETATM   28  F1  UNK     1      11.775  12.217  34.496  1.00  0.00    -0.206 F 
HETATM   29  C13 UNK     1      14.783  10.746  33.073  1.00  0.00     0.012 A 
ENDBRANCH  22  23
ENDBRANCH  21  22
ENDBRANCH  15  21
ENDBRANCH   2  12
TORSDOF 6
ENDMDL
MODEL 2
REMARK VINA RESULT:      -9.0      0.032      1.269
REMARK  6 active torsions:
REMARK  status: ('A' for Active; 'I' for Inactive)
REMARK    1  A    between atoms: C1_7  and  O1_4 
REMARK    2  A    between atoms: C4_10  and  O1_4 
REMARK    3  A    between atoms: C3_9  and  O2_5 
REMARK    4  A    between atoms: C2_8  and  C9_15 
REMARK    5  A    between atoms: C4_10  and  C8_14 
REMARK    6  A    between atoms: C10_16  and  C11_17 
ROOT
HETATM    1  N1  UNK     1      17.906   2.685  33.944  1.00  0.00    -0.191 NA
HETATM    2  C9  UNK     1      18.253   4.644  31.128  1.00  0.00     0.036 C 
HETATM    3  C10 UNK     1      18.323   3.327  31.459  1.00  0.00     0.055 C 
HETATM    4  C23 UNK     1      18.091   2.981  32.837  1.00  0.00     0.100 C 
ENDROOT
BRANCH   3   5
HETATM    5  C11 UNK     1      18.607   2.265  30.506  1.00  0.00    -0.015 A 
HETATM    6  C16 UNK     1      19.527   1.268  30.826  1.00  0.00     0.016 A 
HETATM    7  C19 UNK     1      19.800   0.251  29.911  1.00  0.00     0.043 A 
HETATM    8  C21 UNK     1      19.152   0.232  28.676  1.00  0.00     0.116 A 
HETATM    9  C20 UNK     1      18.232   1.230  28.356  1.00  0.00     0.043 A 
HETATM   10  F2  UNK     1      19.414  -0.743  27.796  1.00  0.00    -0.206 F 
HETATM   11  C17 UNK     1      17.959   2.247  29.271  1.00  0.00     0.016 A 
ENDBRANCH   3   5
BRANCH   2  12
HETATM   12  C2  UNK     1      17.962   5.746  32.055  1.00  0.00    -0.015 A 
HETATM   13  C5  UNK     1      16.626   6.001  32.338  1.00  0.00     0.052 A 
HETATM   14  C3  UNK     1      16.292   7.036  33.211  1.00  0.00     0.102 A 
HETATM   15  C1  UNK     1      17.296   7.808  33.795  1.00  0.00     0.103 A 
HETATM   16  C6  UNK     1      18.636   7.545  33.504  1.00  0.00     0.059 A 
HETATM   17  C7  UNK     1      18.969   6.510  32.631  1.00  0.00     0.024 A 
HETATM   18 Br1  UNK     1      20.812   6.206  32.279  1.00  0.00    -0.050 Br
BRANCH  14  19
HETATM   19  O2  UNK     1      14.981   7.283  33.488  1.00  0.00    -0.353 OA
HETATM   20  C22 UNK     1      14.068   7.239  32.393  1.00  0.00     0.210 C 
ENDBRANCH  14  19
BRANCH  15  21
HETATM   21  O1  UNK     1      16.982   8.821  34.649  1.00  0.00    -0.344 OA
BRANCH  21  22
HETATM   22  C4  UNK     1      16.974  10.142  34.113  1.00  0.00     0.214 C 
BRANCH  22  23
HETATM   23  C8  UNK     1      15.588  10.706  34.219  1.00  0.00    -0.034 A 
HETATM   24  C12 UNK     1      14.761  10.715  33.101  1.00  0.00     0.012 A 
HETATM   25  C14 UNK     1      13.472  11.238  33.198  1.00  0.00     0.043 A 
HETATM   26  C18 UNK     1      13.018  11.750  34.415  1.00  0.00     0.116 A 
HETATM   27  C15 UNK     1      13.853  11.737  35.532  1.00  0.00     0.043 A 
HETATM   28  F1  UNK     1      11.780  12.251  34.509  1.00  0.00    -0.206 F 
HETATM   29  C13 UNK     1      15.142  11.213  35.434  1.00  0.00     0.012 A 
ENDBRANCH  22  23
ENDBRANCH  21  22
ENDBRANCH  15  21
ENDBRANCH   2  12
TORSDOF 6
ENDMDL
MODEL 3
REMARK VINA RESULT:      -9.0      6.601      8.982
REMARK  6 active torsions:
REMARK  status: ('A' for Active; 'I' for Inactive)
REMARK    1  A    between atoms: C1_7  and  O1_4 
REMARK    2  A    between atoms: C4_10  and  O1_4 
REMARK    3  A    between atoms: C3_9  and  O2_5 
REMARK    4  A    between atoms: C2_8  and  C9_15 
REMARK    5  A    between atoms: C4_10  and  C8_14 
REMARK    6  A    between atoms: C10_16  and  C11_17 
ROOT
HETATM    1  N1  UNK     1      21.972  -1.749  35.360  1.00  0.00    -0.191 NA
HETATM    2  C9  UNK     1      18.711  -2.540  36.153  1.00  0.00     0.036 C 
HETATM    3  C10 UNK     1      19.951  -3.071  36.322  1.00  0.00     0.055 C 
HETATM    4  C23 UNK     1      21.063  -2.332  35.785  1.00  0.00     0.100 C 
ENDROOT
BRANCH   3   5
HETATM    5  C11 UNK     1      20.207  -4.326  37.014  1.00  0.00    -0.015 A 
HETATM    6  C16 UNK     1      21.369  -4.482  37.767  1.00  0.00     0.016 A 
HETATM    7  C19 UNK     1      21.615  -5.685  38.430  1.00  0.00     0.043 A 
HETATM    8  C21 UNK     1      20.696  -6.731  38.338  1.00  0.00     0.116 A 
HETATM    9  C20 UNK     1      19.534  -6.575  37.584  1.00  0.00     0.043 A 
HETATM   10  F2  UNK     1      20.932  -7.887  38.972  1.00  0.00    -0.206 F 
HETATM   11  C17 UNK     1      19.289  -5.371  36.922  1.00  0.00     0.016 A 
ENDBRANCH   3   5
BRANCH   2  12
HETATM   12  C2  UNK     1      18.407  -1.275  35.468  1.00  0.00    -0.015 A 
HETATM   13  C5  UNK     1      18.597  -1.237  34.093  1.00  0.00     0.052 A 
HETATM   14  C3  UNK     1      18.325  -0.063  33.392  1.00  0.00     0.102 A 
HETATM   15  C1  UNK     1      17.866   1.065  34.072  1.00  0.00     0.103 A 
HETATM   16  C6  UNK     1      17.679   1.018  35.454  1.00  0.00     0.059 A 
HETATM   17  C7  UNK     1      17.950  -0.158  36.154  1.00  0.00     0.024 A 
HETATM   18 Br1  UNK     1      17.674  -0.154  38.034  1.00  0.00    -0.050 Br
BRANCH  14  19
HETATM   19  O2  UNK     1      18.511  -0.028  32.042  1.00  0.00    -0.353 OA
HETATM   20  C22 UNK     1      19.547  -0.851  31.510  1.00  0.00     0.210 C 
ENDBRANCH  14  19
BRANCH  15  21
HETATM   21  O1  UNK     1      17.596   2.218  33.398  1.00  0.00    -0.344 OA
BRANCH  21  22
HETATM   22  C4  UNK     1      18.237   3.404  33.862  1.00  0.00     0.214 C 
BRANCH  22  23
HETATM   23  C8  UNK     1      18.683   4.214  32.681  1.00  0.00    -0.034 A 
HETATM   24  C12 UNK     1      19.173   5.501  32.874  1.00  0.00     0.012 A 
HETATM   25  C14 UNK     1      19.587   6.255  31.776  1.00  0.00     0.043 A 
HETATM   26  C18 UNK     1      19.509   5.716  30.490  1.00  0.00     0.116 A 
HETATM   27  C15 UNK     1      19.017   4.424  30.305  1.00  0.00     0.043 A 
HETATM   28  F1  UNK     1      19.908   6.439  29.437  1.00  0.00    -0.206 F 
HETATM   29  C13 UNK     1      18.602   3.671  31.404  1.00  0.00     0.012 A 
ENDBRANCH  22  23
ENDBRANCH  21  22
ENDBRANCH  15  21
ENDBRANCH   2  12
TORSDOF 6
ENDMDL
MODEL 4
REMARK VINA RESULT:      -8.8      1.469      1.816
REMARK  6 active torsions:
REMARK  status: ('A' for Active; 'I' for Inactive)
REMARK    1  A    between atoms: C1_7  and  O1_4 
REMARK    2  A    between atoms: C4_10  and  O1_4 
REMARK    3  A    between atoms: C3_9  and  O2_5 
REMARK    4  A    between atoms: C2_8  and  C9_15 
REMARK    5  A    between atoms: C4_10  and  C8_14 
REMARK    6  A    between atoms: C10_16  and  C11_17 
ROOT
HETATM    1  N1  UNK     1      17.965   2.665  33.652  1.00  0.00    -0.191 NA
HETATM    2  C9  UNK     1      18.659   4.566  30.860  1.00  0.00     0.036 C 
HETATM    3  C10 UNK     1      18.530   3.252  31.183  1.00  0.00     0.055 C 
HETATM    4  C23 UNK     1      18.218   2.937  32.552  1.00  0.00     0.100 C 
ENDROOT
BRANCH   3   5
HETATM    5  C11 UNK     1      18.683   2.164  30.228  1.00  0.00    -0.015 A 
HETATM    6  C16 UNK     1      17.917   2.146  29.062  1.00  0.00     0.016 A 
HETATM    7  C19 UNK     1      18.063   1.103  28.148  1.00  0.00     0.043 A 
HETATM    8  C21 UNK     1      18.976   0.079  28.399  1.00  0.00     0.116 A 
HETATM    9  C20 UNK     1      19.741   0.097  29.565  1.00  0.00     0.043 A 
HETATM   10  F2  UNK     1      19.116  -0.924  27.522  1.00  0.00    -0.206 F 
HETATM   11  C17 UNK     1      19.595   1.140  30.479  1.00  0.00     0.016 A 
ENDBRANCH   3   5
BRANCH   2  12
HETATM   12  C2  UNK     1      18.506   5.695  31.789  1.00  0.00    -0.015 A 
HETATM   13  C5  UNK     1      17.213   6.043  32.157  1.00  0.00     0.052 A 
HETATM   14  C3  UNK     1      17.010   7.106  33.036  1.00  0.00     0.102 A 
HETATM   15  C1  UNK     1      18.101   7.814  33.540  1.00  0.00     0.103 A 
HETATM   16  C6  UNK     1      19.396   7.457  33.164  1.00  0.00     0.059 A 
HETATM   17  C7  UNK     1      19.599   6.393  32.285  1.00  0.00     0.024 A 
HETATM   18 Br1  UNK     1      21.389   5.961  31.815  1.00  0.00    -0.050 Br
BRANCH  14  19
HETATM   19  O2  UNK     1      15.740   7.445  33.397  1.00  0.00    -0.353 OA
HETATM   20  C22 UNK     1      14.987   8.220  32.466  1.00  0.00     0.210 C 
ENDBRANCH  14  19
BRANCH  15  21
HETATM   21  O1  UNK     1      17.914   8.854  34.399  1.00  0.00    -0.344 OA
BRANCH  21  22
HETATM   22  C4  UNK     1      18.719  10.014  34.197  1.00  0.00     0.214 C 
BRANCH  22  23
HETATM   23  C8  UNK     1      17.828  11.216  34.096  1.00  0.00    -0.034 A 
HETATM   24  C12 UNK     1      16.457  11.076  34.282  1.00  0.00     0.012 A 
HETATM   25  C14 UNK     1      15.629  12.195  34.190  1.00  0.00     0.043 A 
HETATM   26  C18 UNK     1      16.178  13.448  33.911  1.00  0.00     0.116 A 
HETATM   27  C15 UNK     1      17.554  13.580  33.726  1.00  0.00     0.043 A 
HETATM   28  F1  UNK     1      15.384  14.521  33.823  1.00  0.00    -0.206 F 
HETATM   29  C13 UNK     1      18.382  12.461  33.819  1.00  0.00     0.012 A 
ENDBRANCH  22  23
ENDBRANCH  21  22
ENDBRANCH  15  21
ENDBRANCH   2  12
TORSDOF 6
ENDMDL
MODEL 5
REMARK VINA RESULT:      -8.5     18.679     20.601
REMARK  6 active torsions:
REMARK  status: ('A' for Active; 'I' for Inactive)
REMARK    1  A    between atoms: C1_7  and  O1_4 
REMARK    2  A    between atoms: C4_10  and  O1_4 
REMARK    3  A    between atoms: C3_9  and  O2_5 
REMARK    4  A    between atoms: C2_8  and  C9_15 
REMARK    5  A    between atoms: C4_10  and  C8_14 
REMARK    6  A    between atoms: C10_16  and  C11_17 
ROOT
HETATM    1  N1  UNK     1      27.402 -10.369  39.745  1.00  0.00    -0.191 NA
HETATM    2  C9  UNK     1      27.474  -8.730  36.712  1.00  0.00     0.036 C 
HETATM    3  C10 UNK     1      26.673  -9.612  37.367  1.00  0.00     0.055 C 
HETATM    4  C23 UNK     1      27.085 -10.025  38.682  1.00  0.00     0.100 C 
ENDROOT
BRANCH   3   5
HETATM    5  C11 UNK     1      25.436 -10.146  36.816  1.00  0.00    -0.015 A 
HETATM    6  C16 UNK     1      25.405 -11.438  36.294  1.00  0.00     0.016 A 
HETATM    7  C19 UNK     1      24.219 -11.949  35.766  1.00  0.00     0.043 A 
HETATM    8  C21 UNK     1      23.064 -11.166  35.762  1.00  0.00     0.116 A 
HETATM    9  C20 UNK     1      23.096  -9.873  36.285  1.00  0.00     0.043 A 
HETATM   10  F2  UNK     1      21.925 -11.655  35.255  1.00  0.00    -0.206 F 
HETATM   11  C17 UNK     1      24.282  -9.363  36.813  1.00  0.00     0.016 A 
ENDBRANCH   3   5
BRANCH   2  12
HETATM   12  C2  UNK     1      28.726  -8.161  37.231  1.00  0.00    -0.015 A 
HETATM   13  C5  UNK     1      29.909  -8.788  36.862  1.00  0.00     0.052 A 
HETATM   14  C3  UNK     1      31.126  -8.291  37.326  1.00  0.00     0.102 A 
HETATM   15  C1  UNK     1      31.152  -7.171  38.156  1.00  0.00     0.103 A 
HETATM   16  C6  UNK     1      29.958  -6.548  38.523  1.00  0.00     0.059 A 
HETATM   17  C7  UNK     1      28.741  -7.046  38.058  1.00  0.00     0.024 A 
HETATM   18 Br1  UNK     1      27.154  -6.149  38.596  1.00  0.00    -0.050 Br
BRANCH  14  19
HETATM   19  O2  UNK     1      32.286  -8.908  36.961  1.00  0.00    -0.353 OA
HETATM   20  C22 UNK     1      32.647  -8.843  35.583  1.00  0.00     0.210 C 
ENDBRANCH  14  19
BRANCH  15  21
HETATM   21  O1  UNK     1      32.335  -6.677  38.616  1.00  0.00    -0.344 OA
BRANCH  21  22
HETATM   22  C4  UNK     1      32.673  -5.345  38.233  1.00  0.00     0.214 C 
BRANCH  22  23
HETATM   23  C8  UNK     1      33.417  -5.384  36.931  1.00  0.00    -0.034 A 
HETATM   24  C12 UNK     1      32.826  -4.862  35.785  1.00  0.00     0.012 A 
HETATM   25  C14 UNK     1      33.517  -4.897  34.574  1.00  0.00     0.043 A 
HETATM   26  C18 UNK     1      34.796  -5.454  34.516  1.00  0.00     0.116 A 
HETATM   27  C15 UNK     1      35.382  -5.975  35.670  1.00  0.00     0.043 A 
HETATM   28  F1  UNK     1      35.460  -5.487  33.355  1.00  0.00    -0.206 F 
HETATM   29  C13 UNK     1      34.690  -5.940  36.881  1.00  0.00     0.012 A 
ENDBRANCH  22  23
ENDBRANCH  21  22
ENDBRANCH  15  21
ENDBRANCH   2  12
TORSDOF 6
ENDMDL
MODEL 6
REMARK VINA RESULT:      -8.4      7.858     10.524
REMARK  6 active torsions:
REMARK  status: ('A' for Active; 'I' for Inactive)
REMARK    1  A    between atoms: C1_7  and  O1_4 
REMARK    2  A    between atoms: C4_10  and  O1_4 
REMARK    3  A    between atoms: C3_9  and  O2_5 
REMARK    4  A    between atoms: C2_8  and  C9_15 
REMARK    5  A    between atoms: C4_10  and  C8_14 
REMARK    6  A    between atoms: C10_16  and  C11_17 
ROOT
HETATM    1  N1  UNK     1      17.672  -5.400  36.313  1.00  0.00    -0.191 NA
HETATM    2  C9  UNK     1      20.509  -3.518  36.865  1.00  0.00     0.036 C 
HETATM    3  C10 UNK     1      20.017  -4.735  37.220  1.00  0.00     0.055 C 
HETATM    4  C23 UNK     1      18.718  -5.094  36.713  1.00  0.00     0.100 C 
ENDROOT
BRANCH   3   5
HETATM    5  C11 UNK     1      20.728  -5.681  38.066  1.00  0.00    -0.015 A 
HETATM    6  C16 UNK     1      20.032  -6.705  38.707  1.00  0.00     0.016 A 
HETATM    7  C19 UNK     1      20.715  -7.611  39.518  1.00  0.00     0.043 A 
HETATM    8  C21 UNK     1      22.094  -7.493  39.687  1.00  0.00     0.116 A 
HETATM    9  C20 UNK     1      22.791  -6.470  39.045  1.00  0.00     0.043 A 
HETATM   10  F2  UNK     1      22.750  -8.362  40.467  1.00  0.00    -0.206 F 
HETATM   11  C17 UNK     1      22.108  -5.563  38.234  1.00  0.00     0.016 A 
ENDBRANCH   3   5
BRANCH   2  12
HETATM   12  C2  UNK     1      19.828  -2.536  36.009  1.00  0.00    -0.015 A 
HETATM   13  C5  UNK     1      20.167  -2.527  34.661  1.00  0.00     0.052 A 
HETATM   14  C3  UNK     1      19.553  -1.616  33.803  1.00  0.00     0.102 A 
HETATM   15  C1  UNK     1      18.605  -0.720  34.298  1.00  0.00     0.103 A 
HETATM   16  C6  UNK     1      18.273  -0.736  35.653  1.00  0.00     0.059 A 
HETATM   17  C7  UNK     1      18.887  -1.648  36.511  1.00  0.00     0.024 A 
HETATM   18 Br1  UNK     1      18.387  -1.615  38.344  1.00  0.00    -0.050 Br
BRANCH  14  19
HETATM   19  O2  UNK     1      19.886  -1.610  32.481  1.00  0.00    -0.353 OA
HETATM   20  C22 UNK     1      20.919  -2.502  32.070  1.00  0.00     0.210 C 
ENDBRANCH  14  19
BRANCH  15  21
HETATM   21  O1  UNK     1      17.999   0.174  33.469  1.00  0.00    -0.344 OA
BRANCH  21  22
HETATM   22  C4  UNK     1      17.939   1.529  33.909  1.00  0.00     0.214 C 
BRANCH  22  23
HETATM   23  C8  UNK     1      18.232   2.435  32.750  1.00  0.00    -0.034 A 
HETATM   24  C12 UNK     1      18.586   1.888  31.521  1.00  0.00     0.012 A 
HETATM   25  C14 UNK     1      18.857   2.730  30.443  1.00  0.00     0.043 A 
HETATM   26  C18 UNK     1      18.774   4.115  30.600  1.00  0.00     0.116 A 
HETATM   27  C15 UNK     1      18.419   4.655  31.836  1.00  0.00     0.043 A 
HETATM   28  F1  UNK     1      19.033   4.923  29.565  1.00  0.00    -0.206 F 
HETATM   29  C13 UNK     1      18.146   3.812  32.915  1.00  0.00     0.012 A 
ENDBRANCH  22  23
ENDBRANCH  21  22
ENDBRANCH  15  21
ENDBRANCH   2  12
TORSDOF 6
ENDMDL
MODEL 7
REMARK VINA RESULT:      -8.0     22.963     24.729
REMARK  6 active torsions:
REMARK  status: ('A' for Active; 'I' for Inactive)
REMARK    1  A    between atoms: C1_7  and  O1_4 
REMARK    2  A    between atoms: C4_10  and  O1_4 
REMARK    3  A    between atoms: C3_9  and  O2_5 
REMARK    4  A    between atoms: C2_8  and  C9_15 
REMARK    5  A    between atoms: C4_10  and  C8_14 
REMARK    6  A    between atoms: C10_16  and  C11_17 
ROOT
HETATM    1  N1  UNK     1      15.280  10.959   7.542  1.00  0.00    -0.191 NA
HETATM    2  C9  UNK     1      16.826   9.562  10.291  1.00  0.00     0.036 C 
HETATM    3  C10 UNK     1      17.033  10.591   9.427  1.00  0.00     0.055 C 
HETATM    4  C23 UNK     1      16.058  10.786   8.387  1.00  0.00     0.100 C 
ENDROOT
BRANCH   3   5
HETATM    5  C11 UNK     1      18.171  11.497   9.504  1.00  0.00    -0.015 A 
HETATM    6  C16 UNK     1      18.931  11.760   8.366  1.00  0.00     0.016 A 
HETATM    7  C19 UNK     1      20.022  12.627   8.441  1.00  0.00     0.043 A 
HETATM    8  C21 UNK     1      20.349  13.231   9.655  1.00  0.00     0.116 A 
HETATM    9  C20 UNK     1      19.588  12.967  10.793  1.00  0.00     0.043 A 
HETATM   10  F2  UNK     1      21.397  14.062   9.728  1.00  0.00    -0.206 F 
HETATM   11  C17 UNK     1      18.498  12.100  10.718  1.00  0.00     0.016 A 
ENDBRANCH   3   5
BRANCH   2  12
HETATM   12  C2  UNK     1      15.690   8.630  10.254  1.00  0.00    -0.015 A 
HETATM   13  C5  UNK     1      14.440   9.139  10.584  1.00  0.00     0.052 A 
HETATM   14  C3  UNK     1      13.327   8.300  10.566  1.00  0.00     0.102 A 
HETATM   15  C1  UNK     1      13.472   6.957  10.219  1.00  0.00     0.103 A 
HETATM   16  C6  UNK     1      14.731   6.453   9.890  1.00  0.00     0.059 A 
HETATM   17  C7  UNK     1      15.844   7.294   9.907  1.00  0.00     0.024 A 
HETATM   18 Br1  UNK     1      17.528   6.545   9.448  1.00  0.00    -0.050 Br
BRANCH  14  19
HETATM   19  O2  UNK     1      12.102   8.802  10.890  1.00  0.00    -0.353 OA
HETATM   20  C22 UNK     1      11.339   9.378   9.832  1.00  0.00     0.210 C 
ENDBRANCH  14  19
BRANCH  15  21
HETATM   21  O1  UNK     1      12.392   6.127  10.198  1.00  0.00    -0.344 OA
BRANCH  21  22
HETATM   22  C4  UNK     1      12.323   5.180   9.135  1.00  0.00     0.214 C 
BRANCH  22  23
HETATM   23  C8  UNK     1      11.310   5.643   8.130  1.00  0.00    -0.034 A 
HETATM   24  C12 UNK     1       9.986   5.817   8.517  1.00  0.00     0.012 A 
HETATM   25  C14 UNK     1       9.044   6.249   7.583  1.00  0.00     0.043 A 
HETATM   26  C18 UNK     1       9.432   6.504   6.267  1.00  0.00     0.116 A 
HETATM   27  C15 UNK     1      10.763   6.327   5.887  1.00  0.00     0.043 A 
HETATM   28  F1  UNK     1       8.529   6.919   5.371  1.00  0.00    -0.206 F 
HETATM   29  C13 UNK     1      11.705   5.896   6.821  1.00  0.00     0.012 A 
ENDBRANCH  22  23
ENDBRANCH  21  22
ENDBRANCH  15  21
ENDBRANCH   2  12
TORSDOF 6
ENDMDL
MODEL 8
REMARK VINA RESULT:      -8.0     18.080     20.407
REMARK  6 active torsions:
REMARK  status: ('A' for Active; 'I' for Inactive)
REMARK    1  A    between atoms: C1_7  and  O1_4 
REMARK    2  A    between atoms: C4_10  and  O1_4 
REMARK    3  A    between atoms: C3_9  and  O2_5 
REMARK    4  A    between atoms: C2_8  and  C9_15 
REMARK    5  A    between atoms: C4_10  and  C8_14 
REMARK    6  A    between atoms: C10_16  and  C11_17 
ROOT
HETATM    1  N1  UNK     1      27.431 -10.231  39.621  1.00  0.00    -0.191 NA
HETATM    2  C9  UNK     1      27.397  -8.695  36.534  1.00  0.00     0.036 C 
HETATM    3  C10 UNK     1      26.626  -9.563  37.240  1.00  0.00     0.055 C 
HETATM    4  C23 UNK     1      27.080  -9.928  38.557  1.00  0.00     0.100 C 
ENDROOT
BRANCH   3   5
HETATM    5  C11 UNK     1      25.381 -10.129  36.743  1.00  0.00    -0.015 A 
HETATM    6  C16 UNK     1      25.355 -11.432  36.246  1.00  0.00     0.016 A 
HETATM    7  C19 UNK     1      24.161 -11.973  35.770  1.00  0.00     0.043 A 
HETATM    8  C21 UNK     1      22.993 -11.211  35.792  1.00  0.00     0.116 A 
HETATM    9  C20 UNK     1      23.018  -9.909  36.289  1.00  0.00     0.043 A 
HETATM   10  F2  UNK     1      21.846 -11.730  35.333  1.00  0.00    -0.206 F 
HETATM   11  C17 UNK     1      24.213  -9.367  36.766  1.00  0.00     0.016 A 
ENDBRANCH   3   5
BRANCH   2  12
HETATM   12  C2  UNK     1      28.656  -8.095  36.998  1.00  0.00    -0.015 A 
HETATM   13  C5  UNK     1      28.563  -7.056  37.917  1.00  0.00     0.052 A 
HETATM   14  C3  UNK     1      29.725  -6.450  38.391  1.00  0.00     0.102 A 
HETATM   15  C1  UNK     1      30.972  -6.886  37.944  1.00  0.00     0.103 A 
HETATM   16  C6  UNK     1      31.056  -7.929  37.021  1.00  0.00     0.059 A 
HETATM   17  C7  UNK     1      29.893  -8.536  36.546  1.00  0.00     0.024 A 
HETATM   18 Br1  UNK     1      30.079  -9.950  35.292  1.00  0.00    -0.050 Br
BRANCH  14  19
HETATM   19  O2  UNK     1      29.631  -5.432  39.293  1.00  0.00    -0.353 OA
HETATM   20  C22 UNK     1      29.145  -4.182  38.810  1.00  0.00     0.210 C 
ENDBRANCH  14  19
BRANCH  15  21
HETATM   21  O1  UNK     1      32.115  -6.301  38.401  1.00  0.00    -0.344 OA
BRANCH  21  22
HETATM   22  C4  UNK     1      32.514  -5.083  37.776  1.00  0.00     0.214 C 
BRANCH  22  23
HETATM   23  C8  UNK     1      33.454  -5.395  36.649  1.00  0.00    -0.034 A 
HETATM   24  C12 UNK     1      34.713  -5.916  36.927  1.00  0.00     0.012 A 
HETATM   25  C14 UNK     1      35.587  -6.207  35.880  1.00  0.00     0.043 A 
HETATM   26  C18 UNK     1      35.196  -5.975  34.560  1.00  0.00     0.116 A 
HETATM   27  C15 UNK     1      33.932  -5.452  34.289  1.00  0.00     0.043 A 
HETATM   28  F1  UNK     1      36.035  -6.255  33.555  1.00  0.00    -0.206 F 
HETATM   29  C13 UNK     1      33.058  -5.162  35.338  1.00  0.00     0.012 A 
ENDBRANCH  22  23
ENDBRANCH  21  22
ENDBRANCH  15  21
ENDBRANCH   2  12
TORSDOF 6
ENDMDL
MODEL 9
REMARK VINA RESULT:      -7.9     17.279     19.537
REMARK  6 active torsions:
REMARK  status: ('A' for Active; 'I' for Inactive)
REMARK    1  A    between atoms: C1_7  and  O1_4 
REMARK    2  A    between atoms: C4_10  and  O1_4 
REMARK    3  A    between atoms: C3_9  and  O2_5 
REMARK    4  A    between atoms: C2_8  and  C9_15 
REMARK    5  A    between atoms: C4_10  and  C8_14 
REMARK    6  A    between atoms: C10_16  and  C11_17 
ROOT
HETATM    1  N1  UNK     1      26.459  -5.824  39.043  1.00  0.00    -0.191 NA
HETATM    2  C9  UNK     1      25.982  -8.969  37.710  1.00  0.00     0.036 C 
HETATM    3  C10 UNK     1      25.229  -7.972  38.247  1.00  0.00     0.055 C 
HETATM    4  C23 UNK     1      25.918  -6.788  38.685  1.00  0.00     0.100 C 
ENDROOT
BRANCH   3   5
HETATM    5  C11 UNK     1      23.782  -8.038  38.391  1.00  0.00    -0.015 A 
HETATM    6  C16 UNK     1      23.164  -7.455  39.497  1.00  0.00     0.016 A 
HETATM    7  C19 UNK     1      21.777  -7.520  39.635  1.00  0.00     0.043 A 
HETATM    8  C21 UNK     1      21.010  -8.167  38.667  1.00  0.00     0.116 A 
HETATM    9  C20 UNK     1      21.628  -8.750  37.561  1.00  0.00     0.043 A 
HETATM   10  F2  UNK     1      19.678  -8.231  38.799  1.00  0.00    -0.206 F 
HETATM   11  C17 UNK     1      23.015  -8.686  37.423  1.00  0.00     0.016 A 
ENDBRANCH   3   5
BRANCH   2  12
HETATM   12  C2  UNK     1      27.442  -8.941  37.538  1.00  0.00    -0.015 A 
HETATM   13  C5  UNK     1      27.931  -8.401  36.356  1.00  0.00     0.052 A 
HETATM   14  C3  UNK     1      29.308  -8.350  36.140  1.00  0.00     0.102 A 
HETATM   15  C1  UNK     1      30.184  -8.839  37.108  1.00  0.00     0.103 A 
HETATM   16  C6  UNK     1      29.683  -9.381  38.292  1.00  0.00     0.059 A 
HETATM   17  C7  UNK     1      28.306  -9.432  38.508  1.00  0.00     0.024 A 
HETATM   18 Br1  UNK     1      27.692 -10.182  40.142  1.00  0.00    -0.050 Br
BRANCH  14  19
HETATM   19  O2  UNK     1      29.786  -7.818  34.980  1.00  0.00    -0.353 OA
HETATM   20  C22 UNK     1      29.498  -6.444  34.730  1.00  0.00     0.210 C 
ENDBRANCH  14  19
BRANCH  15  21
HETATM   21  O1  UNK     1      31.531  -8.795  36.908  1.00  0.00    -0.344 OA
BRANCH  21  22
HETATM   22  C4  UNK     1      32.295  -8.004  37.816  1.00  0.00     0.214 C 
BRANCH  22  23
HETATM   23  C8  UNK     1      32.138  -6.556  37.458  1.00  0.00    -0.034 A 
HETATM   24  C12 UNK     1      32.854  -6.029  36.389  1.00  0.00     0.012 A 
HETATM   25  C14 UNK     1      32.707  -4.683  36.056  1.00  0.00     0.043 A 
HETATM   26  C18 UNK     1      31.844  -3.871  36.794  1.00  0.00     0.116 A 
HETATM   27  C15 UNK     1      31.129  -4.407  37.865  1.00  0.00     0.043 A 
HETATM   28  F1  UNK     1      31.703  -2.580  36.473  1.00  0.00    -0.206 F 
HETATM   29  C13 UNK     1      31.276  -5.755  38.198  1.00  0.00     0.012 A 
ENDBRANCH  22  23
ENDBRANCH  21  22
ENDBRANCH  15  21
ENDBRANCH   2  12
TORSDOF 6
ENDMDL
MODEL 10
REMARK VINA RESULT:      -7.9     15.575     18.848
REMARK  6 active torsions:
REMARK  status: ('A' for Active; 'I' for Inactive)
REMARK    1  A    between atoms: C1_7  and  O1_4 
REMARK    2  A    between atoms: C4_10  and  O1_4 
REMARK    3  A    between atoms: C3_9  and  O2_5 
REMARK    4  A    between atoms: C2_8  and  C9_15 
REMARK    5  A    between atoms: C4_10  and  C8_14 
REMARK    6  A    between atoms: C10_16  and  C11_17 
ROOT
HETATM    1  N1  UNK     1      29.464  -6.233  34.653  1.00  0.00    -0.191 NA
HETATM    2  C9  UNK     1      30.593  -7.176  37.771  1.00  0.00     0.036 C 
HETATM    3  C10 UNK     1      31.120  -6.813  36.572  1.00  0.00     0.055 C 
HETATM    4  C23 UNK     1      30.195  -6.494  35.515  1.00  0.00     0.100 C 
ENDROOT
BRANCH   3   5
HETATM    5  C11 UNK     1      32.548  -6.725  36.307  1.00  0.00    -0.015 A 
HETATM    6  C16 UNK     1      33.377  -6.022  37.181  1.00  0.00     0.016 A 
HETATM    7  C19 UNK     1      34.746  -5.937  36.926  1.00  0.00     0.043 A 
HETATM    8  C21 UNK     1      35.285  -6.556  35.798  1.00  0.00     0.116 A 
HETATM    9  C20 UNK     1      34.456  -7.259  34.925  1.00  0.00     0.043 A 
HETATM   10  F2  UNK     1      36.599  -6.474  35.553  1.00  0.00    -0.206 F 
HETATM   11  C17 UNK     1      33.087  -7.344  35.180  1.00  0.00     0.016 A 
ENDBRANCH   3   5
BRANCH   2  12
HETATM   12  C2  UNK     1      29.160  -7.272  38.084  1.00  0.00    -0.015 A 
HETATM   13  C5  UNK     1      28.548  -8.503  37.882  1.00  0.00     0.052 A 
HETATM   14  C3  UNK     1      27.190  -8.650  38.162  1.00  0.00     0.102 A 
HETATM   15  C1  UNK     1      26.454  -7.566  38.640  1.00  0.00     0.103 A 
HETATM   16  C6  UNK     1      27.077  -6.334  38.839  1.00  0.00     0.059 A 
HETATM   17  C7  UNK     1      28.436  -6.187  38.559  1.00  0.00     0.024 A 
HETATM   18 Br1  UNK     1      29.222  -4.482  38.852  1.00  0.00    -0.050 Br
BRANCH  14  19
HETATM   19  O2  UNK     1      26.592  -9.859  37.964  1.00  0.00    -0.353 OA
HETATM   20  C22 UNK     1      26.344 -10.246  36.615  1.00  0.00     0.210 C 
ENDBRANCH  14  19
BRANCH  15  21
HETATM   21  O1  UNK     1      25.127  -7.699  38.917  1.00  0.00    -0.344 OA
BRANCH  21  22
HETATM   22  C4  UNK     1      24.384  -6.498  39.119  1.00  0.00     0.214 C 
BRANCH  22  23
HETATM   23  C8  UNK     1      22.919  -6.809  39.033  1.00  0.00    -0.034 A 
HETATM   24  C12 UNK     1      22.056  -5.899  38.433  1.00  0.00     0.012 A 
HETATM   25  C14 UNK     1      20.694  -6.187  38.352  1.00  0.00     0.043 A 
HETATM   26  C18 UNK     1      20.202  -7.385  38.874  1.00  0.00     0.116 A 
HETATM   27  C15 UNK     1      21.074  -8.293  39.476  1.00  0.00     0.043 A 
HETATM   28  F1  UNK     1      18.895  -7.662  38.797  1.00  0.00    -0.206 F 
HETATM   29  C13 UNK     1      22.437  -8.004  39.555  1.00  0.00     0.012 A 
ENDBRANCH  22  23
ENDBRANCH  21  22
ENDBRANCH  15  21
ENDBRANCH   2  12
TORSDOF 6
ENDMDL
