MODEL 1
REMARK VINA RESULT:      -9.2      0.000      0.000
REMARK  7 active torsions:
REMARK  status: ('A' for Active; 'I' for Inactive)
REMARK    1  A    between atoms: C24_31  and  O4_4 
REMARK    2  A    between atoms: C5_12  and  N1_5 
REMARK    3  A    between atoms: C6_13  and  N2_6 
REMARK    4  A    between atoms: C18_25  and  N3_7 
REMARK       I    between atoms: C9_16  and  N3_7 
REMARK    5  A    between atoms: C5_12  and  C7_14 
REMARK    6  A    between atoms: C6_13  and  C9_16 
REMARK    7  A    between atoms: C13_20  and  C17_24 
ROOT
HETATM    1  N1  UNK     1      19.562  -3.504  36.301  1.00  0.00     0.096 N 
HETATM    2  N2  UNK     1      18.886  -0.698  36.447  1.00  0.00     0.100 N 
HETATM    3  C1  UNK     1      20.042  -2.552  35.292  1.00  0.00     0.303 C 
HETATM    4  C2  UNK     1      19.373  -2.833  37.591  1.00  0.00     0.303 C 
HETATM    5  C3  UNK     1      19.074  -1.370  35.155  1.00  0.00     0.303 C 
HETATM    6  C4  UNK     1      18.407  -1.651  37.456  1.00  0.00     0.303 C 
ENDROOT
BRANCH   1   7
HETATM    7  C5  UNK     1      20.487  -4.629  36.431  1.00  0.00     0.312 C 
BRANCH   7   8
HETATM    8  C7  UNK     1      19.781  -5.941  36.428  1.00  0.00    -0.011 A 
HETATM    9  C10 UNK     1      18.710  -6.149  35.649  1.00  0.00     0.092 A 
HETATM   10  C14 UNK     1      17.980  -7.427  35.611  1.00  0.00     0.288 A 
HETATM   11  O1  UNK     1      18.454  -8.439  36.432  1.00  0.00    -0.275 OA
HETATM   12  O3  UNK     1      17.005  -7.581  34.884  1.00  0.00    -0.260 OA
HETATM   13  C11 UNK     1      19.577  -8.250  37.261  1.00  0.00     0.090 A 
HETATM   14  C8  UNK     1      20.258  -7.032  37.287  1.00  0.00     0.007 A 
HETATM   15  C15 UNK     1      19.963  -9.338  38.046  1.00  0.00     0.039 A 
HETATM   16  C12 UNK     1      21.365  -6.925  38.140  1.00  0.00     0.022 A 
HETATM   17  C13 UNK     1      21.766  -8.007  38.932  1.00  0.00    -0.058 A 
HETATM   18  C16 UNK     1      21.066  -9.211  38.886  1.00  0.00     0.010 A 
BRANCH  17  19
HETATM   19  C17 UNK     1      22.947  -7.869  39.833  1.00  0.00     0.034 C 
HETATM   20  C19 UNK     1      24.268  -7.938  39.070  1.00  0.00     0.010 C 
ENDBRANCH  17  19
ENDBRANCH   7   8
ENDBRANCH   1   7
BRANCH   2  21
HETATM   21  C6  UNK     1      17.964   0.428  36.317  1.00  0.00     0.375 C 
BRANCH  21  22
HETATM   22  C9  UNK     1      18.643   1.554  35.556  1.00  0.00     0.250 C 
HETATM   23  N3  UNK     1      17.849   1.961  34.487  1.00  0.00    -0.326 N 
HETATM   24  H15 UNK     1      16.957   1.490  34.353  1.00  0.00     0.169 HD
HETATM   25  O2  UNK     1      19.740   2.000  35.878  1.00  0.00    -0.271 OA
BRANCH  23  26
HETATM   26  C18 UNK     1      18.127   2.979  33.544  1.00  0.00     0.034 A 
HETATM   27  C20 UNK     1      18.223   2.666  32.187  1.00  0.00     0.032 A 
HETATM   28  C22 UNK     1      18.497   3.669  31.258  1.00  0.00     0.039 A 
HETATM   29  C24 UNK     1      18.674   4.985  31.684  1.00  0.00     0.068 A 
HETATM   30  C23 UNK     1      18.577   5.298  33.039  1.00  0.00     0.039 A 
HETATM   31  C21 UNK     1      18.304   4.296  33.970  1.00  0.00     0.032 A 
BRANCH  29  32
HETATM   32  O4  UNK     1      18.938   5.964  30.776  1.00  0.00    -0.356 OA
HETATM   33  C25 UNK     1      20.195   5.904  30.104  1.00  0.00     0.210 C 
ENDBRANCH  29  32
ENDBRANCH  23  26
ENDBRANCH  21  22
ENDBRANCH   2  21
TORSDOF 7
ENDMDL
MODEL 2
REMARK VINA RESULT:      -9.0      5.937      8.851
REMARK  7 active torsions:
REMARK  status: ('A' for Active; 'I' for Inactive)
REMARK    1  A    between atoms: C24_31  and  O4_4 
REMARK    2  A    between atoms: C5_12  and  N1_5 
REMARK    3  A    between atoms: C6_13  and  N2_6 
REMARK    4  A    between atoms: C18_25  and  N3_7 
REMARK       I    between atoms: C9_16  and  N3_7 
REMARK    5  A    between atoms: C5_12  and  C7_14 
REMARK    6  A    between atoms: C6_13  and  C9_16 
REMARK    7  A    between atoms: C13_20  and  C17_24 
ROOT
HETATM    1  N1  UNK     1      18.904   3.632  31.332  1.00  0.00     0.096 N 
HETATM    2  N2  UNK     1      19.205   6.296  32.412  1.00  0.00     0.100 N 
HETATM    3  C1  UNK     1      18.060   4.106  32.435  1.00  0.00     0.303 C 
HETATM    4  C2  UNK     1      19.320   4.755  30.484  1.00  0.00     0.303 C 
HETATM    5  C3  UNK     1      18.790   5.172  33.261  1.00  0.00     0.303 C 
HETATM    6  C4  UNK     1      20.049   5.821  31.309  1.00  0.00     0.303 C 
ENDROOT
BRANCH   1   7
HETATM    7  C5  UNK     1      18.206   2.617  30.544  1.00  0.00     0.312 C 
BRANCH   7   8
HETATM    8  C7  UNK     1      18.943   1.323  30.513  1.00  0.00    -0.011 A 
HETATM    9  C10 UNK     1      19.619   0.938  29.420  1.00  0.00     0.092 A 
HETATM   10  C14 UNK     1      20.362  -0.331  29.341  1.00  0.00     0.288 A 
HETATM   11  O1  UNK     1      20.340  -1.136  30.470  1.00  0.00    -0.275 OA
HETATM   12  O3  UNK     1      20.969  -0.649  28.326  1.00  0.00    -0.260 OA
HETATM   13  C11 UNK     1      19.640  -0.758  31.632  1.00  0.00     0.090 A 
HETATM   14  C8  UNK     1      18.939   0.448  31.692  1.00  0.00     0.007 A 
HETATM   15  C15 UNK     1      19.686  -1.648  32.707  1.00  0.00     0.039 A 
HETATM   16  C12 UNK     1      18.267   0.751  32.884  1.00  0.00     0.022 A 
HETATM   17  C13 UNK     1      18.305  -0.130  33.970  1.00  0.00    -0.058 A 
HETATM   18  C16 UNK     1      19.013  -1.328  33.882  1.00  0.00     0.010 A 
BRANCH  17  19
HETATM   19  C17 UNK     1      17.582   0.213  35.229  1.00  0.00     0.034 C 
HETATM   20  C19 UNK     1      16.065   0.179  35.054  1.00  0.00     0.010 C 
ENDBRANCH  17  19
ENDBRANCH   7   8
ENDBRANCH   1   7
BRANCH   2  21
HETATM   21  C6  UNK     1      19.901   7.311  33.199  1.00  0.00     0.375 C 
BRANCH  21  22
HETATM   22  C9  UNK     1      18.912   8.001  34.124  1.00  0.00     0.250 C 
HETATM   23  N3  UNK     1      17.887   8.584  33.383  1.00  0.00    -0.326 N 
HETATM   24  H15 UNK     1      17.914   8.480  32.371  1.00  0.00     0.169 HD
HETATM   25  O2  UNK     1      19.049   8.018  35.342  1.00  0.00    -0.271 OA
BRANCH  23  26
HETATM   26  C18 UNK     1      16.777   9.315  33.872  1.00  0.00     0.034 A 
HETATM   27  C20 UNK     1      15.536   8.692  34.008  1.00  0.00     0.032 A 
HETATM   28  C22 UNK     1      14.444   9.413  34.490  1.00  0.00     0.039 A 
HETATM   29  C24 UNK     1      14.592  10.755  34.836  1.00  0.00     0.068 A 
HETATM   30  C23 UNK     1      15.832  11.378  34.701  1.00  0.00     0.039 A 
HETATM   31  C21 UNK     1      16.925  10.659  34.218  1.00  0.00     0.032 A 
BRANCH  29  32
HETATM   32  O4  UNK     1      13.525  11.457  35.309  1.00  0.00    -0.356 OA
HETATM   33  C25 UNK     1      12.686  12.091  34.345  1.00  0.00     0.210 C 
ENDBRANCH  29  32
ENDBRANCH  23  26
ENDBRANCH  21  22
ENDBRANCH   2  21
TORSDOF 7
ENDMDL
MODEL 3
REMARK VINA RESULT:      -8.8      2.132     11.533
REMARK  7 active torsions:
REMARK  status: ('A' for Active; 'I' for Inactive)
REMARK    1  A    between atoms: C24_31  and  O4_4 
REMARK    2  A    between atoms: C5_12  and  N1_5 
REMARK    3  A    between atoms: C6_13  and  N2_6 
REMARK    4  A    between atoms: C18_25  and  N3_7 
REMARK       I    between atoms: C9_16  and  N3_7 
REMARK    5  A    between atoms: C5_12  and  C7_14 
REMARK    6  A    between atoms: C6_13  and  C9_16 
REMARK    7  A    between atoms: C13_20  and  C17_24 
ROOT
HETATM    1  N1  UNK     1      17.919   1.472  35.200  1.00  0.00     0.096 N 
HETATM    2  N2  UNK     1      18.254  -1.046  36.578  1.00  0.00     0.100 N 
HETATM    3  C1  UNK     1      17.557   1.324  36.615  1.00  0.00     0.303 C 
HETATM    4  C2  UNK     1      19.005   0.551  34.849  1.00  0.00     0.303 C 
HETATM    5  C3  UNK     1      17.166  -0.125  36.929  1.00  0.00     0.303 C 
HETATM    6  C4  UNK     1      18.615  -0.898  35.163  1.00  0.00     0.303 C 
ENDROOT
BRANCH   1   7
HETATM    7  C5  UNK     1      18.294   2.854  34.903  1.00  0.00     0.312 C 
BRANCH   7   8
HETATM    8  C7  UNK     1      18.309   3.130  33.439  1.00  0.00    -0.011 A 
HETATM    9  C10 UNK     1      18.283   2.131  32.546  1.00  0.00     0.092 A 
HETATM   10  C14 UNK     1      18.297   2.354  31.090  1.00  0.00     0.288 A 
HETATM   11  O1  UNK     1      18.337   3.673  30.663  1.00  0.00    -0.275 OA
HETATM   12  O3  UNK     1      18.270   1.416  30.303  1.00  0.00    -0.260 OA
HETATM   13  C11 UNK     1      18.365   4.744  31.578  1.00  0.00     0.090 A 
HETATM   14  C8  UNK     1      18.352   4.516  32.956  1.00  0.00     0.007 A 
HETATM   15  C15 UNK     1      18.406   6.029  31.035  1.00  0.00     0.039 A 
HETATM   16  C12 UNK     1      18.383   5.634  33.799  1.00  0.00     0.022 A 
HETATM   17  C13 UNK     1      18.424   6.929  33.270  1.00  0.00    -0.058 A 
HETATM   18  C16 UNK     1      18.436   7.126  31.890  1.00  0.00     0.010 A 
BRANCH  17  19
HETATM   19  C17 UNK     1      18.456   8.105  34.187  1.00  0.00     0.034 C 
HETATM   20  C19 UNK     1      19.882   8.542  34.519  1.00  0.00     0.010 C 
ENDBRANCH  17  19
ENDBRANCH   7   8
ENDBRANCH   1   7
BRANCH   2  21
HETATM   21  C6  UNK     1      17.881  -2.427  36.876  1.00  0.00     0.375 C 
BRANCH  21  22
HETATM   22  C9  UNK     1      19.118  -3.307  36.830  1.00  0.00     0.250 C 
HETATM   23  N3  UNK     1      18.765  -4.620  36.527  1.00  0.00    -0.326 N 
HETATM   24  H15 UNK     1      17.780  -4.823  36.374  1.00  0.00     0.169 HD
HETATM   25  O2  UNK     1      20.245  -2.873  37.043  1.00  0.00    -0.271 OA
BRANCH  23  26
HETATM   26  C18 UNK     1      19.625  -5.736  36.393  1.00  0.00     0.034 A 
HETATM   27  C20 UNK     1      20.346  -6.198  37.494  1.00  0.00     0.032 A 
HETATM   28  C22 UNK     1      21.193  -7.299  37.361  1.00  0.00     0.039 A 
HETATM   29  C24 UNK     1      21.319  -7.937  36.128  1.00  0.00     0.068 A 
HETATM   30  C23 UNK     1      20.599  -7.475  35.027  1.00  0.00     0.039 A 
HETATM   31  C21 UNK     1      19.752  -6.375  35.158  1.00  0.00     0.032 A 
BRANCH  29  32
HETATM   32  O4  UNK     1      22.143  -9.012  36.000  1.00  0.00    -0.356 OA
HETATM   33  C25 UNK     1      21.716 -10.058  35.127  1.00  0.00     0.210 C 
ENDBRANCH  29  32
ENDBRANCH  23  26
ENDBRANCH  21  22
ENDBRANCH   2  21
TORSDOF 7
ENDMDL
MODEL 4
REMARK VINA RESULT:      -8.4      1.939     11.669
REMARK  7 active torsions:
REMARK  status: ('A' for Active; 'I' for Inactive)
REMARK    1  A    between atoms: C24_31  and  O4_4 
REMARK    2  A    between atoms: C5_12  and  N1_5 
REMARK    3  A    between atoms: C6_13  and  N2_6 
REMARK    4  A    between atoms: C18_25  and  N3_7 
REMARK       I    between atoms: C9_16  and  N3_7 
REMARK    5  A    between atoms: C5_12  and  C7_14 
REMARK    6  A    between atoms: C6_13  and  C9_16 
REMARK    7  A    between atoms: C13_20  and  C17_24 
ROOT
HETATM    1  N1  UNK     1      18.499   0.917  34.316  1.00  0.00     0.096 N 
HETATM    2  N2  UNK     1      19.309  -1.586  35.514  1.00  0.00     0.100 N 
HETATM    3  C1  UNK     1      18.419  -0.346  33.571  1.00  0.00     0.303 C 
HETATM    4  C2  UNK     1      18.341   0.674  35.754  1.00  0.00     0.303 C 
HETATM    5  C3  UNK     1      19.469  -1.344  34.075  1.00  0.00     0.303 C 
HETATM    6  C4  UNK     1      19.389  -0.324  36.259  1.00  0.00     0.303 C 
ENDROOT
BRANCH   1   7
HETATM    7  C5  UNK     1      17.497   1.866  33.836  1.00  0.00     0.312 C 
BRANCH   7   8
HETATM    8  C7  UNK     1      18.110   3.133  33.347  1.00  0.00    -0.011 A 
HETATM    9  C10 UNK     1      18.461   4.106  34.200  1.00  0.00     0.092 A 
HETATM   10  C14 UNK     1      19.070   5.374  33.765  1.00  0.00     0.288 A 
HETATM   11  O1  UNK     1      19.275   5.531  32.403  1.00  0.00    -0.275 OA
HETATM   12  O3  UNK     1      19.380   6.241  34.575  1.00  0.00    -0.260 OA
HETATM   13  C11 UNK     1      18.917   4.526  31.483  1.00  0.00     0.090 A 
HETATM   14  C8  UNK     1      18.340   3.329  31.911  1.00  0.00     0.007 A 
HETATM   15  C15 UNK     1      19.169   4.794  30.136  1.00  0.00     0.039 A 
HETATM   16  C12 UNK     1      18.012   2.381  30.933  1.00  0.00     0.022 A 
HETATM   17  C13 UNK     1      18.258   2.634  29.579  1.00  0.00    -0.058 A 
HETATM   18  C16 UNK     1      18.836   3.839  29.181  1.00  0.00     0.010 A 
BRANCH  17  19
HETATM   19  C17 UNK     1      17.900   1.609  28.555  1.00  0.00     0.034 C 
HETATM   20  C19 UNK     1      18.897   0.453  28.519  1.00  0.00     0.010 C 
ENDBRANCH  17  19
ENDBRANCH   7   8
ENDBRANCH   1   7
BRANCH   2  21
HETATM   21  C6  UNK     1      20.309  -2.537  35.994  1.00  0.00     0.375 C 
BRANCH  21  22
HETATM   22  C9  UNK     1      19.612  -3.749  36.588  1.00  0.00     0.250 C 
HETATM   23  N3  UNK     1      20.537  -4.756  36.854  1.00  0.00    -0.326 N 
HETATM   24  H15 UNK     1      21.514  -4.569  36.639  1.00  0.00     0.169 HD
HETATM   25  O2  UNK     1      18.401  -3.786  36.779  1.00  0.00    -0.271 OA
BRANCH  23  26
HETATM   26  C18 UNK     1      20.287  -6.034  37.407  1.00  0.00     0.034 A 
HETATM   27  C20 UNK     1      20.029  -7.119  36.568  1.00  0.00     0.032 A 
HETATM   28  C22 UNK     1      19.783  -8.379  37.114  1.00  0.00     0.039 A 
HETATM   29  C24 UNK     1      19.796  -8.555  38.497  1.00  0.00     0.068 A 
HETATM   30  C23 UNK     1      20.055  -7.471  39.335  1.00  0.00     0.039 A 
HETATM   31  C21 UNK     1      20.300  -6.210  38.791  1.00  0.00     0.032 A 
BRANCH  29  32
HETATM   32  O4  UNK     1      19.559  -9.785  39.028  1.00  0.00    -0.356 OA
HETATM   33  C25 UNK     1      19.595 -10.897  38.134  1.00  0.00     0.210 C 
ENDBRANCH  29  32
ENDBRANCH  23  26
ENDBRANCH  21  22
ENDBRANCH   2  21
TORSDOF 7
ENDMDL
MODEL 5
REMARK VINA RESULT:      -8.3      8.012     12.746
REMARK  7 active torsions:
REMARK  status: ('A' for Active; 'I' for Inactive)
REMARK    1  A    between atoms: C24_31  and  O4_4 
REMARK    2  A    between atoms: C5_12  and  N1_5 
REMARK    3  A    between atoms: C6_13  and  N2_6 
REMARK    4  A    between atoms: C18_25  and  N3_7 
REMARK       I    between atoms: C9_16  and  N3_7 
REMARK    5  A    between atoms: C5_12  and  C7_14 
REMARK    6  A    between atoms: C6_13  and  C9_16 
REMARK    7  A    between atoms: C13_20  and  C17_24 
ROOT
HETATM    1  N1  UNK     1      29.270  -6.448  37.337  1.00  0.00     0.096 N 
HETATM    2  N2  UNK     1      26.679  -7.294  38.299  1.00  0.00     0.100 N 
HETATM    3  C1  UNK     1      28.178  -6.762  36.408  1.00  0.00     0.303 C 
HETATM    4  C2  UNK     1      28.734  -5.959  38.612  1.00  0.00     0.303 C 
HETATM    5  C3  UNK     1      27.215  -7.785  37.024  1.00  0.00     0.303 C 
HETATM    6  C4  UNK     1      27.771  -6.980  39.228  1.00  0.00     0.303 C 
ENDROOT
BRANCH   1   7
HETATM    7  C5  UNK     1      30.186  -5.472  36.750  1.00  0.00     0.312 C 
BRANCH   7   8
HETATM    8  C7  UNK     1      31.494  -6.079  36.378  1.00  0.00    -0.011 A 
HETATM    9  C10 UNK     1      32.424  -6.340  37.308  1.00  0.00     0.092 A 
HETATM   10  C14 UNK     1      33.731  -6.939  36.990  1.00  0.00     0.288 A 
HETATM   11  O1  UNK     1      33.973  -7.235  35.657  1.00  0.00    -0.275 OA
HETATM   12  O3  UNK     1      34.557  -7.165  37.867  1.00  0.00    -0.260 OA
HETATM   13  C11 UNK     1      33.014  -6.973  34.658  1.00  0.00     0.090 A 
HETATM   14  C8  UNK     1      31.780  -6.404  34.975  1.00  0.00     0.007 A 
HETATM   15  C15 UNK     1      33.367  -7.311  33.351  1.00  0.00     0.039 A 
HETATM   16  C12 UNK     1      30.882  -6.173  33.925  1.00  0.00     0.022 A 
HETATM   17  C13 UNK     1      31.220  -6.507  32.608  1.00  0.00    -0.058 A 
HETATM   18  C16 UNK     1      32.460  -7.074  32.321  1.00  0.00     0.010 A 
BRANCH  17  19
HETATM   19  C17 UNK     1      30.248  -6.253  31.505  1.00  0.00     0.034 C 
HETATM   20  C19 UNK     1      29.748  -4.809  31.494  1.00  0.00     0.010 C 
ENDBRANCH  17  19
ENDBRANCH   7   8
ENDBRANCH   1   7
BRANCH   2  21
HETATM   21  C6  UNK     1      25.762  -8.268  38.887  1.00  0.00     0.375 C 
BRANCH  21  22
HETATM   22  C9  UNK     1      24.329  -7.822  38.650  1.00  0.00     0.250 C 
HETATM   23  N3  UNK     1      23.621  -8.813  37.974  1.00  0.00    -0.326 N 
HETATM   24  H15 UNK     1      24.115  -9.671  37.739  1.00  0.00     0.169 HD
HETATM   25  O2  UNK     1      23.909  -6.730  39.018  1.00  0.00    -0.271 OA
BRANCH  23  26
HETATM   26  C18 UNK     1      22.265  -8.782  37.570  1.00  0.00     0.034 A 
HETATM   27  C20 UNK     1      21.254  -9.029  38.500  1.00  0.00     0.032 A 
HETATM   28  C22 UNK     1      19.918  -8.997  38.101  1.00  0.00     0.039 A 
HETATM   29  C24 UNK     1      19.593  -8.718  36.774  1.00  0.00     0.068 A 
HETATM   30  C23 UNK     1      20.602  -8.471  35.845  1.00  0.00     0.039 A 
HETATM   31  C21 UNK     1      21.939  -8.503  36.242  1.00  0.00     0.032 A 
BRANCH  29  32
HETATM   32  O4  UNK     1      18.288  -8.685  36.386  1.00  0.00    -0.356 OA
HETATM   33  C25 UNK     1      17.871  -7.564  35.608  1.00  0.00     0.210 C 
ENDBRANCH  29  32
ENDBRANCH  23  26
ENDBRANCH  21  22
ENDBRANCH   2  21
TORSDOF 7
ENDMDL
MODEL 6
REMARK VINA RESULT:      -8.3     12.149     16.891
REMARK  7 active torsions:
REMARK  status: ('A' for Active; 'I' for Inactive)
REMARK    1  A    between atoms: C24_31  and  O4_4 
REMARK    2  A    between atoms: C5_12  and  N1_5 
REMARK    3  A    between atoms: C6_13  and  N2_6 
REMARK    4  A    between atoms: C18_25  and  N3_7 
REMARK       I    between atoms: C9_16  and  N3_7 
REMARK    5  A    between atoms: C5_12  and  C7_14 
REMARK    6  A    between atoms: C6_13  and  C9_16 
REMARK    7  A    between atoms: C13_20  and  C17_24 
ROOT
HETATM    1  N1  UNK     1      31.943  -5.957  35.888  1.00  0.00     0.096 N 
HETATM    2  N2  UNK     1      34.538  -6.706  34.859  1.00  0.00     0.100 N 
HETATM    3  C1  UNK     1      32.754  -5.015  35.106  1.00  0.00     0.303 C 
HETATM    4  C2  UNK     1      32.235  -7.339  35.489  1.00  0.00     0.303 C 
HETATM    5  C3  UNK     1      34.248  -5.324  35.260  1.00  0.00     0.303 C 
HETATM    6  C4  UNK     1      33.728  -7.648  35.641  1.00  0.00     0.303 C 
ENDROOT
BRANCH   1   7
HETATM    7  C5  UNK     1      30.519  -5.663  35.739  1.00  0.00     0.312 C 
BRANCH   7   8
HETATM    8  C7  UNK     1      29.816  -5.604  37.051  1.00  0.00    -0.011 A 
HETATM    9  C10 UNK     1      30.047  -4.606  37.915  1.00  0.00     0.092 A 
HETATM   10  C14 UNK     1      29.378  -4.505  39.223  1.00  0.00     0.288 A 
HETATM   11  O1  UNK     1      28.471  -5.505  39.537  1.00  0.00    -0.275 OA
HETATM   12  O3  UNK     1      29.613  -3.576  39.987  1.00  0.00    -0.260 OA
HETATM   13  C11 UNK     1      28.207  -6.566  38.648  1.00  0.00     0.090 A 
HETATM   14  C8  UNK     1      28.851  -6.650  37.413  1.00  0.00     0.007 A 
HETATM   15  C15 UNK     1      27.277  -7.518  39.071  1.00  0.00     0.039 A 
HETATM   16  C12 UNK     1      28.534  -7.736  36.587  1.00  0.00     0.022 A 
HETATM   17  C13 UNK     1      27.603  -8.698  36.996  1.00  0.00    -0.058 A 
HETATM   18  C16 UNK     1      26.975  -8.589  38.236  1.00  0.00     0.010 A 
BRANCH  17  19
HETATM   19  C17 UNK     1      27.281  -9.847  36.100  1.00  0.00     0.034 C 
HETATM   20  C19 UNK     1      26.030 -10.599  36.549  1.00  0.00     0.010 C 
ENDBRANCH  17  19
ENDBRANCH   7   8
ENDBRANCH   1   7
BRANCH   2  21
HETATM   21  C6  UNK     1      35.963  -7.000  35.006  1.00  0.00     0.375 C 
BRANCH  21  22
HETATM   22  C9  UNK     1      36.523  -7.465  33.673  1.00  0.00     0.250 C 
HETATM   23  N3  UNK     1      36.824  -8.824  33.723  1.00  0.00    -0.326 N 
HETATM   24  H15 UNK     1      36.637  -9.318  34.593  1.00  0.00     0.169 HD
HETATM   25  O2  UNK     1      36.675  -6.707  32.720  1.00  0.00    -0.271 OA
BRANCH  23  26
HETATM   26  C18 UNK     1      37.362  -9.628  32.690  1.00  0.00     0.034 A 
HETATM   27  C20 UNK     1      36.701  -9.724  31.465  1.00  0.00     0.032 A 
HETATM   28  C22 UNK     1      37.232 -10.516  30.447  1.00  0.00     0.039 A 
HETATM   29  C24 UNK     1      38.423 -11.211  30.654  1.00  0.00     0.068 A 
HETATM   30  C23 UNK     1      39.084 -11.115  31.878  1.00  0.00     0.039 A 
HETATM   31  C21 UNK     1      38.554 -10.324  32.897  1.00  0.00     0.032 A 
BRANCH  29  32
HETATM   32  O4  UNK     1      38.942 -11.982  29.659  1.00  0.00    -0.356 OA
HETATM   33  C25 UNK     1      40.096 -11.481  28.985  1.00  0.00     0.210 C 
ENDBRANCH  29  32
ENDBRANCH  23  26
ENDBRANCH  21  22
ENDBRANCH   2  21
TORSDOF 7
ENDMDL
MODEL 7
REMARK VINA RESULT:      -8.2      7.445     11.936
REMARK  7 active torsions:
REMARK  status: ('A' for Active; 'I' for Inactive)
REMARK    1  A    between atoms: C24_31  and  O4_4 
REMARK    2  A    between atoms: C5_12  and  N1_5 
REMARK    3  A    between atoms: C6_13  and  N2_6 
REMARK    4  A    between atoms: C18_25  and  N3_7 
REMARK       I    between atoms: C9_16  and  N3_7 
REMARK    5  A    between atoms: C5_12  and  C7_14 
REMARK    6  A    between atoms: C6_13  and  C9_16 
REMARK    7  A    between atoms: C13_20  and  C17_24 
ROOT
HETATM    1  N1  UNK     1      28.454  -8.967  35.900  1.00  0.00     0.096 N 
HETATM    2  N2  UNK     1      26.192  -8.497  37.636  1.00  0.00     0.100 N 
HETATM    3  C1  UNK     1      27.381  -9.959  36.038  1.00  0.00     0.303 C 
HETATM    4  C2  UNK     1      27.933  -7.613  36.122  1.00  0.00     0.303 C 
HETATM    5  C3  UNK     1      26.714  -9.851  37.415  1.00  0.00     0.303 C 
HETATM    6  C4  UNK     1      27.265  -7.505  37.497  1.00  0.00     0.303 C 
ENDROOT
BRANCH   1   7
HETATM    7  C5  UNK     1      29.088  -9.069  34.587  1.00  0.00     0.312 C 
BRANCH   7   8
HETATM    8  C7  UNK     1      29.826  -7.829  34.220  1.00  0.00    -0.011 A 
HETATM    9  C10 UNK     1      30.830  -7.370  34.982  1.00  0.00     0.092 A 
HETATM   10  C14 UNK     1      31.588  -6.150  34.660  1.00  0.00     0.288 A 
HETATM   11  O1  UNK     1      31.221  -5.473  33.507  1.00  0.00    -0.275 OA
HETATM   12  O3  UNK     1      32.501  -5.760  35.380  1.00  0.00    -0.260 OA
HETATM   13  C11 UNK     1      30.171  -5.932  32.686  1.00  0.00     0.090 A 
HETATM   14  C8  UNK     1      29.460  -7.090  33.005  1.00  0.00     0.007 A 
HETATM   15  C15 UNK     1      29.887  -5.170  31.552  1.00  0.00     0.039 A 
HETATM   16  C12 UNK     1      28.430  -7.479  32.138  1.00  0.00     0.022 A 
HETATM   17  C13 UNK     1      28.134  -6.726  30.996  1.00  0.00    -0.058 A 
HETATM   18  C16 UNK     1      28.861  -5.573  30.703  1.00  0.00     0.010 A 
BRANCH  17  19
HETATM   19  C17 UNK     1      27.032  -7.159  30.087  1.00  0.00     0.034 C 
HETATM   20  C19 UNK     1      25.695  -6.517  30.451  1.00  0.00     0.010 C 
ENDBRANCH  17  19
ENDBRANCH   7   8
ENDBRANCH   1   7
BRANCH   2  21
HETATM   21  C6  UNK     1      25.556  -8.394  38.948  1.00  0.00     0.375 C 
BRANCH  21  22
HETATM   22  C9  UNK     1      24.279  -7.579  38.829  1.00  0.00     0.250 C 
HETATM   23  N3  UNK     1      23.208  -8.406  38.501  1.00  0.00    -0.326 N 
HETATM   24  H15 UNK     1      23.393  -9.401  38.394  1.00  0.00     0.169 HD
HETATM   25  O2  UNK     1      24.253  -6.365  39.001  1.00  0.00    -0.271 OA
BRANCH  23  26
HETATM   26  C18 UNK     1      21.858  -8.032  38.302  1.00  0.00     0.034 A 
HETATM   27  C20 UNK     1      21.035  -7.776  39.400  1.00  0.00     0.032 A 
HETATM   28  C22 UNK     1      19.705  -7.407  39.203  1.00  0.00     0.039 A 
HETATM   29  C24 UNK     1      19.197  -7.292  37.910  1.00  0.00     0.068 A 
HETATM   30  C23 UNK     1      20.018  -7.547  36.812  1.00  0.00     0.039 A 
HETATM   31  C21 UNK     1      21.349  -7.917  37.008  1.00  0.00     0.032 A 
BRANCH  29  32
HETATM   32  O4  UNK     1      17.899  -6.929  37.718  1.00  0.00    -0.356 OA
HETATM   33  C25 UNK     1      17.539  -6.466  36.417  1.00  0.00     0.210 C 
ENDBRANCH  29  32
ENDBRANCH  23  26
ENDBRANCH  21  22
ENDBRANCH   2  21
TORSDOF 7
ENDMDL
MODEL 8
REMARK VINA RESULT:      -8.1     26.130     29.762
REMARK  7 active torsions:
REMARK  status: ('A' for Active; 'I' for Inactive)
REMARK    1  A    between atoms: C24_31  and  O4_4 
REMARK    2  A    between atoms: C5_12  and  N1_5 
REMARK    3  A    between atoms: C6_13  and  N2_6 
REMARK    4  A    between atoms: C18_25  and  N3_7 
REMARK       I    between atoms: C9_16  and  N3_7 
REMARK    5  A    between atoms: C5_12  and  C7_14 
REMARK    6  A    between atoms: C6_13  and  C9_16 
REMARK    7  A    between atoms: C13_20  and  C17_24 
ROOT
HETATM    1  N1  UNK     1      11.918   7.204   7.333  1.00  0.00     0.096 N 
HETATM    2  N2  UNK     1       9.546   5.823   8.237  1.00  0.00     0.100 N 
HETATM    3  C1  UNK     1      11.669   6.972   8.761  1.00  0.00     0.303 C 
HETATM    4  C2  UNK     1      11.298   6.147   6.526  1.00  0.00     0.303 C 
HETATM    5  C3  UNK     1      10.165   6.881   9.044  1.00  0.00     0.303 C 
HETATM    6  C4  UNK     1       9.795   6.055   6.809  1.00  0.00     0.303 C 
ENDROOT
BRANCH   1   7
HETATM    7  C5  UNK     1      13.353   7.288   7.065  1.00  0.00     0.312 C 
BRANCH   7   8
HETATM    8  C7  UNK     1      14.171   6.897   8.246  1.00  0.00    -0.011 A 
HETATM    9  C10 UNK     1      14.451   5.610   8.498  1.00  0.00     0.092 A 
HETATM   10  C14 UNK     1      15.255   5.174   9.653  1.00  0.00     0.288 A 
HETATM   11  O1  UNK     1      15.728   6.170  10.494  1.00  0.00    -0.275 OA
HETATM   12  O3  UNK     1      15.492   3.988   9.851  1.00  0.00    -0.260 OA
HETATM   13  C11 UNK     1      15.450   7.530  10.254  1.00  0.00     0.090 A 
HETATM   14  C8  UNK     1      14.686   7.928   9.156  1.00  0.00     0.007 A 
HETATM   15  C15 UNK     1      15.977   8.445  11.167  1.00  0.00     0.039 A 
HETATM   16  C12 UNK     1      14.454   9.299   8.988  1.00  0.00     0.022 A 
HETATM   17  C13 UNK     1      14.976  10.230   9.895  1.00  0.00    -0.058 A 
HETATM   18  C16 UNK     1      15.736   9.803  10.983  1.00  0.00     0.010 A 
BRANCH  17  19
HETATM   19  C17 UNK     1      14.716  11.685   9.697  1.00  0.00     0.034 C 
HETATM   20  C19 UNK     1      15.404  12.232   8.448  1.00  0.00     0.010 C 
ENDBRANCH  17  19
ENDBRANCH   7   8
ENDBRANCH   1   7
BRANCH   2  21
HETATM   21  C6  UNK     1       8.112   5.737   8.507  1.00  0.00     0.375 C 
BRANCH  21  22
HETATM   22  C9  UNK     1       7.864   4.723   9.610  1.00  0.00     0.250 C 
HETATM   23  N3  UNK     1       6.662   4.999  10.258  1.00  0.00    -0.326 N 
HETATM   24  H15 UNK     1       6.120   5.796   9.931  1.00  0.00     0.169 HD
HETATM   25  O2  UNK     1       8.647   3.812   9.858  1.00  0.00    -0.271 OA
BRANCH  23  26
HETATM   26  C18 UNK     1       6.079   4.290  11.335  1.00  0.00     0.034 A 
HETATM   27  C20 UNK     1       6.043   4.861  12.608  1.00  0.00     0.032 A 
HETATM   28  C22 UNK     1       5.468   4.162  13.669  1.00  0.00     0.039 A 
HETATM   29  C24 UNK     1       4.929   2.893  13.458  1.00  0.00     0.068 A 
HETATM   30  C23 UNK     1       4.964   2.323  12.186  1.00  0.00     0.039 A 
HETATM   31  C21 UNK     1       5.540   3.021  11.124  1.00  0.00     0.032 A 
BRANCH  29  32
HETATM   32  O4  UNK     1       4.365   2.213  14.493  1.00  0.00    -0.356 OA
HETATM   33  C25 UNK     1       5.244   1.729  15.508  1.00  0.00     0.210 C 
ENDBRANCH  29  32
ENDBRANCH  23  26
ENDBRANCH  21  22
ENDBRANCH   2  21
TORSDOF 7
ENDMDL
MODEL 9
REMARK VINA RESULT:      -8.1      7.543     12.478
REMARK  7 active torsions:
REMARK  status: ('A' for Active; 'I' for Inactive)
REMARK    1  A    between atoms: C24_31  and  O4_4 
REMARK    2  A    between atoms: C5_12  and  N1_5 
REMARK    3  A    between atoms: C6_13  and  N2_6 
REMARK    4  A    between atoms: C18_25  and  N3_7 
REMARK       I    between atoms: C9_16  and  N3_7 
REMARK    5  A    between atoms: C5_12  and  C7_14 
REMARK    6  A    between atoms: C6_13  and  C9_16 
REMARK    7  A    between atoms: C13_20  and  C17_24 
ROOT
HETATM    1  N1  UNK     1      29.689  -8.828  37.620  1.00  0.00     0.096 N 
HETATM    2  N2  UNK     1      26.814  -8.916  37.345  1.00  0.00     0.100 N 
HETATM    3  C1  UNK     1      29.010  -8.159  36.504  1.00  0.00     0.303 C 
HETATM    4  C2  UNK     1      28.813  -8.882  38.796  1.00  0.00     0.303 C 
HETATM    5  C3  UNK     1      27.690  -8.863  36.169  1.00  0.00     0.303 C 
HETATM    6  C4  UNK     1      27.493  -9.585  38.461  1.00  0.00     0.303 C 
ENDROOT
BRANCH   1   7
HETATM    7  C5  UNK     1      30.946  -8.154  37.940  1.00  0.00     0.312 C 
BRANCH   7   8
HETATM    8  C7  UNK     1      30.810  -6.671  37.925  1.00  0.00    -0.011 A 
HETATM    9  C10 UNK     1      29.973  -6.045  38.765  1.00  0.00     0.092 A 
HETATM   10  C14 UNK     1      29.803  -4.583  38.789  1.00  0.00     0.288 A 
HETATM   11  O1  UNK     1      30.563  -3.853  37.887  1.00  0.00    -0.275 OA
HETATM   12  O3  UNK     1      29.030  -4.045  39.572  1.00  0.00    -0.260 OA
HETATM   13  C11 UNK     1      31.451  -4.483  36.993  1.00  0.00     0.090 A 
HETATM   14  C8  UNK     1      31.600  -5.871  36.981  1.00  0.00     0.007 A 
HETATM   15  C15 UNK     1      32.164  -3.649  36.129  1.00  0.00     0.039 A 
HETATM   16  C12 UNK     1      32.503  -6.420  36.061  1.00  0.00     0.022 A 
HETATM   17  C13 UNK     1      33.225  -5.597  35.189  1.00  0.00    -0.058 A 
HETATM   18  C16 UNK     1      33.056  -4.214  35.222  1.00  0.00     0.010 A 
BRANCH  17  19
HETATM   19  C17 UNK     1      34.181  -6.204  34.217  1.00  0.00     0.034 C 
HETATM   20  C19 UNK     1      35.604  -6.270  34.768  1.00  0.00     0.010 C 
ENDBRANCH  17  19
ENDBRANCH   7   8
ENDBRANCH   1   7
BRANCH   2  21
HETATM   21  C6  UNK     1      25.555  -9.588  37.026  1.00  0.00     0.375 C 
BRANCH  21  22
HETATM   22  C9  UNK     1      24.391  -8.729  37.490  1.00  0.00     0.250 C 
HETATM   23  N3  UNK     1      23.200  -9.192  36.935  1.00  0.00    -0.326 N 
HETATM   24  H15 UNK     1      23.246 -10.006  36.327  1.00  0.00     0.169 HD
HETATM   25  O2  UNK     1      24.536  -7.771  38.242  1.00  0.00    -0.271 OA
BRANCH  23  26
HETATM   26  C18 UNK     1      21.900  -8.665  37.121  1.00  0.00     0.034 A 
HETATM   27  C20 UNK     1      21.229  -8.068  36.052  1.00  0.00     0.032 A 
HETATM   28  C22 UNK     1      19.948  -7.550  36.235  1.00  0.00     0.039 A 
HETATM   29  C24 UNK     1      19.336  -7.629  37.486  1.00  0.00     0.068 A 
HETATM   30  C23 UNK     1      20.005  -8.226  38.554  1.00  0.00     0.039 A 
HETATM   31  C21 UNK     1      21.287  -8.744  38.372  1.00  0.00     0.032 A 
BRANCH  29  32
HETATM   32  O4  UNK     1      18.083  -7.126  37.663  1.00  0.00    -0.356 OA
HETATM   33  C25 UNK     1      17.500  -6.432  36.561  1.00  0.00     0.210 C 
ENDBRANCH  29  32
ENDBRANCH  23  26
ENDBRANCH  21  22
ENDBRANCH   2  21
TORSDOF 7
ENDMDL
MODEL 10
REMARK VINA RESULT:      -8.1      3.407     10.982
REMARK  7 active torsions:
REMARK  status: ('A' for Active; 'I' for Inactive)
REMARK    1  A    between atoms: C24_31  and  O4_4 
REMARK    2  A    between atoms: C5_12  and  N1_5 
REMARK    3  A    between atoms: C6_13  and  N2_6 
REMARK    4  A    between atoms: C18_25  and  N3_7 
REMARK       I    between atoms: C9_16  and  N3_7 
REMARK    5  A    between atoms: C5_12  and  C7_14 
REMARK    6  A    between atoms: C6_13  and  C9_16 
REMARK    7  A    between atoms: C13_20  and  C17_24 
ROOT
HETATM    1  N1  UNK     1      20.349  -4.470  36.827  1.00  0.00     0.096 N 
HETATM    2  N2  UNK     1      20.601  -7.139  37.909  1.00  0.00     0.100 N 
HETATM    3  C1  UNK     1      19.215  -5.402  36.828  1.00  0.00     0.303 C 
HETATM    4  C2  UNK     1      21.247  -4.754  37.952  1.00  0.00     0.303 C 
HETATM    5  C3  UNK     1      19.703  -6.855  36.782  1.00  0.00     0.303 C 
HETATM    6  C4  UNK     1      21.735  -6.207  37.908  1.00  0.00     0.303 C 
ENDROOT
BRANCH   1   7
HETATM    7  C5  UNK     1      19.882  -3.086  36.872  1.00  0.00     0.312 C 
BRANCH   7   8
HETATM    8  C7  UNK     1      19.800  -2.475  35.516  1.00  0.00    -0.011 A 
HETATM    9  C10 UNK     1      20.459  -3.006  34.477  1.00  0.00     0.092 A 
HETATM   10  C14 UNK     1      20.409  -2.438  33.119  1.00  0.00     0.288 A 
HETATM   11  O1  UNK     1      19.631  -1.304  32.947  1.00  0.00    -0.275 OA
HETATM   12  O3  UNK     1      21.024  -2.952  32.192  1.00  0.00    -0.260 OA
HETATM   13  C11 UNK     1      18.926  -0.724  34.020  1.00  0.00     0.090 A 
HETATM   14  C8  UNK     1      18.984  -1.273  35.302  1.00  0.00     0.007 A 
HETATM   15  C15 UNK     1      18.176   0.417  33.730  1.00  0.00     0.039 A 
HETATM   16  C12 UNK     1      18.255  -0.636  36.315  1.00  0.00     0.022 A 
HETATM   17  C13 UNK     1      17.498   0.509  36.041  1.00  0.00    -0.058 A 
HETATM   18  C16 UNK     1      17.459   1.035  34.751  1.00  0.00     0.010 A 
BRANCH  17  19
HETATM   19  C17 UNK     1      16.730   1.170  37.135  1.00  0.00     0.034 C 
HETATM   20  C19 UNK     1      17.563   1.345  38.404  1.00  0.00     0.010 C 
ENDBRANCH  17  19
ENDBRANCH   7   8
ENDBRANCH   1   7
BRANCH   2  21
HETATM   21  C6  UNK     1      21.067  -8.523  37.865  1.00  0.00     0.375 C 
BRANCH  21  22
HETATM   22  C9  UNK     1      22.410  -8.583  37.158  1.00  0.00     0.250 C 
HETATM   23  N3  UNK     1      23.439  -8.716  38.087  1.00  0.00    -0.326 N 
HETATM   24  H15 UNK     1      23.185  -8.762  39.071  1.00  0.00     0.169 HD
HETATM   25  O2  UNK     1      22.517  -8.514  35.938  1.00  0.00    -0.271 OA
BRANCH  23  26
HETATM   26  C18 UNK     1      24.828  -8.807  37.830  1.00  0.00     0.034 A 
HETATM   27  C20 UNK     1      25.721  -7.991  38.525  1.00  0.00     0.032 A 
HETATM   28  C22 UNK     1      27.089  -8.081  38.272  1.00  0.00     0.039 A 
HETATM   29  C24 UNK     1      27.565  -8.987  37.325  1.00  0.00     0.068 A 
HETATM   30  C23 UNK     1      26.673  -9.803  36.630  1.00  0.00     0.039 A 
HETATM   31  C21 UNK     1      25.304  -9.713  36.882  1.00  0.00     0.032 A 
BRANCH  29  32
HETATM   32  O4  UNK     1      28.901  -9.077  37.080  1.00  0.00    -0.356 OA
HETATM   33  C25 UNK     1      29.751  -9.320  38.200  1.00  0.00     0.210 C 
ENDBRANCH  29  32
ENDBRANCH  23  26
ENDBRANCH  21  22
ENDBRANCH   2  21
TORSDOF 7
ENDMDL
