MODEL 1
REMARK VINA RESULT:      -7.4      0.000      0.000
REMARK  3 active torsions:
REMARK  status: ('A' for Active; 'I' for Inactive)
REMARK    1  A    between atoms: C12_16  and  O3_3 
REMARK    2  A    between atoms: C7_11  and  O3_3 
REMARK    3  A    between atoms: C12_16  and  C13_17 
ROOT
HETATM    1  O1  UNK     1      19.356   1.245  15.106  1.00  0.00    -0.275 OA
HETATM    2  O2  UNK     1      18.915  -3.165  13.180  1.00  0.00    -0.322 OA
HETATM    3  O4  UNK     1      19.552   3.303  16.089  1.00  0.00    -0.260 OA
HETATM    4  C1  UNK     1      18.919  -0.717  16.493  1.00  0.00     0.032 A 
HETATM    5  C2  UNK     1      18.715  -2.884  15.412  1.00  0.00     0.001 A 
HETATM    6  C3  UNK     1      19.138  -0.147  15.237  1.00  0.00     0.095 A 
HETATM    7  C4  UNK     1      18.940  -2.254  14.193  1.00  0.00     0.087 A 
HETATM    8  C5  UNK     1      18.704  -2.104  16.587  1.00  0.00     0.031 A 
HETATM    9  C6  UNK     1      19.156  -0.887  14.048  1.00  0.00     0.076 A 
HETATM   10  C7  UNK     1      18.924   0.165  17.660  1.00  0.00     0.088 A 
HETATM   11  C8  UNK     1      18.545  -4.261  15.109  1.00  0.00     0.039 A 
HETATM   12  C9  UNK     1      19.131   1.479  17.520  1.00  0.00     0.120 A 
HETATM   13  C10 UNK     1      18.675  -4.376  13.744  1.00  0.00     0.143 A 
HETATM   14  C11 UNK     1      19.363   2.097  16.203  1.00  0.00     0.290 A 
ENDROOT
BRANCH  10  15
HETATM   15  O3  UNK     1      18.709  -0.427  18.884  1.00  0.00    -0.346 OA
BRANCH  15  16
HETATM   16  C12 UNK     1      18.315   0.533  19.846  1.00  0.00     0.202 C 
BRANCH  16  17
HETATM   17  C13 UNK     1      19.413   0.691  20.845  1.00  0.00    -0.011 C 
HETATM   18  C14 UNK     1      19.748   1.856  21.410  1.00  0.00     0.009 C 
ENDBRANCH  16  17
ENDBRANCH  15  16
ENDBRANCH  10  15
TORSDOF 3
ENDMDL
MODEL 2
REMARK VINA RESULT:      -7.3     13.528     18.175
REMARK  3 active torsions:
REMARK  status: ('A' for Active; 'I' for Inactive)
REMARK    1  A    between atoms: C12_16  and  O3_3 
REMARK    2  A    between atoms: C7_11  and  O3_3 
REMARK    3  A    between atoms: C12_16  and  C13_17 
ROOT
HETATM    1  O1  UNK     1      20.244  -2.515  34.125  1.00  0.00    -0.275 OA
HETATM    2  O2  UNK     1      18.002  -0.274  37.772  1.00  0.00    -0.322 OA
HETATM    3  O4  UNK     1      21.273  -3.525  32.347  1.00  0.00    -0.260 OA
HETATM    4  C1  UNK     1      18.823  -0.565  33.746  1.00  0.00     0.032 A 
HETATM    5  C2  UNK     1      17.745   0.478  35.657  1.00  0.00     0.001 A 
HETATM    6  C3  UNK     1      19.397  -1.494  34.617  1.00  0.00     0.095 A 
HETATM    7  C4  UNK     1      18.349  -0.476  36.469  1.00  0.00     0.087 A 
HETATM    8  C5  UNK     1      17.985   0.435  34.269  1.00  0.00     0.031 A 
HETATM    9  C6  UNK     1      19.184  -1.485  36.001  1.00  0.00     0.076 A 
HETATM   10  C7  UNK     1      19.124  -0.682  32.319  1.00  0.00     0.088 A 
HETATM   11  C8  UNK     1      16.989   1.304  36.530  1.00  0.00     0.039 A 
HETATM   12  C9  UNK     1      19.926  -1.653  31.869  1.00  0.00     0.120 A 
HETATM   13  C10 UNK     1      17.179   0.806  37.798  1.00  0.00     0.143 A 
HETATM   14  C11 UNK     1      20.539  -2.641  32.773  1.00  0.00     0.290 A 
ENDROOT
BRANCH  10  15
HETATM   15  O3  UNK     1      18.545   0.249  31.486  1.00  0.00    -0.346 OA
BRANCH  15  16
HETATM   16  C12 UNK     1      19.461   0.678  30.496  1.00  0.00     0.202 C 
BRANCH  16  17
HETATM   17  C13 UNK     1      18.842   1.794  29.721  1.00  0.00    -0.011 C 
HETATM   18  C14 UNK     1      17.898   1.622  28.788  1.00  0.00     0.009 C 
ENDBRANCH  16  17
ENDBRANCH  15  16
ENDBRANCH  10  15
TORSDOF 3
ENDMDL
MODEL 3
REMARK VINA RESULT:      -7.1     13.279     17.300
REMARK  3 active torsions:
REMARK  status: ('A' for Active; 'I' for Inactive)
REMARK    1  A    between atoms: C12_16  and  O3_3 
REMARK    2  A    between atoms: C7_11  and  O3_3 
REMARK    3  A    between atoms: C12_16  and  C13_17 
ROOT
HETATM    1  O1  UNK     1      20.546  -3.103  34.067  1.00  0.00    -0.275 OA
HETATM    2  O2  UNK     1      20.754  -1.483  29.519  1.00  0.00    -0.322 OA
HETATM    3  O4  UNK     1      20.401  -3.810  36.239  1.00  0.00    -0.260 OA
HETATM    4  C1  UNK     1      19.349  -1.091  33.372  1.00  0.00     0.032 A 
HETATM    5  C2  UNK     1      19.530  -0.372  31.058  1.00  0.00     0.001 A 
HETATM    6  C3  UNK     1      20.187  -2.167  33.069  1.00  0.00     0.095 A 
HETATM    7  C4  UNK     1      20.358  -1.464  30.823  1.00  0.00     0.087 A 
HETATM    8  C5  UNK     1      19.014  -0.179  32.356  1.00  0.00     0.031 A 
HETATM    9  C6  UNK     1      20.720  -2.393  31.793  1.00  0.00     0.076 A 
HETATM   10  C7  UNK     1      18.859  -0.966  34.744  1.00  0.00     0.088 A 
HETATM   11  C8  UNK     1      19.424   0.306  29.814  1.00  0.00     0.039 A 
HETATM   12  C9  UNK     1      19.208  -1.859  35.676  1.00  0.00     0.120 A 
HETATM   13  C10 UNK     1      20.184  -0.407  28.917  1.00  0.00     0.143 A 
HETATM   14  C11 UNK     1      20.090  -2.999  35.375  1.00  0.00     0.290 A 
ENDROOT
BRANCH  10  15
HETATM   15  O3  UNK     1      18.032   0.103  35.011  1.00  0.00    -0.346 OA
BRANCH  15  16
HETATM   16  C12 UNK     1      18.719   1.101  35.742  1.00  0.00     0.202 C 
BRANCH  16  17
HETATM   17  C13 UNK     1      17.822   1.608  36.822  1.00  0.00    -0.011 C 
HETATM   18  C14 UNK     1      17.535   0.926  37.936  1.00  0.00     0.009 C 
ENDBRANCH  16  17
ENDBRANCH  15  16
ENDBRANCH  10  15
TORSDOF 3
ENDMDL
MODEL 4
REMARK VINA RESULT:      -7.0     14.119     17.435
REMARK  3 active torsions:
REMARK  status: ('A' for Active; 'I' for Inactive)
REMARK    1  A    between atoms: C12_16  and  O3_3 
REMARK    2  A    between atoms: C7_11  and  O3_3 
REMARK    3  A    between atoms: C12_16  and  C13_17 
ROOT
HETATM    1  O1  UNK     1      18.974   0.188  31.345  1.00  0.00    -0.275 OA
HETATM    2  O2  UNK     1      18.405  -1.541  35.821  1.00  0.00    -0.322 OA
HETATM    3  O4  UNK     1      19.222   1.078  29.250  1.00  0.00    -0.260 OA
HETATM    4  C1  UNK     1      18.284   1.628  33.192  1.00  0.00     0.032 A 
HETATM    5  C2  UNK     1      18.029   0.647  35.400  1.00  0.00     0.001 A 
HETATM    6  C3  UNK     1      18.651   0.369  32.710  1.00  0.00     0.095 A 
HETATM    7  C4  UNK     1      18.403  -0.578  34.857  1.00  0.00     0.087 A 
HETATM    8  C5  UNK     1      17.968   1.773  34.555  1.00  0.00     0.031 A 
HETATM    9  C6  UNK     1      18.723  -0.773  33.517  1.00  0.00     0.076 A 
HETATM   10  C7  UNK     1      18.246   2.743  32.247  1.00  0.00     0.088 A 
HETATM   11  C8  UNK     1      17.793   0.400  36.779  1.00  0.00     0.039 A 
HETATM   12  C9  UNK     1      18.554   2.555  30.959  1.00  0.00     0.120 A 
HETATM   13  C10 UNK     1      18.034  -0.939  36.981  1.00  0.00     0.143 A 
HETATM   14  C11 UNK     1      18.942   1.236  30.433  1.00  0.00     0.290 A 
ENDROOT
BRANCH  10  15
HETATM   15  O3  UNK     1      17.884   3.972  32.752  1.00  0.00    -0.346 OA
BRANCH  15  16
HETATM   16  C12 UNK     1      18.564   5.014  32.080  1.00  0.00     0.202 C 
BRANCH  16  17
HETATM   17  C13 UNK     1      19.245   5.874  33.093  1.00  0.00    -0.011 C 
HETATM   18  C14 UNK     1      20.439   6.449  32.905  1.00  0.00     0.009 C 
ENDBRANCH  16  17
ENDBRANCH  15  16
ENDBRANCH  10  15
TORSDOF 3
ENDMDL
MODEL 5
REMARK VINA RESULT:      -7.0     14.610     17.221
REMARK  3 active torsions:
REMARK  status: ('A' for Active; 'I' for Inactive)
REMARK    1  A    between atoms: C12_16  and  O3_3 
REMARK    2  A    between atoms: C7_11  and  O3_3 
REMARK    3  A    between atoms: C12_16  and  C13_17 
ROOT
HETATM    1  O1  UNK     1      18.808   0.545  31.509  1.00  0.00    -0.275 OA
HETATM    2  O2  UNK     1      18.931   4.990  29.619  1.00  0.00    -0.322 OA
HETATM    3  O4  UNK     1      18.733  -1.529  32.475  1.00  0.00    -0.260 OA
HETATM    4  C1  UNK     1      18.350   2.523  32.866  1.00  0.00     0.032 A 
HETATM    5  C2  UNK     1      18.443   4.707  31.806  1.00  0.00     0.001 A 
HETATM    6  C3  UNK     1      18.678   1.948  31.636  1.00  0.00     0.095 A 
HETATM    7  C4  UNK     1      18.765   4.072  30.612  1.00  0.00     0.087 A 
HETATM    8  C5  UNK     1      18.231   3.921  32.957  1.00  0.00     0.031 A 
HETATM    9  C6  UNK     1      18.896   2.694  30.471  1.00  0.00     0.076 A 
HETATM   10  C7  UNK     1      18.147   1.634  34.009  1.00  0.00     0.088 A 
HETATM   11  C8  UNK     1      18.414   6.096  31.508  1.00  0.00     0.039 A 
HETATM   12  C9  UNK     1      18.275   0.309  33.874  1.00  0.00     0.120 A 
HETATM   13  C10 UNK     1      18.716   6.212  30.171  1.00  0.00     0.143 A 
HETATM   14  C11 UNK     1      18.620  -0.314  32.585  1.00  0.00     0.290 A 
ENDROOT
BRANCH  10  15
HETATM   15  O3  UNK     1      17.823   2.230  35.208  1.00  0.00    -0.346 OA
BRANCH  15  16
HETATM   16  C12 UNK     1      18.653   1.754  36.249  1.00  0.00     0.202 C 
BRANCH  16  17
HETATM   17  C13 UNK     1      17.796   1.376  37.412  1.00  0.00    -0.011 C 
HETATM   18  C14 UNK     1      17.108   0.231  37.492  1.00  0.00     0.009 C 
ENDBRANCH  16  17
ENDBRANCH  15  16
ENDBRANCH  10  15
TORSDOF 3
ENDMDL
MODEL 6
REMARK VINA RESULT:      -6.9     13.380     16.562
REMARK  3 active torsions:
REMARK  status: ('A' for Active; 'I' for Inactive)
REMARK    1  A    between atoms: C12_16  and  O3_3 
REMARK    2  A    between atoms: C7_11  and  O3_3 
REMARK    3  A    between atoms: C12_16  and  C13_17 
ROOT
HETATM    1  O1  UNK     1      18.391  -0.907  34.475  1.00  0.00    -0.275 OA
HETATM    2  O2  UNK     1      20.391  -2.126  30.248  1.00  0.00    -0.322 OA
HETATM    3  O4  UNK     1      17.436  -0.255  36.450  1.00  0.00    -0.260 OA
HETATM    4  C1  UNK     1      18.691   0.728  32.685  1.00  0.00     0.032 A 
HETATM    5  C2  UNK     1      19.711  -0.001  30.603  1.00  0.00     0.001 A 
HETATM    6  C3  UNK     1      18.828  -0.575  33.170  1.00  0.00     0.095 A 
HETATM    7  C4  UNK     1      19.816  -1.277  31.146  1.00  0.00     0.087 A 
HETATM    8  C5  UNK     1      19.138   1.023  31.385  1.00  0.00     0.031 A 
HETATM    9  C6  UNK     1      19.391  -1.619  32.426  1.00  0.00     0.076 A 
HETATM   10  C7  UNK     1      18.086   1.729  33.562  1.00  0.00     0.088 A 
HETATM   11  C8  UNK     1      20.258  -0.093  29.296  1.00  0.00     0.039 A 
HETATM   12  C9  UNK     1      17.678   1.400  34.793  1.00  0.00     0.120 A 
HETATM   13  C10 UNK     1      20.655  -1.400  29.131  1.00  0.00     0.143 A 
HETATM   14  C11 UNK     1      17.815   0.033  35.321  1.00  0.00     0.290 A 
ENDROOT
BRANCH  10  15
HETATM   15  O3  UNK     1      17.963   3.003  33.054  1.00  0.00    -0.346 OA
BRANCH  15  16
HETATM   16  C12 UNK     1      18.396   3.966  33.997  1.00  0.00     0.202 C 
BRANCH  16  17
HETATM   17  C13 UNK     1      17.949   5.316  33.543  1.00  0.00    -0.011 C 
HETATM   18  C14 UNK     1      17.451   5.570  32.328  1.00  0.00     0.009 C 
ENDBRANCH  16  17
ENDBRANCH  15  16
ENDBRANCH  10  15
TORSDOF 3
ENDMDL
MODEL 7
REMARK VINA RESULT:      -6.9     13.724     17.480
REMARK  3 active torsions:
REMARK  status: ('A' for Active; 'I' for Inactive)
REMARK    1  A    between atoms: C12_16  and  O3_3 
REMARK    2  A    between atoms: C7_11  and  O3_3 
REMARK    3  A    between atoms: C12_16  and  C13_17 
ROOT
HETATM    1  O1  UNK     1      18.280   4.027  33.573  1.00  0.00    -0.275 OA
HETATM    2  O2  UNK     1      18.349   0.671  37.049  1.00  0.00    -0.322 OA
HETATM    3  O4  UNK     1      18.249   5.560  31.873  1.00  0.00    -0.260 OA
HETATM    4  C1  UNK     1      18.339   1.643  33.046  1.00  0.00     0.032 A 
HETATM    5  C2  UNK     1      18.373   0.047  34.878  1.00  0.00     0.001 A 
HETATM    6  C3  UNK     1      18.311   2.675  33.988  1.00  0.00     0.095 A 
HETATM    7  C4  UNK     1      18.343   1.120  35.762  1.00  0.00     0.087 A 
HETATM    8  C5  UNK     1      18.371   0.310  33.493  1.00  0.00     0.031 A 
HETATM    9  C6  UNK     1      18.312   2.454  35.371  1.00  0.00     0.076 A 
HETATM   10  C7  UNK     1      18.335   2.005  31.629  1.00  0.00     0.088 A 
HETATM   11  C8  UNK     1      18.399  -1.119  35.687  1.00  0.00     0.039 A 
HETATM   12  C9  UNK     1      18.306   3.288  31.253  1.00  0.00     0.120 A 
HETATM   13  C10 UNK     1      18.383  -0.686  36.993  1.00  0.00     0.143 A 
HETATM   14  C11 UNK     1      18.276   4.388  32.232  1.00  0.00     0.290 A 
ENDROOT
BRANCH  10  15
HETATM   15  O3  UNK     1      18.360   0.966  30.725  1.00  0.00    -0.346 OA
BRANCH  15  16
HETATM   16  C12 UNK     1      19.196   1.275  29.626  1.00  0.00     0.202 C 
BRANCH  16  17
HETATM   17  C13 UNK     1      20.237   0.212  29.501  1.00  0.00    -0.011 C 
HETATM   18  C14 UNK     1      20.550  -0.646  30.478  1.00  0.00     0.009 C 
ENDBRANCH  16  17
ENDBRANCH  15  16
ENDBRANCH  10  15
TORSDOF 3
ENDMDL
MODEL 8
REMARK VINA RESULT:      -6.8     13.573     18.267
REMARK  3 active torsions:
REMARK  status: ('A' for Active; 'I' for Inactive)
REMARK    1  A    between atoms: C12_16  and  O3_3 
REMARK    2  A    between atoms: C7_11  and  O3_3 
REMARK    3  A    between atoms: C12_16  and  C13_17 
ROOT
HETATM    1  O1  UNK     1      20.008   7.340  33.322  1.00  0.00    -0.275 OA
HETATM    2  O2  UNK     1      15.738   9.215  34.589  1.00  0.00    -0.322 OA
HETATM    3  O4  UNK     1      21.992   6.397  32.679  1.00  0.00    -0.260 OA
HETATM    4  C1  UNK     1      17.907   6.410  32.491  1.00  0.00     0.032 A 
HETATM    5  C2  UNK     1      15.821   7.436  33.198  1.00  0.00     0.001 A 
HETATM    6  C3  UNK     1      18.594   7.351  33.263  1.00  0.00     0.095 A 
HETATM    7  C4  UNK     1      16.565   8.344  33.945  1.00  0.00     0.087 A 
HETATM    8  C5  UNK     1      16.502   6.450  32.456  1.00  0.00     0.031 A 
HETATM    9  C6  UNK     1      17.955   8.345  34.013  1.00  0.00     0.076 A 
HETATM   10  C7  UNK     1      18.692   5.422  31.752  1.00  0.00     0.088 A 
HETATM   11  C8  UNK     1      14.461   7.787  33.410  1.00  0.00     0.039 A 
HETATM   12  C9  UNK     1      20.028   5.423  31.819  1.00  0.00     0.120 A 
HETATM   13  C10 UNK     1      14.467   8.869  34.259  1.00  0.00     0.143 A 
HETATM   14  C11 UNK     1      20.768   6.407  32.627  1.00  0.00     0.290 A 
ENDROOT
BRANCH  10  15
HETATM   15  O3  UNK     1      17.986   4.510  30.999  1.00  0.00    -0.346 OA
BRANCH  15  16
HETATM   16  C12 UNK     1      18.855   3.763  30.168  1.00  0.00     0.202 C 
BRANCH  16  17
HETATM   17  C13 UNK     1      18.257   2.415  29.938  1.00  0.00    -0.011 C 
HETATM   18  C14 UNK     1      17.899   1.952  28.735  1.00  0.00     0.009 C 
ENDBRANCH  16  17
ENDBRANCH  15  16
ENDBRANCH  10  15
TORSDOF 3
ENDMDL
MODEL 9
REMARK VINA RESULT:      -6.8     10.724     12.412
REMARK  3 active torsions:
REMARK  status: ('A' for Active; 'I' for Inactive)
REMARK    1  A    between atoms: C12_16  and  O3_3 
REMARK    2  A    between atoms: C7_11  and  O3_3 
REMARK    3  A    between atoms: C12_16  and  C13_17 
ROOT
HETATM    1  O1  UNK     1      14.480   4.924   8.610  1.00  0.00    -0.275 OA
HETATM    2  O2  UNK     1       9.983   5.552   6.959  1.00  0.00    -0.322 OA
HETATM    3  O4  UNK     1      16.601   4.689   9.439  1.00  0.00    -0.260 OA
HETATM    4  C1  UNK     1      13.051   6.720   9.447  1.00  0.00     0.032 A 
HETATM    5  C2  UNK     1      10.808   6.939   8.540  1.00  0.00     0.001 A 
HETATM    6  C3  UNK     1      13.249   5.621   8.606  1.00  0.00     0.095 A 
HETATM    7  C4  UNK     1      11.069   5.838   7.731  1.00  0.00     0.087 A 
HETATM    8  C5  UNK     1      11.816   7.390   9.416  1.00  0.00     0.031 A 
HETATM    9  C6  UNK     1      12.273   5.143   7.723  1.00  0.00     0.076 A 
HETATM   10  C7  UNK     1      14.150   7.121  10.324  1.00  0.00     0.088 A 
HETATM   11  C8  UNK     1       9.479   7.337   8.233  1.00  0.00     0.039 A 
HETATM   12  C9  UNK     1      15.309   6.453  10.316  1.00  0.00     0.120 A 
HETATM   13  C10 UNK     1       9.026   6.465   7.270  1.00  0.00     0.143 A 
HETATM   14  C11 UNK     1      15.535   5.294   9.436  1.00  0.00     0.290 A 
ENDROOT
BRANCH  10  15
HETATM   15  O3  UNK     1      13.924   8.206  11.142  1.00  0.00    -0.346 OA
BRANCH  15  16
HETATM   16  C12 UNK     1      15.137   8.683  11.693  1.00  0.00     0.202 C 
BRANCH  16  17
HETATM   17  C13 UNK     1      15.503   9.961  11.012  1.00  0.00    -0.011 C 
HETATM   18  C14 UNK     1      16.583  10.112  10.237  1.00  0.00     0.009 C 
ENDBRANCH  16  17
ENDBRANCH  15  16
ENDBRANCH  10  15
TORSDOF 3
ENDMDL
MODEL 10
REMARK VINA RESULT:      -6.7     23.191     24.219
REMARK  3 active torsions:
REMARK  status: ('A' for Active; 'I' for Inactive)
REMARK    1  A    between atoms: C12_16  and  O3_3 
REMARK    2  A    between atoms: C7_11  and  O3_3 
REMARK    3  A    between atoms: C12_16  and  C13_17 
ROOT
HETATM    1  O1  UNK     1      28.496  -5.359  39.432  1.00  0.00    -0.275 OA
HETATM    2  O2  UNK     1      26.374  -9.377  37.789  1.00  0.00    -0.322 OA
HETATM    3  O4  UNK     1      29.546  -3.455  40.146  1.00  0.00    -0.260 OA
HETATM    4  C1  UNK     1      29.128  -6.354  37.293  1.00  0.00     0.032 A 
HETATM    5  C2  UNK     1      27.992  -8.377  36.570  1.00  0.00     0.001 A 
HETATM    6  C3  UNK     1      28.344  -6.366  38.450  1.00  0.00     0.095 A 
HETATM    7  C4  UNK     1      27.245  -8.330  37.743  1.00  0.00     0.087 A 
HETATM    8  C5  UNK     1      28.952  -7.371  36.339  1.00  0.00     0.031 A 
HETATM    9  C6  UNK     1      27.381  -7.346  38.717  1.00  0.00     0.076 A 
HETATM   10  C7  UNK     1      30.100  -5.274  37.132  1.00  0.00     0.088 A 
HETATM   11  C8  UNK     1      27.539  -9.527  35.871  1.00  0.00     0.039 A 
HETATM   12  C9  UNK     1      30.232  -4.329  38.070  1.00  0.00     0.120 A 
HETATM   13  C10 UNK     1      26.560 -10.096  36.651  1.00  0.00     0.143 A 
HETATM   14  C11 UNK     1      29.416  -4.327  39.295  1.00  0.00     0.290 A 
ENDROOT
BRANCH  10  15
HETATM   15  O3  UNK     1      30.855  -5.287  35.980  1.00  0.00    -0.346 OA
BRANCH  15  16
HETATM   16  C12 UNK     1      31.997  -4.462  36.116  1.00  0.00     0.202 C 
BRANCH  16  17
HETATM   17  C13 UNK     1      32.835  -4.598  34.888  1.00  0.00    -0.011 C 
HETATM   18  C14 UNK     1      34.137  -4.295  34.835  1.00  0.00     0.009 C 
ENDBRANCH  16  17
ENDBRANCH  15  16
ENDBRANCH  10  15
TORSDOF 3
ENDMDL
