MODEL 1
REMARK VINA RESULT:      -7.8      0.000      0.000
REMARK  5 active torsions:
REMARK  status: ('A' for Active; 'I' for Inactive)
REMARK    1  A    between atoms: C13_19  and  O3_3 
REMARK    2  A    between atoms: C18_24  and  O3_3 
REMARK    3  A    between atoms: C5_11  and  N1_5 
REMARK       I    between atoms: C6_12  and  N2_6 
REMARK    4  A    between atoms: C5_11  and  C8_14 
REMARK    5  A    between atoms: C6_12  and  C7_13 
ROOT
HETATM    1  O2  UNK     1      11.538   7.433   9.858  1.00  0.00    -0.271 OA
HETATM    2  O4  UNK     1      13.111   8.157  11.350  1.00  0.00    -0.259 OA
HETATM    3  C7  UNK     1      13.872   7.651   9.163  1.00  0.00     0.108 A 
HETATM    4  C9  UNK     1      13.571   7.233   7.929  1.00  0.00     0.037 A 
HETATM    5  C10 UNK     1      12.201   6.883   7.586  1.00  0.00     0.002 A 
HETATM    6  C11 UNK     1      12.839   7.774  10.216  1.00  0.00     0.304 A 
HETATM    7  C12 UNK     1      11.216   6.992   8.560  1.00  0.00     0.123 A 
HETATM    8  C13 UNK     1       9.884   6.673   8.297  1.00  0.00     0.103 A 
HETATM    9  C14 UNK     1      11.843   6.442   6.310  1.00  0.00     0.014 A 
HETATM   10  C16 UNK     1       9.535   6.233   7.022  1.00  0.00     0.040 A 
HETATM   11  C17 UNK     1      10.512   6.118   6.031  1.00  0.00     0.004 A 
ENDROOT
BRANCH   3  12
HETATM   12  C6  UNK     1      15.290   7.982   9.414  1.00  0.00     0.260 C 
HETATM   13  O1  UNK     1      16.045   7.058   9.720  1.00  0.00    -0.267 OA
HETATM   14  N2  UNK     1      15.675   9.315   9.294  1.00  0.00    -0.344 N 
HETATM   15  C3  UNK     1      14.803  10.439   8.931  1.00  0.00     0.156 C 
HETATM   16  C4  UNK     1      17.032   9.700   9.686  1.00  0.00     0.156 C 
HETATM   17  C1  UNK     1      15.491  11.395   7.954  1.00  0.00     0.292 C 
HETATM   18  N1  UNK     1      16.803  11.822   8.459  1.00  0.00     0.095 N 
HETATM   19  C2  UNK     1      17.666  10.653   8.676  1.00  0.00     0.292 C 
BRANCH  18  20
HETATM   20  C5  UNK     1      17.431  12.760   7.530  1.00  0.00     0.299 C 
BRANCH  20  21
HETATM   21  C8  UNK     1      18.567  12.125   6.788  1.00  0.00    -0.007 C 
HETATM   22  C15 UNK     1      18.914  12.443   5.536  1.00  0.00     0.008 C 
ENDBRANCH  20  21
ENDBRANCH  18  20
ENDBRANCH   3  12
BRANCH   8  23
HETATM   23  O3  UNK     1       8.930   6.784   9.259  1.00  0.00    -0.349 OA
BRANCH  23  24
HETATM   24  C18 UNK     1       7.954   5.745   9.330  1.00  0.00     0.171 C 
HETATM   25  C19 UNK     1       8.494   4.620  10.189  1.00  0.00     0.034 C 
ENDBRANCH  23  24
ENDBRANCH   8  23
TORSDOF 5
ENDMDL
MODEL 2
REMARK VINA RESULT:      -7.6      1.658      2.129
REMARK  5 active torsions:
REMARK  status: ('A' for Active; 'I' for Inactive)
REMARK    1  A    between atoms: C13_19  and  O3_3 
REMARK    2  A    between atoms: C18_24  and  O3_3 
REMARK    3  A    between atoms: C5_11  and  N1_5 
REMARK       I    between atoms: C6_12  and  N2_6 
REMARK    4  A    between atoms: C5_11  and  C8_14 
REMARK    5  A    between atoms: C6_12  and  C7_13 
ROOT
HETATM    1  O2  UNK     1      10.851   5.625   9.326  1.00  0.00    -0.271 OA
HETATM    2  O4  UNK     1      12.549   5.329  10.826  1.00  0.00    -0.259 OA
HETATM    3  C7  UNK     1      13.162   6.060   8.657  1.00  0.00     0.108 A 
HETATM    4  C9  UNK     1      12.769   6.401   7.425  1.00  0.00     0.037 A 
HETATM    5  C10 UNK     1      11.358   6.371   7.069  1.00  0.00     0.002 A 
HETATM    6  C11 UNK     1      12.193   5.643   9.695  1.00  0.00     0.304 A 
HETATM    7  C12 UNK     1      10.432   5.984   8.031  1.00  0.00     0.123 A 
HETATM    8  C13 UNK     1       9.066   5.933   7.756  1.00  0.00     0.103 A 
HETATM    9  C14 UNK     1      10.905   6.719   5.795  1.00  0.00     0.014 A 
HETATM   10  C16 UNK     1       8.621   6.282   6.481  1.00  0.00     0.040 A 
HETATM   11  C17 UNK     1       9.538   6.673   5.504  1.00  0.00     0.004 A 
ENDROOT
BRANCH   3  12
HETATM   12  C6  UNK     1      14.614   6.122   8.920  1.00  0.00     0.260 C 
HETATM   13  O1  UNK     1      15.309   5.191   8.508  1.00  0.00    -0.267 OA
HETATM   14  N2  UNK     1      15.100   7.223   9.621  1.00  0.00    -0.344 N 
HETATM   15  C3  UNK     1      14.301   8.348  10.125  1.00  0.00     0.156 C 
HETATM   16  C4  UNK     1      16.504   7.240  10.034  1.00  0.00     0.156 C 
HETATM   17  C1  UNK     1      15.007   9.687   9.897  1.00  0.00     0.292 C 
HETATM   18  N1  UNK     1      16.376   9.667  10.428  1.00  0.00     0.095 N 
HETATM   19  C2  UNK     1      17.153   8.599   9.784  1.00  0.00     0.292 C 
BRANCH  18  20
HETATM   20  C5  UNK     1      17.023  10.963  10.232  1.00  0.00     0.299 C 
BRANCH  20  21
HETATM   21  C8  UNK     1      17.643  11.071   8.872  1.00  0.00    -0.007 C 
HETATM   22  C15 UNK     1      17.262  11.955   7.945  1.00  0.00     0.008 C 
ENDBRANCH  20  21
ENDBRANCH  18  20
ENDBRANCH   3  12
BRANCH   8  23
HETATM   23  O3  UNK     1       8.170   5.552   8.704  1.00  0.00    -0.349 OA
BRANCH  23  24
HETATM   24  C18 UNK     1       7.499   6.590   9.418  1.00  0.00     0.171 C 
HETATM   25  C19 UNK     1       6.914   6.014  10.691  1.00  0.00     0.034 C 
ENDBRANCH  23  24
ENDBRANCH   8  23
TORSDOF 5
ENDMDL
MODEL 3
REMARK VINA RESULT:      -7.6     23.224     24.981
REMARK  5 active torsions:
REMARK  status: ('A' for Active; 'I' for Inactive)
REMARK    1  A    between atoms: C13_19  and  O3_3 
REMARK    2  A    between atoms: C18_24  and  O3_3 
REMARK    3  A    between atoms: C5_11  and  N1_5 
REMARK       I    between atoms: C6_12  and  N2_6 
REMARK    4  A    between atoms: C5_11  and  C8_14 
REMARK    5  A    between atoms: C6_12  and  C7_13 
ROOT
HETATM    1  O2  UNK     1      18.707   0.530  32.145  1.00  0.00    -0.271 OA
HETATM    2  O4  UNK     1      17.697   2.555  32.464  1.00  0.00    -0.259 OA
HETATM    3  C7  UNK     1      18.812   2.237  30.398  1.00  0.00     0.108 A 
HETATM    4  C9  UNK     1      19.529   1.427  29.612  1.00  0.00     0.037 A 
HETATM    5  C10 UNK     1      19.883   0.090  30.064  1.00  0.00     0.002 A 
HETATM    6  C11 UNK     1      18.355   1.815  31.741  1.00  0.00     0.304 A 
HETATM    7  C12 UNK     1      19.462  -0.328  31.322  1.00  0.00     0.123 A 
HETATM    8  C13 UNK     1      19.766  -1.595  31.815  1.00  0.00     0.103 A 
HETATM    9  C14 UNK     1      20.630  -0.789  29.276  1.00  0.00     0.014 A 
HETATM   10  C16 UNK     1      20.513  -2.466  31.023  1.00  0.00     0.040 A 
HETATM   11  C17 UNK     1      20.944  -2.064  29.757  1.00  0.00     0.004 A 
ENDROOT
BRANCH   3  12
HETATM   12  C6  UNK     1      18.505   3.574  29.851  1.00  0.00     0.260 C 
HETATM   13  O1  UNK     1      17.944   3.627  28.754  1.00  0.00    -0.267 OA
HETATM   14  N2  UNK     1      18.875   4.685  30.606  1.00  0.00    -0.344 N 
HETATM   15  C3  UNK     1      19.543   4.658  31.913  1.00  0.00     0.156 C 
HETATM   16  C4  UNK     1      18.728   6.020  30.024  1.00  0.00     0.156 C 
HETATM   17  C1  UNK     1      18.952   5.697  32.870  1.00  0.00     0.292 C 
HETATM   18  N1  UNK     1      18.931   7.033  32.259  1.00  0.00     0.095 N 
HETATM   19  C2  UNK     1      18.136   7.012  31.023  1.00  0.00     0.292 C 
BRANCH  18  20
HETATM   20  C5  UNK     1      18.395   8.019  33.197  1.00  0.00     0.299 C 
BRANCH  20  21
HETATM   21  C8  UNK     1      19.285   8.186  34.390  1.00  0.00    -0.007 C 
HETATM   22  C15 UNK     1      20.219   9.137  34.498  1.00  0.00     0.008 C 
ENDBRANCH  20  21
ENDBRANCH  18  20
ENDBRANCH   3  12
BRANCH   8  23
HETATM   23  O3  UNK     1      19.349  -1.991  33.047  1.00  0.00    -0.349 OA
BRANCH  23  24
HETATM   24  C18 UNK     1      20.348  -2.461  33.951  1.00  0.00     0.171 C 
HETATM   25  C19 UNK     1      19.925  -2.129  35.367  1.00  0.00     0.034 C 
ENDBRANCH  23  24
ENDBRANCH   8  23
TORSDOF 5
ENDMDL
MODEL 4
REMARK VINA RESULT:      -7.4     29.040     31.256
REMARK  5 active torsions:
REMARK  status: ('A' for Active; 'I' for Inactive)
REMARK    1  A    between atoms: C13_19  and  O3_3 
REMARK    2  A    between atoms: C18_24  and  O3_3 
REMARK    3  A    between atoms: C5_11  and  N1_5 
REMARK       I    between atoms: C6_12  and  N2_6 
REMARK    4  A    between atoms: C5_11  and  C8_14 
REMARK    5  A    between atoms: C6_12  and  C7_13 
ROOT
HETATM    1  O2  UNK     1      19.436  -1.140  34.572  1.00  0.00    -0.271 OA
HETATM    2  O4  UNK     1      21.216  -2.572  34.540  1.00  0.00    -0.259 OA
HETATM    3  C7  UNK     1      19.890  -2.568  36.504  1.00  0.00     0.108 A 
HETATM    4  C9  UNK     1      18.836  -2.066  37.156  1.00  0.00     0.037 A 
HETATM    5  C10 UNK     1      18.005  -1.047  36.534  1.00  0.00     0.002 A 
HETATM    6  C11 UNK     1      20.251  -2.115  35.142  1.00  0.00     0.304 A 
HETATM    7  C12 UNK     1      18.325  -0.608  35.254  1.00  0.00     0.123 A 
HETATM    8  C13 UNK     1      17.570   0.365  34.602  1.00  0.00     0.103 A 
HETATM    9  C14 UNK     1      16.895  -0.496  37.179  1.00  0.00     0.014 A 
HETATM   10  C16 UNK     1      16.465   0.911  35.252  1.00  0.00     0.040 A 
HETATM   11  C17 UNK     1      16.128   0.482  36.538  1.00  0.00     0.004 A 
ENDROOT
BRANCH   3  12
HETATM   12  C6  UNK     1      20.672  -3.597  37.219  1.00  0.00     0.260 C 
HETATM   13  O1  UNK     1      21.582  -3.212  37.956  1.00  0.00    -0.267 OA
HETATM   14  N2  UNK     1      20.334  -4.932  37.008  1.00  0.00    -0.344 N 
HETATM   15  C3  UNK     1      19.257  -5.424  36.139  1.00  0.00     0.156 C 
HETATM   16  C4  UNK     1      21.185  -5.979  37.577  1.00  0.00     0.156 C 
HETATM   17  C1  UNK     1      18.486  -6.574  36.792  1.00  0.00     0.292 C 
HETATM   18  N1  UNK     1      19.394  -7.636  37.246  1.00  0.00     0.095 N 
HETATM   19  C2  UNK     1      20.362  -7.096  38.212  1.00  0.00     0.292 C 
BRANCH  18  20
HETATM   20  C5  UNK     1      18.639  -8.740  37.837  1.00  0.00     0.299 C 
BRANCH  20  21
HETATM   21  C8  UNK     1      19.546  -9.799  38.385  1.00  0.00    -0.007 C 
HETATM   22  C15 UNK     1      19.766 -10.975  37.788  1.00  0.00     0.008 C 
ENDBRANCH  20  21
ENDBRANCH  18  20
ENDBRANCH   3  12
BRANCH   8  23
HETATM   23  O3  UNK     1      17.894   0.786  33.350  1.00  0.00    -0.349 OA
BRANCH  23  24
HETATM   24  C18 UNK     1      18.241   2.162  33.197  1.00  0.00     0.171 C 
HETATM   25  C19 UNK     1      18.278   2.500  31.721  1.00  0.00     0.034 C 
ENDBRANCH  23  24
ENDBRANCH   8  23
TORSDOF 5
ENDMDL
MODEL 5
REMARK VINA RESULT:      -7.4     25.467     27.283
REMARK  5 active torsions:
REMARK  status: ('A' for Active; 'I' for Inactive)
REMARK    1  A    between atoms: C13_19  and  O3_3 
REMARK    2  A    between atoms: C18_24  and  O3_3 
REMARK    3  A    between atoms: C5_11  and  N1_5 
REMARK       I    between atoms: C6_12  and  N2_6 
REMARK    4  A    between atoms: C5_11  and  C8_14 
REMARK    5  A    between atoms: C6_12  and  C7_13 
ROOT
HETATM    1  O2  UNK     1      18.760  -0.278  33.962  1.00  0.00    -0.271 OA
HETATM    2  O4  UNK     1      19.016   0.251  31.754  1.00  0.00    -0.259 OA
HETATM    3  C7  UNK     1      18.178   1.959  33.166  1.00  0.00     0.108 A 
HETATM    4  C9  UNK     1      17.815   2.332  34.398  1.00  0.00     0.037 A 
HETATM    5  C10 UNK     1      17.907   1.394  35.506  1.00  0.00     0.002 A 
HETATM    6  C11 UNK     1      18.681   0.597  32.882  1.00  0.00     0.304 A 
HETATM    7  C12 UNK     1      18.379   0.109  35.261  1.00  0.00     0.123 A 
HETATM    8  C13 UNK     1      18.493  -0.837  36.278  1.00  0.00     0.103 A 
HETATM    9  C14 UNK     1      17.539   1.741  36.808  1.00  0.00     0.014 A 
HETATM   10  C16 UNK     1      18.122  -0.483  37.574  1.00  0.00     0.040 A 
HETATM   11  C17 UNK     1      17.647   0.802  37.839  1.00  0.00     0.004 A 
ENDROOT
BRANCH   3  12
HETATM   12  C6  UNK     1      18.047   2.982  32.108  1.00  0.00     0.260 C 
HETATM   13  O1  UNK     1      17.531   2.639  31.044  1.00  0.00    -0.267 OA
HETATM   14  N2  UNK     1      18.522   4.263  32.383  1.00  0.00    -0.344 N 
HETATM   15  C3  UNK     1      19.142   4.705  33.639  1.00  0.00     0.156 C 
HETATM   16  C4  UNK     1      18.551   5.255  31.307  1.00  0.00     0.156 C 
HETATM   17  C1  UNK     1      18.649   6.094  34.053  1.00  0.00     0.292 C 
HETATM   18  N1  UNK     1      18.803   7.063  32.959  1.00  0.00     0.095 N 
HETATM   19  C2  UNK     1      18.050   6.618  31.779  1.00  0.00     0.292 C 
BRANCH  18  20
HETATM   20  C5  UNK     1      18.358   8.390  33.383  1.00  0.00     0.299 C 
BRANCH  20  21
HETATM   21  C8  UNK     1      19.145   8.888  34.556  1.00  0.00    -0.007 C 
HETATM   22  C15 UNK     1      20.378   9.399  34.466  1.00  0.00     0.008 C 
ENDBRANCH  20  21
ENDBRANCH  18  20
ENDBRANCH   3  12
BRANCH   8  23
HETATM   23  O3  UNK     1      18.955  -2.091  36.025  1.00  0.00    -0.349 OA
BRANCH  23  24
HETATM   24  C18 UNK     1      20.316  -2.361  36.360  1.00  0.00     0.171 C 
HETATM   25  C19 UNK     1      20.382  -3.651  37.150  1.00  0.00     0.034 C 
ENDBRANCH  23  24
ENDBRANCH   8  23
TORSDOF 5
ENDMDL
MODEL 6
REMARK VINA RESULT:      -7.3      2.208      8.066
REMARK  5 active torsions:
REMARK  status: ('A' for Active; 'I' for Inactive)
REMARK    1  A    between atoms: C13_19  and  O3_3 
REMARK    2  A    between atoms: C18_24  and  O3_3 
REMARK    3  A    between atoms: C5_11  and  N1_5 
REMARK       I    between atoms: C6_12  and  N2_6 
REMARK    4  A    between atoms: C5_11  and  C8_14 
REMARK    5  A    between atoms: C6_12  and  C7_13 
ROOT
HETATM    1  O2  UNK     1      17.866   9.423   9.354  1.00  0.00    -0.271 OA
HETATM    2  O4  UNK     1      17.294   7.520  10.482  1.00  0.00    -0.259 OA
HETATM    3  C7  UNK     1      15.510   8.867   9.696  1.00  0.00     0.108 A 
HETATM    4  C9  UNK     1      15.127   9.972   9.046  1.00  0.00     0.037 A 
HETATM    5  C10 UNK     1      16.121  10.885   8.502  1.00  0.00     0.002 A 
HETATM    6  C11 UNK     1      16.938   8.532   9.887  1.00  0.00     0.304 A 
HETATM    7  C12 UNK     1      17.469  10.588   8.668  1.00  0.00     0.123 A 
HETATM    8  C13 UNK     1      18.471  11.419   8.171  1.00  0.00     0.103 A 
HETATM    9  C14 UNK     1      15.765  12.049   7.816  1.00  0.00     0.014 A 
HETATM   10  C16 UNK     1      18.108  12.579   7.489  1.00  0.00     0.040 A 
HETATM   11  C17 UNK     1      16.759  12.893   7.312  1.00  0.00     0.004 A 
ENDROOT
BRANCH   3  12
HETATM   12  C6  UNK     1      14.427   8.005  10.212  1.00  0.00     0.260 C 
HETATM   13  O1  UNK     1      14.167   8.074  11.415  1.00  0.00    -0.267 OA
HETATM   14  N2  UNK     1      13.778   7.168   9.308  1.00  0.00    -0.344 N 
HETATM   15  C3  UNK     1      14.063   7.061   7.871  1.00  0.00     0.156 C 
HETATM   16  C4  UNK     1      12.812   6.190   9.812  1.00  0.00     0.156 C 
HETATM   17  C1  UNK     1      12.776   6.968   7.047  1.00  0.00     0.292 C 
HETATM   18  N1  UNK     1      11.899   5.899   7.544  1.00  0.00     0.095 N 
HETATM   19  C2  UNK     1      11.552   6.142   8.951  1.00  0.00     0.292 C 
BRANCH  18  20
HETATM   20  C5  UNK     1      10.691   5.803   6.725  1.00  0.00     0.299 C 
BRANCH  20  21
HETATM   21  C8  UNK     1       9.468   6.185   7.500  1.00  0.00    -0.007 C 
HETATM   22  C15 UNK     1       8.333   6.618   6.940  1.00  0.00     0.008 C 
ENDBRANCH  20  21
ENDBRANCH  18  20
ENDBRANCH   3  12
BRANCH   8  23
HETATM   23  O3  UNK     1      19.786  11.118   8.341  1.00  0.00    -0.349 OA
BRANCH  23  24
HETATM   24  C18 UNK     1      20.588  12.075   9.032  1.00  0.00     0.171 C 
HETATM   25  C19 UNK     1      20.529  11.786  10.517  1.00  0.00     0.034 C 
ENDBRANCH  23  24
ENDBRANCH   8  23
TORSDOF 5
ENDMDL
MODEL 7
REMARK VINA RESULT:      -7.2     27.946     30.153
REMARK  5 active torsions:
REMARK  status: ('A' for Active; 'I' for Inactive)
REMARK    1  A    between atoms: C13_19  and  O3_3 
REMARK    2  A    between atoms: C18_24  and  O3_3 
REMARK    3  A    between atoms: C5_11  and  N1_5 
REMARK       I    between atoms: C6_12  and  N2_6 
REMARK    4  A    between atoms: C5_11  and  C8_14 
REMARK    5  A    between atoms: C6_12  and  C7_13 
ROOT
HETATM    1  O2  UNK     1      18.928  -0.772  34.033  1.00  0.00    -0.271 OA
HETATM    2  O4  UNK     1      18.527  -0.927  36.278  1.00  0.00    -0.259 OA
HETATM    3  C7  UNK     1      19.893  -2.611  35.322  1.00  0.00     0.108 A 
HETATM    4  C9  UNK     1      20.478  -3.108  34.227  1.00  0.00     0.037 A 
HETATM    5  C10 UNK     1      20.314  -2.444  32.942  1.00  0.00     0.002 A 
HETATM    6  C11 UNK     1      19.066  -1.385  35.275  1.00  0.00     0.304 A 
HETATM    7  C12 UNK     1      19.542  -1.290  32.876  1.00  0.00     0.123 A 
HETATM    8  C13 UNK     1      19.345  -0.605  31.678  1.00  0.00     0.103 A 
HETATM    9  C14 UNK     1      20.906  -2.928  31.773  1.00  0.00     0.014 A 
HETATM   10  C16 UNK     1      19.939  -1.095  30.516  1.00  0.00     0.040 A 
HETATM   11  C17 UNK     1      20.718  -2.253  30.563  1.00  0.00     0.004 A 
ENDROOT
BRANCH   3  12
HETATM   12  C6  UNK     1      20.118  -3.357  36.578  1.00  0.00     0.260 C 
HETATM   13  O1  UNK     1      20.277  -2.701  37.609  1.00  0.00    -0.267 OA
HETATM   14  N2  UNK     1      20.142  -4.747  36.510  1.00  0.00    -0.344 N 
HETATM   15  C3  UNK     1      19.956  -5.558  35.300  1.00  0.00     0.156 C 
HETATM   16  C4  UNK     1      20.518  -5.510  37.703  1.00  0.00     0.156 C 
HETATM   17  C1  UNK     1      19.072  -6.779  35.569  1.00  0.00     0.292 C 
HETATM   18  N1  UNK     1      19.567  -7.554  36.714  1.00  0.00     0.095 N 
HETATM   19  C2  UNK     1      19.603  -6.713  37.918  1.00  0.00     0.292 C 
BRANCH  18  20
HETATM   20  C5  UNK     1      18.730  -8.733  36.936  1.00  0.00     0.299 C 
BRANCH  20  21
HETATM   21  C8  UNK     1      19.096  -9.440  38.205  1.00  0.00    -0.007 C 
HETATM   22  C15 UNK     1      19.523 -10.706  38.259  1.00  0.00     0.008 C 
ENDBRANCH  20  21
ENDBRANCH  18  20
ENDBRANCH   3  12
BRANCH   8  23
HETATM   23  O3  UNK     1      18.587   0.523  31.627  1.00  0.00    -0.349 OA
BRANCH  23  24
HETATM   24  C18 UNK     1      18.997   1.540  30.713  1.00  0.00     0.171 C 
HETATM   25  C19 UNK     1      18.294   2.833  31.068  1.00  0.00     0.034 C 
ENDBRANCH  23  24
ENDBRANCH   8  23
TORSDOF 5
ENDMDL
MODEL 8
REMARK VINA RESULT:      -7.2     33.689     35.972
REMARK  5 active torsions:
REMARK  status: ('A' for Active; 'I' for Inactive)
REMARK    1  A    between atoms: C13_19  and  O3_3 
REMARK    2  A    between atoms: C18_24  and  O3_3 
REMARK    3  A    between atoms: C5_11  and  N1_5 
REMARK       I    between atoms: C6_12  and  N2_6 
REMARK    4  A    between atoms: C5_11  and  C8_14 
REMARK    5  A    between atoms: C6_12  and  C7_13 
ROOT
HETATM    1  O2  UNK     1      25.931  -6.261  38.526  1.00  0.00    -0.271 OA
HETATM    2  O4  UNK     1      23.808  -5.446  38.750  1.00  0.00    -0.259 OA
HETATM    3  C7  UNK     1      24.093  -7.775  39.081  1.00  0.00     0.108 A 
HETATM    4  C9  UNK     1      24.927  -8.820  39.110  1.00  0.00     0.037 A 
HETATM    5  C10 UNK     1      26.345  -8.635  38.840  1.00  0.00     0.002 A 
HETATM    6  C11 UNK     1      24.569  -6.407  38.777  1.00  0.00     0.304 A 
HETATM    7  C12 UNK     1      26.814  -7.358  38.555  1.00  0.00     0.123 A 
HETATM    8  C13 UNK     1      28.160  -7.112  38.288  1.00  0.00     0.103 A 
HETATM    9  C14 UNK     1      27.251  -9.698  38.860  1.00  0.00     0.014 A 
HETATM   10  C16 UNK     1      29.057  -8.178  38.309  1.00  0.00     0.040 A 
HETATM   11  C17 UNK     1      28.605  -9.467  38.594  1.00  0.00     0.004 A 
ENDROOT
BRANCH   3  12
HETATM   12  C6  UNK     1      22.673  -8.065  39.366  1.00  0.00     0.260 C 
HETATM   13  O1  UNK     1      22.336  -8.153  40.549  1.00  0.00    -0.267 OA
HETATM   14  N2  UNK     1      21.813  -8.225  38.283  1.00  0.00    -0.344 N 
HETATM   15  C3  UNK     1      22.181  -8.126  36.864  1.00  0.00     0.156 C 
HETATM   16  C4  UNK     1      20.438  -8.666  38.526  1.00  0.00     0.156 C 
HETATM   17  C1  UNK     1      21.126  -7.364  36.060  1.00  0.00     0.292 C 
HETATM   18  N1  UNK     1      19.785  -7.925  36.271  1.00  0.00     0.095 N 
HETATM   19  C2  UNK     1      19.433  -7.872  37.696  1.00  0.00     0.292 C 
BRANCH  18  20
HETATM   20  C5  UNK     1      18.795  -7.206  35.469  1.00  0.00     0.299 C 
BRANCH  20  21
HETATM   21  C8  UNK     1      17.444  -7.847  35.555  1.00  0.00    -0.007 C 
HETATM   22  C15 UNK     1      16.350  -7.370  34.952  1.00  0.00     0.008 C 
ENDBRANCH  20  21
ENDBRANCH  18  20
ENDBRANCH   3  12
BRANCH   8  23
HETATM   23  O3  UNK     1      28.605  -5.858  38.010  1.00  0.00    -0.349 OA
BRANCH  23  24
HETATM   24  C18 UNK     1      29.801  -5.433  38.664  1.00  0.00     0.171 C 
HETATM   25  C19 UNK     1      29.569  -4.068  39.277  1.00  0.00     0.034 C 
ENDBRANCH  23  24
ENDBRANCH   8  23
TORSDOF 5
ENDMDL
MODEL 9
REMARK VINA RESULT:      -7.2     26.017     28.107
REMARK  5 active torsions:
REMARK  status: ('A' for Active; 'I' for Inactive)
REMARK    1  A    between atoms: C13_19  and  O3_3 
REMARK    2  A    between atoms: C18_24  and  O3_3 
REMARK    3  A    between atoms: C5_11  and  N1_5 
REMARK       I    between atoms: C6_12  and  N2_6 
REMARK    4  A    between atoms: C5_11  and  C8_14 
REMARK    5  A    between atoms: C6_12  and  C7_13 
ROOT
HETATM    1  O2  UNK     1      18.615   1.209  32.013  1.00  0.00    -0.271 OA
HETATM    2  O4  UNK     1      17.574   1.701  33.987  1.00  0.00    -0.259 OA
HETATM    3  C7  UNK     1      18.380  -0.513  33.732  1.00  0.00     0.108 A 
HETATM    4  C9  UNK     1      19.006  -1.407  32.960  1.00  0.00     0.037 A 
HETATM    5  C10 UNK     1      19.481  -1.030  31.637  1.00  0.00     0.002 A 
HETATM    6  C11 UNK     1      18.148   0.878  33.281  1.00  0.00     0.304 A 
HETATM    7  C12 UNK     1      19.275   0.272  31.195  1.00  0.00     0.123 A 
HETATM    8  C13 UNK     1      19.706   0.698  29.940  1.00  0.00     0.103 A 
HETATM    9  C14 UNK     1      20.139  -1.932  30.798  1.00  0.00     0.014 A 
HETATM   10  C16 UNK     1      20.361  -0.208  29.108  1.00  0.00     0.040 A 
HETATM   11  C17 UNK     1      20.577  -1.520  29.536  1.00  0.00     0.004 A 
ENDROOT
BRANCH   3  12
HETATM   12  C6  UNK     1      17.934  -0.991  35.057  1.00  0.00     0.260 C 
HETATM   13  O1  UNK     1      16.746  -0.841  35.347  1.00  0.00    -0.267 OA
HETATM   14  N2  UNK     1      18.886  -1.573  35.890  1.00  0.00    -0.344 N 
HETATM   15  C3  UNK     1      20.307  -1.768  35.575  1.00  0.00     0.156 C 
HETATM   16  C4  UNK     1      18.514  -1.915  37.264  1.00  0.00     0.156 C 
HETATM   17  C1  UNK     1      20.805  -3.140  36.038  1.00  0.00     0.292 C 
HETATM   18  N1  UNK     1      20.489  -3.373  37.453  1.00  0.00     0.095 N 
HETATM   19  C2  UNK     1      19.038  -3.291  37.668  1.00  0.00     0.292 C 
BRANCH  18  20
HETATM   20  C5  UNK     1      21.000  -4.673  37.887  1.00  0.00     0.299 C 
BRANCH  20  21
HETATM   21  C8  UNK     1      20.415  -5.792  37.082  1.00  0.00    -0.007 C 
HETATM   22  C15 UNK     1      21.033  -6.958  36.862  1.00  0.00     0.008 C 
ENDBRANCH  20  21
ENDBRANCH  18  20
ENDBRANCH   3  12
BRANCH   8  23
HETATM   23  O3  UNK     1      19.497   1.974  29.519  1.00  0.00    -0.349 OA
BRANCH  23  24
HETATM   24  C18 UNK     1      18.148   2.361  29.261  1.00  0.00     0.171 C 
HETATM   25  C19 UNK     1      17.602   1.519  28.127  1.00  0.00     0.034 C 
ENDBRANCH  23  24
ENDBRANCH   8  23
TORSDOF 5
ENDMDL
MODEL 10
REMARK VINA RESULT:      -7.1      4.285      7.052
REMARK  5 active torsions:
REMARK  status: ('A' for Active; 'I' for Inactive)
REMARK    1  A    between atoms: C13_19  and  O3_3 
REMARK    2  A    between atoms: C18_24  and  O3_3 
REMARK    3  A    between atoms: C5_11  and  N1_5 
REMARK       I    between atoms: C6_12  and  N2_6 
REMARK    4  A    between atoms: C5_11  and  C8_14 
REMARK    5  A    between atoms: C6_12  and  C7_13 
ROOT
HETATM    1  O2  UNK     1       6.812   6.167  11.586  1.00  0.00    -0.271 OA
HETATM    2  O4  UNK     1       7.933   7.833  10.494  1.00  0.00    -0.259 OA
HETATM    3  C7  UNK     1       7.672   5.786   9.329  1.00  0.00     0.108 A 
HETATM    4  C9  UNK     1       7.197   4.536   9.330  1.00  0.00     0.037 A 
HETATM    5  C10 UNK     1       6.485   4.022  10.490  1.00  0.00     0.002 A 
HETATM    6  C11 UNK     1       7.498   6.686  10.491  1.00  0.00     0.304 A 
HETATM    7  C12 UNK     1       6.309   4.852  11.592  1.00  0.00     0.123 A 
HETATM    8  C13 UNK     1       5.637   4.422  12.735  1.00  0.00     0.103 A 
HETATM    9  C14 UNK     1       5.972   2.724  10.534  1.00  0.00     0.014 A 
HETATM   10  C16 UNK     1       5.128   3.125  12.771  1.00  0.00     0.040 A 
HETATM   11  C17 UNK     1       5.295   2.278  11.673  1.00  0.00     0.004 A 
ENDROOT
BRANCH   3  12
HETATM   12  C6  UNK     1       8.381   6.215   8.105  1.00  0.00     0.260 C 
HETATM   13  O1  UNK     1       7.726   6.808   7.246  1.00  0.00    -0.267 OA
HETATM   14  N2  UNK     1       9.737   5.914   8.003  1.00  0.00    -0.344 N 
HETATM   15  C3  UNK     1      10.545   5.211   9.006  1.00  0.00     0.156 C 
HETATM   16  C4  UNK     1      10.430   6.184   6.742  1.00  0.00     0.156 C 
HETATM   17  C1  UNK     1      11.923   5.857   9.174  1.00  0.00     0.292 C 
HETATM   18  N1  UNK     1      12.605   6.002   7.881  1.00  0.00     0.095 N 
HETATM   19  C2  UNK     1      11.796   6.826   6.972  1.00  0.00     0.292 C 
BRANCH  18  20
HETATM   20  C5  UNK     1      13.932   6.589   8.063  1.00  0.00     0.299 C 
BRANCH  20  21
HETATM   21  C8  UNK     1      14.823   5.700   8.875  1.00  0.00    -0.007 C 
HETATM   22  C15 UNK     1      15.683   6.144   9.797  1.00  0.00     0.008 C 
ENDBRANCH  20  21
ENDBRANCH  18  20
ENDBRANCH   3  12
BRANCH   8  23
HETATM   23  O3  UNK     1       5.471   5.243  13.806  1.00  0.00    -0.349 OA
BRANCH  23  24
HETATM   24  C18 UNK     1       5.646   4.666  15.100  1.00  0.00     0.171 C 
HETATM   25  C19 UNK     1       5.370   5.721  16.151  1.00  0.00     0.034 C 
ENDBRANCH  23  24
ENDBRANCH   8  23
TORSDOF 5
ENDMDL
