MODEL 1
REMARK VINA RESULT:      -9.4      0.000      0.000
REMARK  6 active torsions:
REMARK  status: ('A' for Active; 'I' for Inactive)
REMARK    1  A    between atoms: C1_8  and  O1_2 
REMARK    2  A    between atoms: C6_13  and  N1_7 
REMARK    3  A    between atoms: C1_8  and  C5_12 
REMARK    4  A    between atoms: C5_12  and  C9_16 
REMARK    5  A    between atoms: C10_17  and  C6_13 
REMARK    6  A    between atoms: C13_20  and  C9_16 
ROOT
HETATM    1 Br1  UNK     1      20.447  -1.174  29.367  1.00  0.00    -0.051 Br
HETATM    2  O2  UNK     1      18.295  -1.716  36.742  1.00  0.00    -0.269 OA
HETATM    3  N1  UNK     1      19.802  -2.649  35.183  1.00  0.00    -0.310 N 
HETATM    4  C1  UNK     1      18.385  -0.910  34.422  1.00  0.00     0.175 A 
HETATM    5  C2  UNK     1      19.278  -1.425  33.329  1.00  0.00     0.014 A 
HETATM    6  C3  UNK     1      20.091  -2.444  33.827  1.00  0.00     0.047 A 
HETATM    7  C4  UNK     1      18.793  -1.783  35.627  1.00  0.00     0.264 A 
HETATM    8  C7  UNK     1      19.366  -1.031  32.004  1.00  0.00     0.032 A 
HETATM    9  C8  UNK     1      21.013  -3.097  33.027  1.00  0.00     0.032 A 
HETATM   10  C11 UNK     1      20.292  -1.680  31.183  1.00  0.00     0.011 A 
HETATM   11  C12 UNK     1      21.109  -2.705  31.691  1.00  0.00     0.021 A 
ENDROOT
BRANCH   4  12
HETATM   12  O1  UNK     1      17.033  -1.184  34.111  1.00  0.00    -0.375 OA
HETATM   13  H7  UNK     1      16.675  -1.793  34.778  1.00  0.00     0.211 HD
ENDBRANCH   4  12
BRANCH   4  14
HETATM   14  C5  UNK     1      18.585   0.569  34.720  1.00  0.00     0.137 C 
BRANCH  14  15
HETATM   15  C9  UNK     1      17.540   1.436  34.049  1.00  0.00     0.169 C 
HETATM   16  O3  UNK     1      16.345   1.159  34.008  1.00  0.00    -0.292 OA
BRANCH  15  17
HETATM   17  C13 UNK     1      18.029   2.678  33.419  1.00  0.00     0.086 A 
HETATM   18  C16 UNK     1      18.244   3.713  34.240  1.00  0.00     0.035 A 
HETATM   19  C18 UNK     1      18.727   4.980  33.710  1.00  0.00    -0.001 A 
HETATM   20  C21 UNK     1      18.958   5.094  32.343  1.00  0.00     0.089 A 
HETATM   21  C23 UNK     1      18.966   6.086  34.530  1.00  0.00     0.014 A 
HETATM   22  O4  UNK     1      18.730   4.001  31.486  1.00  0.00    -0.274 OA
HETATM   23  C24 UNK     1      19.420   6.279  31.774  1.00  0.00     0.038 A 
HETATM   24  C17 UNK     1      18.269   2.777  31.961  1.00  0.00     0.302 A 
HETATM   25  O5  UNK     1      18.072   1.832  31.206  1.00  0.00    -0.259 OA
HETATM   26  C26 UNK     1      19.656   7.377  32.599  1.00  0.00     0.003 A 
HETATM   27  C25 UNK     1      19.429   7.281  33.974  1.00  0.00     0.001 A 
ENDBRANCH  15  17
ENDBRANCH  14  15
ENDBRANCH   4  14
BRANCH   3  28
HETATM   28  C6  UNK     1      20.467  -3.643  35.993  1.00  0.00     0.170 C 
BRANCH  28  29
HETATM   29  C10 UNK     1      19.764  -4.969  35.943  1.00  0.00    -0.040 A 
HETATM   30  C14 UNK     1      20.176  -5.930  35.029  1.00  0.00     0.009 A 
HETATM   31  C19 UNK     1      19.524  -7.162  34.982  1.00  0.00     0.001 A 
HETATM   32  C22 UNK     1      18.464  -7.423  35.852  1.00  0.00     0.000 A 
HETATM   33  C20 UNK     1      18.057  -6.453  36.766  1.00  0.00     0.001 A 
HETATM   34  C15 UNK     1      18.710  -5.221  36.813  1.00  0.00     0.009 A 
ENDBRANCH  28  29
ENDBRANCH   3  28
TORSDOF 6
ENDMDL
MODEL 2
REMARK VINA RESULT:      -9.4     25.415     27.611
REMARK  6 active torsions:
REMARK  status: ('A' for Active; 'I' for Inactive)
REMARK    1  A    between atoms: C1_8  and  O1_2 
REMARK    2  A    between atoms: C6_13  and  N1_7 
REMARK    3  A    between atoms: C1_8  and  C5_12 
REMARK    4  A    between atoms: C5_12  and  C9_16 
REMARK    5  A    between atoms: C10_17  and  C6_13 
REMARK    6  A    between atoms: C13_20  and  C9_16 
ROOT
HETATM    1 Br1  UNK     1       7.991  10.870  11.678  1.00  0.00    -0.051 Br
HETATM    2  O2  UNK     1      10.815   5.418   7.029  1.00  0.00    -0.269 OA
HETATM    3  N1  UNK     1      11.404   7.463   8.049  1.00  0.00    -0.310 N 
HETATM    4  C1  UNK     1       9.244   6.601   8.503  1.00  0.00     0.175 A 
HETATM    5  C2  UNK     1       9.482   7.912   9.198  1.00  0.00     0.014 A 
HETATM    6  C3  UNK     1      10.765   8.375   8.901  1.00  0.00     0.047 A 
HETATM    7  C4  UNK     1      10.573   6.373   7.752  1.00  0.00     0.264 A 
HETATM    8  C7  UNK     1       8.639   8.639  10.022  1.00  0.00     0.032 A 
HETATM    9  C8  UNK     1      11.246   9.568   9.413  1.00  0.00     0.032 A 
HETATM   10  C11 UNK     1       9.109   9.845  10.548  1.00  0.00     0.011 A 
HETATM   11  C12 UNK     1      10.402  10.306  10.246  1.00  0.00     0.021 A 
ENDROOT
BRANCH   4  12
HETATM   12  O1  UNK     1       8.212   6.742   7.546  1.00  0.00    -0.375 OA
HETATM   13  H7  UNK     1       7.653   7.497   7.796  1.00  0.00     0.211 HD
ENDBRANCH   4  12
BRANCH   4  14
HETATM   14  C5  UNK     1       8.947   5.455   9.457  1.00  0.00     0.137 C 
BRANCH  14  15
HETATM   15  C9  UNK     1       7.622   4.786   9.157  1.00  0.00     0.169 C 
HETATM   16  O3  UNK     1       7.354   4.247   8.087  1.00  0.00    -0.292 OA
BRANCH  15  17
HETATM   17  C13 UNK     1       6.619   4.807  10.241  1.00  0.00     0.086 A 
HETATM   18  C16 UNK     1       6.497   3.682  10.956  1.00  0.00     0.035 A 
HETATM   19  C18 UNK     1       5.535   3.607  12.045  1.00  0.00    -0.001 A 
HETATM   20  C21 UNK     1       4.749   4.720  12.327  1.00  0.00     0.089 A 
HETATM   21  C23 UNK     1       5.374   2.454  12.818  1.00  0.00     0.014 A 
HETATM   22  O4  UNK     1       4.883   5.900  11.571  1.00  0.00    -0.274 OA
HETATM   23  C24 UNK     1       3.809   4.712  13.356  1.00  0.00     0.038 A 
HETATM   24  C17 UNK     1       5.793   6.004  10.524  1.00  0.00     0.302 A 
HETATM   25  O5  UNK     1       5.902   7.035   9.871  1.00  0.00    -0.259 OA
HETATM   26  C26 UNK     1       3.656   3.558  14.122  1.00  0.00     0.003 A 
HETATM   27  C25 UNK     1       4.436   2.431  13.853  1.00  0.00     0.001 A 
ENDBRANCH  15  17
ENDBRANCH  14  15
ENDBRANCH   4  14
BRANCH   3  28
HETATM   28  C6  UNK     1      12.745   7.653   7.549  1.00  0.00     0.170 C 
BRANCH  28  29
HETATM   29  C10 UNK     1      13.777   7.083   8.478  1.00  0.00    -0.040 A 
HETATM   30  C14 UNK     1      13.997   5.711   8.501  1.00  0.00     0.009 A 
HETATM   31  C19 UNK     1      14.956   5.180   9.365  1.00  0.00     0.001 A 
HETATM   32  C22 UNK     1      15.687   6.027  10.199  1.00  0.00     0.000 A 
HETATM   33  C20 UNK     1      15.460   7.402  10.170  1.00  0.00     0.001 A 
HETATM   34  C15 UNK     1      14.501   7.932   9.306  1.00  0.00     0.009 A 
ENDBRANCH  28  29
ENDBRANCH   3  28
TORSDOF 6
ENDMDL
MODEL 3
REMARK VINA RESULT:      -9.4     11.490     14.139
REMARK  6 active torsions:
REMARK  status: ('A' for Active; 'I' for Inactive)
REMARK    1  A    between atoms: C1_8  and  O1_2 
REMARK    2  A    between atoms: C6_13  and  N1_7 
REMARK    3  A    between atoms: C1_8  and  C5_12 
REMARK    4  A    between atoms: C5_12  and  C9_16 
REMARK    5  A    between atoms: C10_17  and  C6_13 
REMARK    6  A    between atoms: C13_20  and  C9_16 
ROOT
HETATM    1 Br1  UNK     1      34.729  -6.523  36.947  1.00  0.00    -0.051 Br
HETATM    2  O2  UNK     1      27.325  -6.878  34.857  1.00  0.00    -0.269 OA
HETATM    3  N1  UNK     1      29.437  -6.182  34.066  1.00  0.00    -0.310 N 
HETATM    4  C1  UNK     1      29.350  -7.160  36.222  1.00  0.00     0.175 A 
HETATM    5  C2  UNK     1      30.746  -6.747  35.850  1.00  0.00     0.014 A 
HETATM    6  C3  UNK     1      30.744  -6.179  34.575  1.00  0.00     0.047 A 
HETATM    7  C4  UNK     1      28.534  -6.744  34.980  1.00  0.00     0.264 A 
HETATM    8  C7  UNK     1      31.920  -6.858  36.575  1.00  0.00     0.032 A 
HETATM    9  C8  UNK     1      31.904  -5.709  33.985  1.00  0.00     0.032 A 
HETATM   10  C11 UNK     1      33.101  -6.389  35.994  1.00  0.00     0.011 A 
HETATM   11  C12 UNK     1      33.093  -5.820  34.709  1.00  0.00     0.021 A 
ENDROOT
BRANCH   4  12
HETATM   12  O1  UNK     1      28.898  -6.399  37.326  1.00  0.00    -0.375 OA
HETATM   13  H7  UNK     1      28.029  -6.732  37.602  1.00  0.00     0.211 HD
ENDBRANCH   4  12
BRANCH   4  14
HETATM   14  C5  UNK     1      29.213  -8.650  36.497  1.00  0.00     0.137 C 
BRANCH  14  15
HETATM   15  C9  UNK     1      28.317  -8.935  37.684  1.00  0.00     0.169 C 
HETATM   16  O3  UNK     1      28.715  -8.999  38.843  1.00  0.00    -0.292 OA
BRANCH  15  17
HETATM   17  C13 UNK     1      26.885  -9.143  37.386  1.00  0.00     0.086 A 
HETATM   18  C16 UNK     1      26.566 -10.304  36.802  1.00  0.00     0.035 A 
HETATM   19  C18 UNK     1      25.180 -10.600  36.470  1.00  0.00    -0.001 A 
HETATM   20  C21 UNK     1      24.200  -9.658  36.769  1.00  0.00     0.089 A 
HETATM   21  C23 UNK     1      24.800 -11.799  35.861  1.00  0.00     0.014 A 
HETATM   22  O4  UNK     1      24.544  -8.439  37.383  1.00  0.00    -0.274 OA
HETATM   23  C24 UNK     1      22.856  -9.880  36.476  1.00  0.00     0.038 A 
HETATM   24  C17 UNK     1      25.859  -8.127  37.713  1.00  0.00     0.302 A 
HETATM   25  O5  UNK     1      26.148  -7.062  38.247  1.00  0.00    -0.259 OA
HETATM   26  C26 UNK     1      22.486 -11.079  35.869  1.00  0.00     0.003 A 
HETATM   27  C25 UNK     1      23.456 -12.036  35.562  1.00  0.00     0.001 A 
ENDBRANCH  15  17
ENDBRANCH  14  15
ENDBRANCH   4  14
BRANCH   3  28
HETATM   28  C6  UNK     1      29.093  -5.655  32.767  1.00  0.00     0.170 C 
BRANCH  28  29
HETATM   29  C10 UNK     1      28.880  -6.746  31.758  1.00  0.00    -0.040 A 
HETATM   30  C14 UNK     1      29.976  -7.313  31.117  1.00  0.00     0.009 A 
HETATM   31  C19 UNK     1      29.779  -8.326  30.179  1.00  0.00     0.001 A 
HETATM   32  C22 UNK     1      28.487  -8.766  29.889  1.00  0.00     0.000 A 
HETATM   33  C20 UNK     1      27.393  -8.193  30.536  1.00  0.00     0.001 A 
HETATM   34  C15 UNK     1      27.590  -7.179  31.474  1.00  0.00     0.009 A 
ENDBRANCH  28  29
ENDBRANCH   3  28
TORSDOF 6
ENDMDL
MODEL 4
REMARK VINA RESULT:      -9.2     12.428     15.127
REMARK  6 active torsions:
REMARK  status: ('A' for Active; 'I' for Inactive)
REMARK    1  A    between atoms: C1_8  and  O1_2 
REMARK    2  A    between atoms: C6_13  and  N1_7 
REMARK    3  A    between atoms: C1_8  and  C5_12 
REMARK    4  A    between atoms: C5_12  and  C9_16 
REMARK    5  A    between atoms: C10_17  and  C6_13 
REMARK    6  A    between atoms: C13_20  and  C9_16 
ROOT
HETATM    1 Br1  UNK     1      30.634 -10.622  39.115  1.00  0.00    -0.051 Br
HETATM    2  O2  UNK     1      34.399  -4.743  35.861  1.00  0.00    -0.269 OA
HETATM    3  N1  UNK     1      33.243  -6.727  35.314  1.00  0.00    -0.310 N 
HETATM    4  C1  UNK     1      33.390  -6.149  37.607  1.00  0.00     0.175 A 
HETATM    5  C2  UNK     1      32.647  -7.439  37.400  1.00  0.00     0.014 A 
HETATM    6  C3  UNK     1      32.587  -7.734  36.037  1.00  0.00     0.047 A 
HETATM    7  C4  UNK     1      33.759  -5.740  36.166  1.00  0.00     0.264 A 
HETATM    8  C7  UNK     1      32.074  -8.285  38.334  1.00  0.00     0.032 A 
HETATM    9  C8  UNK     1      31.957  -8.872  35.564  1.00  0.00     0.032 A 
HETATM   10  C11 UNK     1      31.433  -9.439  37.874  1.00  0.00     0.011 A 
HETATM   11  C12 UNK     1      31.375  -9.729  36.500  1.00  0.00     0.021 A 
ENDROOT
BRANCH   4  12
HETATM   12  O1  UNK     1      34.587  -6.390  38.321  1.00  0.00    -0.375 OA
HETATM   13  H7  UNK     1      35.071  -5.553  38.415  1.00  0.00     0.211 HD
ENDBRANCH   4  12
BRANCH   4  14
HETATM   14  C5  UNK     1      32.558  -5.074  38.289  1.00  0.00     0.137 C 
BRANCH  14  15
HETATM   15  C9  UNK     1      31.348  -4.678  37.469  1.00  0.00     0.169 C 
HETATM   16  O3  UNK     1      31.384  -3.883  36.535  1.00  0.00    -0.292 OA
BRANCH  15  17
HETATM   17  C13 UNK     1      30.067  -5.307  37.850  1.00  0.00     0.086 A 
HETATM   18  C16 UNK     1      29.641  -6.303  37.064  1.00  0.00     0.035 A 
HETATM   19  C18 UNK     1      28.389  -6.985  37.359  1.00  0.00    -0.001 A 
HETATM   20  C21 UNK     1      27.648  -6.582  38.466  1.00  0.00     0.089 A 
HETATM   21  C23 UNK     1      27.906  -8.029  36.568  1.00  0.00     0.014 A 
HETATM   22  O4  UNK     1      28.103  -5.533  39.288  1.00  0.00    -0.274 OA
HETATM   23  C24 UNK     1      26.441  -7.193  38.802  1.00  0.00     0.038 A 
HETATM   24  C17 UNK     1      29.295  -4.862  39.033  1.00  0.00     0.302 A 
HETATM   25  O5  UNK     1      29.682  -3.950  39.754  1.00  0.00    -0.259 OA
HETATM   26  C26 UNK     1      25.967  -8.234  38.007  1.00  0.00     0.003 A 
HETATM   27  C25 UNK     1      26.697  -8.652  36.892  1.00  0.00     0.001 A 
ENDBRANCH  15  17
ENDBRANCH  14  15
ENDBRANCH   4  14
BRANCH   3  28
HETATM   28  C6  UNK     1      33.366  -6.738  33.876  1.00  0.00     0.170 C 
BRANCH  28  29
HETATM   29  C10 UNK     1      32.029  -6.643  33.198  1.00  0.00    -0.040 A 
HETATM   30  C14 UNK     1      31.130  -5.659  33.589  1.00  0.00     0.009 A 
HETATM   31  C19 UNK     1      29.888  -5.570  32.960  1.00  0.00     0.001 A 
HETATM   32  C22 UNK     1      29.555  -6.466  31.944  1.00  0.00     0.000 A 
HETATM   33  C20 UNK     1      30.464  -7.451  31.557  1.00  0.00     0.001 A 
HETATM   34  C15 UNK     1      31.706  -7.539  32.186  1.00  0.00     0.009 A 
ENDBRANCH  28  29
ENDBRANCH   3  28
TORSDOF 6
ENDMDL
MODEL 5
REMARK VINA RESULT:      -9.2     11.310     14.054
REMARK  6 active torsions:
REMARK  status: ('A' for Active; 'I' for Inactive)
REMARK    1  A    between atoms: C1_8  and  O1_2 
REMARK    2  A    between atoms: C6_13  and  N1_7 
REMARK    3  A    between atoms: C1_8  and  C5_12 
REMARK    4  A    between atoms: C5_12  and  C9_16 
REMARK    5  A    between atoms: C10_17  and  C6_13 
REMARK    6  A    between atoms: C13_20  and  C9_16 
ROOT
HETATM    1 Br1  UNK     1      28.379  -8.497  31.869  1.00  0.00    -0.051 Br
HETATM    2  O2  UNK     1      29.643  -5.825  38.981  1.00  0.00    -0.269 OA
HETATM    3  N1  UNK     1      30.287  -5.482  36.737  1.00  0.00    -0.310 N 
HETATM    4  C1  UNK     1      28.686  -7.175  37.164  1.00  0.00     0.175 A 
HETATM    5  C2  UNK     1      29.020  -7.074  35.702  1.00  0.00     0.014 A 
HETATM    6  C3  UNK     1      29.963  -6.065  35.503  1.00  0.00     0.047 A 
HETATM    7  C4  UNK     1      29.579  -6.082  37.787  1.00  0.00     0.264 A 
HETATM    8  C7  UNK     1      28.535  -7.811  34.635  1.00  0.00     0.032 A 
HETATM    9  C8  UNK     1      30.449  -5.759  34.244  1.00  0.00     0.032 A 
HETATM   10  C11 UNK     1      29.015  -7.515  33.356  1.00  0.00     0.011 A 
HETATM   11  C12 UNK     1      29.964  -6.497  33.162  1.00  0.00     0.021 A 
ENDROOT
BRANCH   4  12
HETATM   12  O1  UNK     1      29.102  -8.429  37.668  1.00  0.00    -0.375 OA
HETATM   13  H7  UNK     1      28.868  -8.483  38.609  1.00  0.00     0.211 HD
ENDBRANCH   4  12
BRANCH   4  14
HETATM   14  C5  UNK     1      27.217  -6.927  37.468  1.00  0.00     0.137 C 
BRANCH  14  15
HETATM   15  C9  UNK     1      26.594  -8.060  38.256  1.00  0.00     0.169 C 
HETATM   16  O3  UNK     1      26.871  -8.315  39.424  1.00  0.00    -0.292 OA
BRANCH  15  17
HETATM   17  C13 UNK     1      25.600  -8.885  37.539  1.00  0.00     0.086 A 
HETATM   18  C16 UNK     1      24.324  -8.498  37.646  1.00  0.00     0.035 A 
HETATM   19  C18 UNK     1      23.273  -9.249  36.975  1.00  0.00    -0.001 A 
HETATM   20  C21 UNK     1      23.619 -10.369  36.226  1.00  0.00     0.089 A 
HETATM   21  C23 UNK     1      21.927  -8.882  37.058  1.00  0.00     0.014 A 
HETATM   22  O4  UNK     1      24.964 -10.770  36.118  1.00  0.00    -0.274 OA
HETATM   23  C24 UNK     1      22.660 -11.130  35.560  1.00  0.00     0.038 A 
HETATM   24  C17 UNK     1      25.992 -10.074  36.747  1.00  0.00     0.302 A 
HETATM   25  O5  UNK     1      27.160 -10.431  36.648  1.00  0.00    -0.259 OA
HETATM   26  C26 UNK     1      21.320 -10.757  35.648  1.00  0.00     0.003 A 
HETATM   27  C25 UNK     1      20.955  -9.635  36.395  1.00  0.00     0.001 A 
ENDBRANCH  15  17
ENDBRANCH  14  15
ENDBRANCH   4  14
BRANCH   3  28
HETATM   28  C6  UNK     1      31.243  -4.409  36.878  1.00  0.00     0.170 C 
BRANCH  28  29
HETATM   29  C10 UNK     1      32.656  -4.890  36.716  1.00  0.00    -0.040 A 
HETATM   30  C14 UNK     1      33.442  -4.381  35.689  1.00  0.00     0.009 A 
HETATM   31  C19 UNK     1      34.754  -4.828  35.539  1.00  0.00     0.001 A 
HETATM   32  C22 UNK     1      35.271  -5.782  36.416  1.00  0.00     0.000 A 
HETATM   33  C20 UNK     1      34.476  -6.288  37.444  1.00  0.00     0.001 A 
HETATM   34  C15 UNK     1      33.163  -5.841  37.594  1.00  0.00     0.009 A 
ENDBRANCH  28  29
ENDBRANCH   3  28
TORSDOF 6
ENDMDL
MODEL 6
REMARK VINA RESULT:      -9.1     13.067     15.733
REMARK  6 active torsions:
REMARK  status: ('A' for Active; 'I' for Inactive)
REMARK    1  A    between atoms: C1_8  and  O1_2 
REMARK    2  A    between atoms: C6_13  and  N1_7 
REMARK    3  A    between atoms: C1_8  and  C5_12 
REMARK    4  A    between atoms: C5_12  and  C9_16 
REMARK    5  A    between atoms: C10_17  and  C6_13 
REMARK    6  A    between atoms: C13_20  and  C9_16 
ROOT
HETATM    1 Br1  UNK     1      31.007 -15.704  32.736  1.00  0.00    -0.051 Br
HETATM    2  O2  UNK     1      31.537  -8.034  33.194  1.00  0.00    -0.269 OA
HETATM    3  N1  UNK     1      31.119  -9.769  31.649  1.00  0.00    -0.310 N 
HETATM    4  C1  UNK     1      31.513 -10.388  33.901  1.00  0.00     0.175 A 
HETATM    5  C2  UNK     1      31.280 -11.585  33.023  1.00  0.00     0.014 A 
HETATM    6  C3  UNK     1      31.053 -11.168  31.711  1.00  0.00     0.047 A 
HETATM    7  C4  UNK     1      31.394  -9.214  32.907  1.00  0.00     0.264 A 
HETATM    8  C7  UNK     1      31.272 -12.930  33.351  1.00  0.00     0.032 A 
HETATM    9  C8  UNK     1      30.810 -12.072  30.690  1.00  0.00     0.032 A 
HETATM   10  C11 UNK     1      31.028 -13.856  32.333  1.00  0.00     0.011 A 
HETATM   11  C12 UNK     1      30.798 -13.430  31.014  1.00  0.00     0.021 A 
ENDROOT
BRANCH   4  12
HETATM   12  O1  UNK     1      32.833 -10.410  34.408  1.00  0.00    -0.375 OA
HETATM   13  H7  UNK     1      33.406  -9.897  33.815  1.00  0.00     0.211 HD
ENDBRANCH   4  12
BRANCH   4  14
HETATM   14  C5  UNK     1      30.500 -10.260  35.029  1.00  0.00     0.137 C 
BRANCH  14  15
HETATM   15  C9  UNK     1      31.162 -10.042  36.374  1.00  0.00     0.169 C 
HETATM   16  O3  UNK     1      31.673 -10.939  37.038  1.00  0.00    -0.292 OA
BRANCH  15  17
HETATM   17  C13 UNK     1      31.172  -8.655  36.880  1.00  0.00     0.086 A 
HETATM   18  C16 UNK     1      30.053  -8.239  37.485  1.00  0.00     0.035 A 
HETATM   19  C18 UNK     1      29.968  -6.886  38.017  1.00  0.00    -0.001 A 
HETATM   20  C21 UNK     1      31.064  -6.041  37.884  1.00  0.00     0.089 A 
HETATM   21  C23 UNK     1      28.820  -6.409  38.655  1.00  0.00     0.014 A 
HETATM   22  O4  UNK     1      32.238  -6.486  37.247  1.00  0.00    -0.274 OA
HETATM   23  C24 UNK     1      31.046  -4.735  38.371  1.00  0.00     0.038 A 
HETATM   24  C17 UNK     1      32.351  -7.772  36.729  1.00  0.00     0.302 A 
HETATM   25  O5  UNK     1      33.377  -8.150  36.175  1.00  0.00    -0.259 OA
HETATM   26  C26 UNK     1      29.898  -4.267  39.007  1.00  0.00     0.003 A 
HETATM   27  C25 UNK     1      28.787  -5.102  39.149  1.00  0.00     0.001 A 
ENDBRANCH  15  17
ENDBRANCH  14  15
ENDBRANCH   4  14
BRANCH   3  28
HETATM   28  C6  UNK     1      30.935  -9.021  30.428  1.00  0.00     0.170 C 
BRANCH  28  29
HETATM   29  C10 UNK     1      29.644  -8.255  30.428  1.00  0.00    -0.040 A 
HETATM   30  C14 UNK     1      29.670  -6.866  30.425  1.00  0.00     0.009 A 
HETATM   31  C19 UNK     1      28.470  -6.154  30.426  1.00  0.00     0.001 A 
HETATM   32  C22 UNK     1      27.253  -6.837  30.428  1.00  0.00     0.000 A 
HETATM   33  C20 UNK     1      27.236  -8.231  30.431  1.00  0.00     0.001 A 
HETATM   34  C15 UNK     1      28.436  -8.943  30.430  1.00  0.00     0.009 A 
ENDBRANCH  28  29
ENDBRANCH   3  28
TORSDOF 6
ENDMDL
MODEL 7
REMARK VINA RESULT:      -9.1      3.625      8.962
REMARK  6 active torsions:
REMARK  status: ('A' for Active; 'I' for Inactive)
REMARK    1  A    between atoms: C1_8  and  O1_2 
REMARK    2  A    between atoms: C6_13  and  N1_7 
REMARK    3  A    between atoms: C1_8  and  C5_12 
REMARK    4  A    between atoms: C5_12  and  C9_16 
REMARK    5  A    between atoms: C10_17  and  C6_13 
REMARK    6  A    between atoms: C13_20  and  C9_16 
ROOT
HETATM    1 Br1  UNK     1      17.946  -0.382  35.126  1.00  0.00    -0.051 Br
HETATM    2  O2  UNK     1      18.513   5.852  30.638  1.00  0.00    -0.269 OA
HETATM    3  N1  UNK     1      18.724   5.169  32.887  1.00  0.00    -0.310 N 
HETATM    4  C1  UNK     1      18.175   3.506  31.291  1.00  0.00     0.175 A 
HETATM    5  C2  UNK     1      18.260   2.943  32.682  1.00  0.00     0.014 A 
HETATM    6  C3  UNK     1      18.586   3.959  33.581  1.00  0.00     0.047 A 
HETATM    7  C4  UNK     1      18.493   5.000  31.515  1.00  0.00     0.264 A 
HETATM    8  C7  UNK     1      18.064   1.644  33.119  1.00  0.00     0.032 A 
HETATM    9  C8  UNK     1      18.728   3.714  34.936  1.00  0.00     0.032 A 
HETATM   10  C11 UNK     1      18.204   1.379  34.484  1.00  0.00     0.011 A 
HETATM   11  C12 UNK     1      18.533   2.406  35.385  1.00  0.00     0.021 A 
ENDROOT
BRANCH   4  12
HETATM   12  O1  UNK     1      16.851   3.401  30.807  1.00  0.00    -0.375 OA
HETATM   13  H7  UNK     1      16.829   2.743  30.092  1.00  0.00     0.211 HD
ENDBRANCH   4  12
BRANCH   4  14
HETATM   14  C5  UNK     1      19.160   2.873  30.320  1.00  0.00     0.137 C 
BRANCH  14  15
HETATM   15  C9  UNK     1      18.547   1.725  29.547  1.00  0.00     0.169 C 
HETATM   16  O3  UNK     1      17.581   1.841  28.800  1.00  0.00    -0.292 OA
BRANCH  15  17
HETATM   17  C13 UNK     1      19.177   0.402  29.733  1.00  0.00     0.086 A 
HETATM   18  C16 UNK     1      19.493   0.069  30.990  1.00  0.00     0.035 A 
HETATM   19  C18 UNK     1      20.119  -1.215  31.272  1.00  0.00    -0.001 A 
HETATM   20  C21 UNK     1      20.381  -2.083  30.216  1.00  0.00     0.089 A 
HETATM   21  C23 UNK     1      20.465  -1.605  32.568  1.00  0.00     0.014 A 
HETATM   22  O4  UNK     1      20.045  -1.725  28.897  1.00  0.00    -0.274 OA
HETATM   23  C24 UNK     1      20.978  -3.325  30.420  1.00  0.00     0.038 A 
HETATM   24  C17 UNK     1      19.447  -0.506  28.594  1.00  0.00     0.302 A 
HETATM   25  O5  UNK     1      19.159  -0.204  27.442  1.00  0.00    -0.259 OA
HETATM   26  C26 UNK     1      21.320  -3.706  31.716  1.00  0.00     0.003 A 
HETATM   27  C25 UNK     1      21.064  -2.848  32.788  1.00  0.00     0.001 A 
ENDBRANCH  15  17
ENDBRANCH  14  15
ENDBRANCH   4  14
BRANCH   3  28
HETATM   28  C6  UNK     1      19.051   6.418  33.532  1.00  0.00     0.170 C 
BRANCH  28  29
HETATM   29  C10 UNK     1      17.847   7.300  33.692  1.00  0.00    -0.040 A 
HETATM   30  C14 UNK     1      17.988   8.679  33.596  1.00  0.00     0.009 A 
HETATM   31  C19 UNK     1      16.869   9.499  33.744  1.00  0.00     0.001 A 
HETATM   32  C22 UNK     1      15.617   8.934  33.987  1.00  0.00     0.000 A 
HETATM   33  C20 UNK     1      15.484   7.549  34.081  1.00  0.00     0.001 A 
HETATM   34  C15 UNK     1      16.603   6.729  33.933  1.00  0.00     0.009 A 
ENDBRANCH  28  29
ENDBRANCH   3  28
TORSDOF 6
ENDMDL
MODEL 8
REMARK VINA RESULT:      -9.1     12.478     15.570
REMARK  6 active torsions:
REMARK  status: ('A' for Active; 'I' for Inactive)
REMARK    1  A    between atoms: C1_8  and  O1_2 
REMARK    2  A    between atoms: C6_13  and  N1_7 
REMARK    3  A    between atoms: C1_8  and  C5_12 
REMARK    4  A    between atoms: C5_12  and  C9_16 
REMARK    5  A    between atoms: C10_17  and  C6_13 
REMARK    6  A    between atoms: C13_20  and  C9_16 
ROOT
HETATM    1 Br1  UNK     1      36.622  -9.710  30.840  1.00  0.00    -0.051 Br
HETATM    2  O2  UNK     1      30.408  -5.896  33.322  1.00  0.00    -0.269 OA
HETATM    3  N1  UNK     1      31.478  -6.592  31.337  1.00  0.00    -0.310 N 
HETATM    4  C1  UNK     1      32.494  -7.195  33.391  1.00  0.00     0.175 A 
HETATM    5  C2  UNK     1      33.284  -7.683  32.210  1.00  0.00     0.014 A 
HETATM    6  C3  UNK     1      32.646  -7.305  31.028  1.00  0.00     0.047 A 
HETATM    7  C4  UNK     1      31.305  -6.472  32.723  1.00  0.00     0.264 A 
HETATM    8  C7  UNK     1      34.469  -8.399  32.178  1.00  0.00     0.032 A 
HETATM    9  C8  UNK     1      33.163  -7.627  29.785  1.00  0.00     0.032 A 
HETATM   10  C11 UNK     1      35.005  -8.733  30.931  1.00  0.00     0.011 A 
HETATM   11  C12 UNK     1      34.357  -8.350  29.745  1.00  0.00     0.021 A 
ENDROOT
BRANCH   4  12
HETATM   12  O1  UNK     1      33.246  -6.241  34.115  1.00  0.00    -0.375 OA
HETATM   13  H7  UNK     1      32.743  -5.410  34.157  1.00  0.00     0.211 HD
ENDBRANCH   4  12
BRANCH   4  14
HETATM   14  C5  UNK     1      32.015  -8.314  34.303  1.00  0.00     0.137 C 
BRANCH  14  15
HETATM   15  C9  UNK     1      32.391  -8.076  35.751  1.00  0.00     0.169 C 
HETATM   16  O3  UNK     1      33.540  -8.135  36.178  1.00  0.00    -0.292 OA
BRANCH  15  17
HETATM   17  C13 UNK     1      31.280  -7.758  36.670  1.00  0.00     0.086 A 
HETATM   18  C16 UNK     1      30.651  -8.803  37.221  1.00  0.00     0.035 A 
HETATM   19  C18 UNK     1      29.542  -8.589  38.140  1.00  0.00    -0.001 A 
HETATM   20  C21 UNK     1      29.152  -7.286  38.432  1.00  0.00     0.089 A 
HETATM   21  C23 UNK     1      28.857  -9.649  38.738  1.00  0.00     0.014 A 
HETATM   22  O4  UNK     1      29.820  -6.192  37.849  1.00  0.00    -0.274 OA
HETATM   23  C24 UNK     1      28.099  -7.014  39.304  1.00  0.00     0.038 A 
HETATM   24  C17 UNK     1      30.882  -6.363  36.967  1.00  0.00     0.302 A 
HETATM   25  O5  UNK     1      31.456  -5.404  36.465  1.00  0.00    -0.259 OA
HETATM   26  C26 UNK     1      27.421  -8.078  39.896  1.00  0.00     0.003 A 
HETATM   27  C25 UNK     1      27.799  -9.392  39.614  1.00  0.00     0.001 A 
ENDBRANCH  15  17
ENDBRANCH  14  15
ENDBRANCH   4  14
BRANCH   3  28
HETATM   28  C6  UNK     1      30.592  -6.053  30.334  1.00  0.00     0.170 C 
BRANCH  28  29
HETATM   29  C10 UNK     1      29.298  -6.812  30.261  1.00  0.00    -0.040 A 
HETATM   30  C14 UNK     1      28.115  -6.190  30.643  1.00  0.00     0.009 A 
HETATM   31  C19 UNK     1      26.913  -6.895  30.576  1.00  0.00     0.001 A 
HETATM   32  C22 UNK     1      26.904  -8.217  30.128  1.00  0.00     0.000 A 
HETATM   33  C20 UNK     1      28.095  -8.833  29.747  1.00  0.00     0.001 A 
HETATM   34  C15 UNK     1      29.297  -8.128  29.814  1.00  0.00     0.009 A 
ENDBRANCH  28  29
ENDBRANCH   3  28
TORSDOF 6
ENDMDL
MODEL 9
REMARK VINA RESULT:      -9.0     11.863     15.036
REMARK  6 active torsions:
REMARK  status: ('A' for Active; 'I' for Inactive)
REMARK    1  A    between atoms: C1_8  and  O1_2 
REMARK    2  A    between atoms: C6_13  and  N1_7 
REMARK    3  A    between atoms: C1_8  and  C5_12 
REMARK    4  A    between atoms: C5_12  and  C9_16 
REMARK    5  A    between atoms: C10_17  and  C6_13 
REMARK    6  A    between atoms: C13_20  and  C9_16 
ROOT
HETATM    1 Br1  UNK     1      30.684 -11.794  32.513  1.00  0.00    -0.051 Br
HETATM    2  O2  UNK     1      32.242  -8.231  39.161  1.00  0.00    -0.269 OA
HETATM    3  N1  UNK     1      32.934  -8.320  36.906  1.00  0.00    -0.310 N 
HETATM    4  C1  UNK     1      31.132  -9.717  37.550  1.00  0.00     0.175 A 
HETATM    5  C2  UNK     1      31.481  -9.886  36.098  1.00  0.00     0.014 A 
HETATM    6  C3  UNK     1      32.544  -9.043  35.770  1.00  0.00     0.047 A 
HETATM    7  C4  UNK     1      32.151  -8.659  38.019  1.00  0.00     0.264 A 
HETATM    8  C7  UNK     1      30.913 -10.714  35.145  1.00  0.00     0.032 A 
HETATM    9  C8  UNK     1      33.070  -8.997  34.490  1.00  0.00     0.032 A 
HETATM   10  C11 UNK     1      31.431 -10.680  33.847  1.00  0.00     0.011 A 
HETATM   11  C12 UNK     1      32.501  -9.828  33.523  1.00  0.00     0.021 A 
ENDROOT
BRANCH   4  12
HETATM   12  O1  UNK     1      31.385 -10.920  38.250  1.00  0.00    -0.375 OA
HETATM   13  H7  UNK     1      31.357 -10.740  39.204  1.00  0.00     0.211 HD
ENDBRANCH   4  12
BRANCH   4  14
HETATM   14  C5  UNK     1      29.703  -9.247  37.778  1.00  0.00     0.137 C 
BRANCH  14  15
HETATM   15  C9  UNK     1      29.563  -7.746  37.633  1.00  0.00     0.169 C 
HETATM   16  O3  UNK     1      29.790  -6.947  38.537  1.00  0.00    -0.292 OA
BRANCH  15  17
HETATM   17  C13 UNK     1      29.124  -7.255  36.312  1.00  0.00     0.086 A 
HETATM   18  C16 UNK     1      30.085  -6.799  35.500  1.00  0.00     0.035 A 
HETATM   19  C18 UNK     1      29.748  -6.295  34.177  1.00  0.00    -0.001 A 
HETATM   20  C21 UNK     1      28.417  -6.295  33.775  1.00  0.00     0.089 A 
HETATM   21  C23 UNK     1      30.719  -5.810  33.297  1.00  0.00     0.014 A 
HETATM   22  O4  UNK     1      27.410  -6.777  34.634  1.00  0.00    -0.274 OA
HETATM   23  C24 UNK     1      28.029  -5.825  32.522  1.00  0.00     0.038 A 
HETATM   24  C17 UNK     1      27.700  -7.265  35.905  1.00  0.00     0.302 A 
HETATM   25  O5  UNK     1      26.817  -7.682  36.645  1.00  0.00    -0.259 OA
HETATM   26  C26 UNK     1      29.003  -5.343  31.650  1.00  0.00     0.003 A 
HETATM   27  C25 UNK     1      30.345  -5.335  32.037  1.00  0.00     0.001 A 
ENDBRANCH  15  17
ENDBRANCH  14  15
ENDBRANCH   4  14
BRANCH   3  28
HETATM   28  C6  UNK     1      34.015  -7.364  36.904  1.00  0.00     0.170 C 
BRANCH  28  29
HETATM   29  C10 UNK     1      33.555  -5.999  36.481  1.00  0.00    -0.040 A 
HETATM   30  C14 UNK     1      34.026  -5.454  35.292  1.00  0.00     0.009 A 
HETATM   31  C19 UNK     1      33.599  -4.185  34.898  1.00  0.00     0.001 A 
HETATM   32  C22 UNK     1      32.705  -3.471  35.697  1.00  0.00     0.000 A 
HETATM   33  C20 UNK     1      32.238  -4.025  36.888  1.00  0.00     0.001 A 
HETATM   34  C15 UNK     1      32.665  -5.293  37.281  1.00  0.00     0.009 A 
ENDBRANCH  28  29
ENDBRANCH   3  28
TORSDOF 6
ENDMDL
MODEL 10
REMARK VINA RESULT:      -9.0      8.810     13.631
REMARK  6 active torsions:
REMARK  status: ('A' for Active; 'I' for Inactive)
REMARK    1  A    between atoms: C1_8  and  O1_2 
REMARK    2  A    between atoms: C6_13  and  N1_7 
REMARK    3  A    between atoms: C1_8  and  C5_12 
REMARK    4  A    between atoms: C5_12  and  C9_16 
REMARK    5  A    between atoms: C10_17  and  C6_13 
REMARK    6  A    between atoms: C13_20  and  C9_16 
ROOT
HETATM    1 Br1  UNK     1      11.745  12.262  37.447  1.00  0.00    -0.051 Br
HETATM    2  O2  UNK     1      18.094  10.654  33.393  1.00  0.00    -0.269 OA
HETATM    3  N1  UNK     1      17.178  12.297  34.819  1.00  0.00    -0.310 N 
HETATM    4  C1  UNK     1      15.854  10.385  34.369  1.00  0.00     0.175 A 
HETATM    5  C2  UNK     1      15.148  11.357  35.273  1.00  0.00     0.014 A 
HETATM    6  C3  UNK     1      15.968  12.462  35.507  1.00  0.00     0.047 A 
HETATM    7  C4  UNK     1      17.202  11.090  34.108  1.00  0.00     0.264 A 
HETATM    8  C7  UNK     1      13.887  11.276  35.839  1.00  0.00     0.032 A 
HETATM    9  C8  UNK     1      15.561  13.514  36.310  1.00  0.00     0.032 A 
HETATM   10  C11 UNK     1      13.460  12.330  36.652  1.00  0.00     0.011 A 
HETATM   11  C12 UNK     1      14.291  13.439  36.885  1.00  0.00     0.021 A 
ENDROOT
BRANCH   4  12
HETATM   12  O1  UNK     1      15.163  10.277  33.141  1.00  0.00    -0.375 OA
HETATM   13  H7  UNK     1      14.465   9.608  33.230  1.00  0.00     0.211 HD
ENDBRANCH   4  12
BRANCH   4  14
HETATM   14  C5  UNK     1      16.061   9.016  34.998  1.00  0.00     0.137 C 
BRANCH  14  15
HETATM   15  C9  UNK     1      15.631   7.891  34.079  1.00  0.00     0.169 C 
HETATM   16  O3  UNK     1      14.531   7.348  34.130  1.00  0.00    -0.292 OA
BRANCH  15  17
HETATM   17  C13 UNK     1      16.623   7.450  33.078  1.00  0.00     0.086 A 
HETATM   18  C16 UNK     1      17.830   7.117  33.549  1.00  0.00     0.035 A 
HETATM   19  C18 UNK     1      18.874   6.670  32.638  1.00  0.00    -0.001 A 
HETATM   20  C21 UNK     1      18.594   6.598  31.277  1.00  0.00     0.089 A 
HETATM   21  C23 UNK     1      20.148   6.311  33.085  1.00  0.00     0.014 A 
HETATM   22  O4  UNK     1      17.321   6.950  30.789  1.00  0.00    -0.274 OA
HETATM   23  C24 UNK     1      19.549   6.178  30.353  1.00  0.00     0.038 A 
HETATM   24  C17 UNK     1      16.303   7.381  31.634  1.00  0.00     0.302 A 
HETATM   25  O5  UNK     1      15.198   7.686  31.199  1.00  0.00    -0.259 OA
HETATM   26  C26 UNK     1      20.818   5.822  30.808  1.00  0.00     0.003 A 
HETATM   27  C25 UNK     1      21.117   5.889  32.170  1.00  0.00     0.001 A 
ENDBRANCH  15  17
ENDBRANCH  14  15
ENDBRANCH   4  14
BRANCH   3  28
HETATM   28  C6  UNK     1      18.244  13.271  34.849  1.00  0.00     0.170 C 
BRANCH  28  29
HETATM   29  C10 UNK     1      18.175  14.214  33.683  1.00  0.00    -0.040 A 
HETATM   30  C14 UNK     1      17.364  15.341  33.757  1.00  0.00     0.009 A 
HETATM   31  C19 UNK     1      17.299  16.217  32.673  1.00  0.00     0.001 A 
HETATM   32  C22 UNK     1      18.046  15.960  31.523  1.00  0.00     0.000 A 
HETATM   33  C20 UNK     1      18.857  14.828  31.457  1.00  0.00     0.001 A 
HETATM   34  C15 UNK     1      18.922  13.952  32.540  1.00  0.00     0.009 A 
ENDBRANCH  28  29
ENDBRANCH   3  28
TORSDOF 6
ENDMDL
