MODEL 1
REMARK VINA RESULT:      -7.6      0.000      0.000
REMARK  9 active torsions:
REMARK  status: ('A' for Active; 'I' for Inactive)
REMARK    1  A    between atoms: C3_10  and  O1_1 
REMARK    2  A    between atoms: C4_11  and  O2_2 
REMARK    3  A    between atoms: C5_12  and  O3_3 
REMARK    4  A    between atoms: C8_15  and  O4_4 
REMARK    5  A    between atoms: C9_16  and  O5_5 
REMARK    6  A    between atoms: C10_17  and  O6_6 
REMARK    7  A    between atoms: C1_8  and  C13_20 
REMARK    8  A    between atoms: C14_21  and  C2_9 
REMARK    9  A    between atoms: C13_20  and  C15_22 
ROOT
HETATM    1  O7  UNK     1      18.728   5.840  30.563  1.00  0.00    -0.288 OA
HETATM    2  C13 UNK     1      18.250   5.558  31.657  1.00  0.00     0.182 C 
ENDROOT
BRANCH   2   3
HETATM    3  C1  UNK     1      17.717   6.634  32.526  1.00  0.00     0.019 A 
HETATM    4  C6  UNK     1      18.584   7.593  33.010  1.00  0.00     0.055 A 
HETATM    5  C4  UNK     1      18.083   8.604  33.830  1.00  0.00     0.105 A 
HETATM    6  C3  UNK     1      16.726   8.636  34.148  1.00  0.00     0.135 A 
HETATM    7  C5  UNK     1      15.868   7.655  33.647  1.00  0.00     0.105 A 
HETATM    8  C7  UNK     1      16.369   6.644  32.828  1.00  0.00     0.055 A 
BRANCH   5   9
HETATM    9  O2  UNK     1      18.930   9.554  34.314  1.00  0.00    -0.353 OA
HETATM   10  C17 UNK     1      20.290   9.172  34.509  1.00  0.00     0.210 C 
ENDBRANCH   5   9
BRANCH   6  11
HETATM   11  O1  UNK     1      16.235   9.624  34.949  1.00  0.00    -0.351 OA
HETATM   12  C16 UNK     1      15.794  10.818  34.308  1.00  0.00     0.210 C 
ENDBRANCH   6  11
BRANCH   7  13
HETATM   13  O3  UNK     1      14.540   7.674  33.950  1.00  0.00    -0.353 OA
HETATM   14  C18 UNK     1      13.632   7.334  32.904  1.00  0.00     0.210 C 
ENDBRANCH   7  13
ENDBRANCH   2   3
BRANCH   2  15
HETATM   15  C15 UNK     1      18.149   4.155  32.150  1.00  0.00     0.056 C 
HETATM   16  C14 UNK     1      18.423   3.865  33.442  1.00  0.00     0.015 C 
BRANCH  16  17
HETATM   17  C2  UNK     1      18.373   2.536  34.031  1.00  0.00    -0.031 A 
HETATM   18  C11 UNK     1      18.231   1.415  33.212  1.00  0.00     0.051 A 
HETATM   19  C9  UNK     1      18.184   0.141  33.776  1.00  0.00     0.105 A 
HETATM   20  C8  UNK     1      18.277  -0.014  35.160  1.00  0.00     0.135 A 
HETATM   21  C10 UNK     1      18.419   1.107  35.978  1.00  0.00     0.105 A 
HETATM   22  C12 UNK     1      18.467   2.382  35.414  1.00  0.00     0.051 A 
BRANCH  19  23
HETATM   23  O5  UNK     1      18.045  -0.946  32.966  1.00  0.00    -0.353 OA
HETATM   24  C20 UNK     1      19.182  -1.326  32.192  1.00  0.00     0.210 C 
ENDBRANCH  19  23
BRANCH  20  25
HETATM   25  O4  UNK     1      18.231  -1.259  35.712  1.00  0.00    -0.351 OA
HETATM   26  C19 UNK     1      19.475  -1.929  35.903  1.00  0.00     0.210 C 
ENDBRANCH  20  25
BRANCH  21  27
HETATM   27  O6  UNK     1      18.512   0.970  37.331  1.00  0.00    -0.353 OA
HETATM   28  C21 UNK     1      17.345   1.270  38.094  1.00  0.00     0.210 C 
ENDBRANCH  21  27
ENDBRANCH  16  17
ENDBRANCH   2  15
TORSDOF 9
ENDMDL
MODEL 2
REMARK VINA RESULT:      -7.6      0.297      2.399
REMARK  9 active torsions:
REMARK  status: ('A' for Active; 'I' for Inactive)
REMARK    1  A    between atoms: C3_10  and  O1_1 
REMARK    2  A    between atoms: C4_11  and  O2_2 
REMARK    3  A    between atoms: C5_12  and  O3_3 
REMARK    4  A    between atoms: C8_15  and  O4_4 
REMARK    5  A    between atoms: C9_16  and  O5_5 
REMARK    6  A    between atoms: C10_17  and  O6_6 
REMARK    7  A    between atoms: C1_8  and  C13_20 
REMARK    8  A    between atoms: C14_21  and  C2_9 
REMARK    9  A    between atoms: C13_20  and  C15_22 
ROOT
HETATM    1  O7  UNK     1      18.790   5.719  30.276  1.00  0.00    -0.288 OA
HETATM    2  C13 UNK     1      18.336   5.432  31.378  1.00  0.00     0.182 C 
ENDROOT
BRANCH   2   3
HETATM    3  C1  UNK     1      17.738   6.491  32.226  1.00  0.00     0.019 A 
HETATM    4  C6  UNK     1      18.558   7.474  32.744  1.00  0.00     0.055 A 
HETATM    5  C4  UNK     1      17.997   8.470  33.543  1.00  0.00     0.105 A 
HETATM    6  C3  UNK     1      16.628   8.463  33.808  1.00  0.00     0.135 A 
HETATM    7  C5  UNK     1      15.819   7.459  33.272  1.00  0.00     0.105 A 
HETATM    8  C7  UNK     1      16.380   6.463  32.474  1.00  0.00     0.055 A 
BRANCH   5   9
HETATM    9  O2  UNK     1      18.797   9.443  34.060  1.00  0.00    -0.353 OA
HETATM   10  C17 UNK     1      20.087   9.045  34.521  1.00  0.00     0.210 C 
ENDBRANCH   5   9
BRANCH   6  11
HETATM   11  O1  UNK     1      16.079   9.436  34.589  1.00  0.00    -0.351 OA
HETATM   12  C16 UNK     1      15.627  10.616  33.930  1.00  0.00     0.210 C 
ENDBRANCH   6  11
BRANCH   7  13
HETATM   13  O3  UNK     1      14.480   7.441  33.522  1.00  0.00    -0.353 OA
HETATM   14  C18 UNK     1      13.612   7.321  32.397  1.00  0.00     0.210 C 
ENDBRANCH   7  13
ENDBRANCH   2   3
BRANCH   2  15
HETATM   15  C15 UNK     1      18.327   4.038  31.904  1.00  0.00     0.056 C 
HETATM   16  C14 UNK     1      18.322   3.811  33.236  1.00  0.00     0.015 C 
BRANCH  16  17
HETATM   17  C2  UNK     1      18.329   2.498  33.863  1.00  0.00    -0.031 A 
HETATM   18  C11 UNK     1      18.433   2.389  35.250  1.00  0.00     0.051 A 
HETATM   19  C9  UNK     1      18.440   1.130  35.851  1.00  0.00     0.105 A 
HETATM   20  C8  UNK     1      18.346  -0.019  35.065  1.00  0.00     0.135 A 
HETATM   21  C10 UNK     1      18.242   0.091  33.678  1.00  0.00     0.105 A 
HETATM   22  C12 UNK     1      18.234   1.350  33.077  1.00  0.00     0.051 A 
BRANCH  19  23
HETATM   23  O5  UNK     1      18.541   1.036  37.206  1.00  0.00    -0.353 OA
HETATM   24  C20 UNK     1      17.346   1.234  37.961  1.00  0.00     0.210 C 
ENDBRANCH  19  23
BRANCH  20  25
HETATM   25  O4  UNK     1      18.352  -1.249  35.653  1.00  0.00    -0.351 OA
HETATM   26  C19 UNK     1      19.624  -1.854  35.875  1.00  0.00     0.210 C 
ENDBRANCH  20  25
BRANCH  21  27
HETATM   27  O6  UNK     1      18.149  -1.023  32.900  1.00  0.00    -0.353 OA
HETATM   28  C21 UNK     1      19.295  -1.370  32.126  1.00  0.00     0.210 C 
ENDBRANCH  21  27
ENDBRANCH  16  17
ENDBRANCH   2  15
TORSDOF 9
ENDMDL
MODEL 3
REMARK VINA RESULT:      -7.5      1.601      2.196
REMARK  9 active torsions:
REMARK  status: ('A' for Active; 'I' for Inactive)
REMARK    1  A    between atoms: C3_10  and  O1_1 
REMARK    2  A    between atoms: C4_11  and  O2_2 
REMARK    3  A    between atoms: C5_12  and  O3_3 
REMARK    4  A    between atoms: C8_15  and  O4_4 
REMARK    5  A    between atoms: C9_16  and  O5_5 
REMARK    6  A    between atoms: C10_17  and  O6_6 
REMARK    7  A    between atoms: C1_8  and  C13_20 
REMARK    8  A    between atoms: C14_21  and  C2_9 
REMARK    9  A    between atoms: C13_20  and  C15_22 
ROOT
HETATM    1  O7  UNK     1      19.305   6.174  29.389  1.00  0.00    -0.288 OA
HETATM    2  C13 UNK     1      19.102   5.728  30.513  1.00  0.00     0.182 C 
ENDROOT
BRANCH   2   3
HETATM    3  C1  UNK     1      18.475   6.591  31.543  1.00  0.00     0.019 A 
HETATM    4  C6  UNK     1      19.210   6.941  32.658  1.00  0.00     0.055 A 
HETATM    5  C4  UNK     1      18.619   7.751  33.629  1.00  0.00     0.105 A 
HETATM    6  C3  UNK     1      17.307   8.193  33.465  1.00  0.00     0.135 A 
HETATM    7  C5  UNK     1      16.584   7.826  32.329  1.00  0.00     0.105 A 
HETATM    8  C7  UNK     1      17.174   7.016  31.359  1.00  0.00     0.055 A 
BRANCH   5   9
HETATM    9  O2  UNK     1      19.335   8.101  34.733  1.00  0.00    -0.353 OA
HETATM   10  C17 UNK     1      20.313   9.128  34.574  1.00  0.00     0.210 C 
ENDBRANCH   5   9
BRANCH   6  11
HETATM   11  O1  UNK     1      16.730   8.985  34.413  1.00  0.00    -0.351 OA
HETATM   12  C16 UNK     1      16.780  10.393  34.199  1.00  0.00     0.210 C 
ENDBRANCH   6  11
BRANCH   7  13
HETATM   13  O3  UNK     1      15.302   8.252  32.155  1.00  0.00    -0.353 OA
HETATM   14  C18 UNK     1      14.268   7.289  32.350  1.00  0.00     0.210 C 
ENDBRANCH   7  13
ENDBRANCH   2   3
BRANCH   2  15
HETATM   15  C15 UNK     1      19.431   4.325  30.892  1.00  0.00     0.056 C 
HETATM   16  C14 UNK     1      18.448   3.459  31.223  1.00  0.00     0.015 C 
BRANCH  16  17
HETATM   17  C2  UNK     1      18.650   2.075  31.624  1.00  0.00    -0.031 A 
HETATM   18  C11 UNK     1      19.212   1.165  30.729  1.00  0.00     0.051 A 
HETATM   19  C9  UNK     1      19.406  -0.162  31.113  1.00  0.00     0.105 A 
HETATM   20  C8  UNK     1      19.035  -0.579  32.392  1.00  0.00     0.135 A 
HETATM   21  C10 UNK     1      18.473   0.332  33.287  1.00  0.00     0.105 A 
HETATM   22  C12 UNK     1      18.279   1.659  32.903  1.00  0.00     0.051 A 
BRANCH  19  23
HETATM   23  O5  UNK     1      19.957  -1.041  30.230  1.00  0.00    -0.353 OA
HETATM   24  C20 UNK     1      20.420  -0.509  28.990  1.00  0.00     0.210 C 
ENDBRANCH  19  23
BRANCH  20  25
HETATM   25  O4  UNK     1      19.225  -1.876  32.767  1.00  0.00    -0.351 OA
HETATM   26  C19 UNK     1      20.485  -2.205  33.347  1.00  0.00     0.210 C 
ENDBRANCH  20  25
BRANCH  21  27
HETATM   27  O6  UNK     1      18.106  -0.063  34.538  1.00  0.00    -0.353 OA
HETATM   28  C21 UNK     1      18.655   0.666  35.634  1.00  0.00     0.210 C 
ENDBRANCH  21  27
ENDBRANCH  16  17
ENDBRANCH   2  15
TORSDOF 9
ENDMDL
MODEL 4
REMARK VINA RESULT:      -7.5      4.955     12.520
REMARK  9 active torsions:
REMARK  status: ('A' for Active; 'I' for Inactive)
REMARK    1  A    between atoms: C3_10  and  O1_1 
REMARK    2  A    between atoms: C4_11  and  O2_2 
REMARK    3  A    between atoms: C5_12  and  O3_3 
REMARK    4  A    between atoms: C8_15  and  O4_4 
REMARK    5  A    between atoms: C9_16  and  O5_5 
REMARK    6  A    between atoms: C10_17  and  O6_6 
REMARK    7  A    between atoms: C1_8  and  C13_20 
REMARK    8  A    between atoms: C14_21  and  C2_9 
REMARK    9  A    between atoms: C13_20  and  C15_22 
ROOT
HETATM    1  O7  UNK     1      22.089  -4.536  37.637  1.00  0.00    -0.288 OA
HETATM    2  C13 UNK     1      20.929  -4.786  37.327  1.00  0.00     0.182 C 
ENDROOT
BRANCH   2   3
HETATM    3  C1  UNK     1      20.401  -6.160  37.501  1.00  0.00     0.019 A 
HETATM    4  C6  UNK     1      20.901  -6.944  38.522  1.00  0.00     0.055 A 
HETATM    5  C4  UNK     1      20.406  -8.238  38.684  1.00  0.00     0.105 A 
HETATM    6  C3  UNK     1      19.422  -8.721  37.823  1.00  0.00     0.135 A 
HETATM    7  C5  UNK     1      18.931  -7.910  36.799  1.00  0.00     0.105 A 
HETATM    8  C7  UNK     1      19.426  -6.617  36.636  1.00  0.00     0.055 A 
BRANCH   5   9
HETATM    9  O2  UNK     1      20.894  -9.020  39.687  1.00  0.00    -0.353 OA
HETATM   10  C17 UNK     1      22.186  -8.691  40.195  1.00  0.00     0.210 C 
ENDBRANCH   5   9
BRANCH   6  11
HETATM   11  O1  UNK     1      18.937  -9.986  37.982  1.00  0.00    -0.351 OA
HETATM   12  C16 UNK     1      19.685 -11.045  37.390  1.00  0.00     0.210 C 
ENDBRANCH   6  11
BRANCH   7  13
HETATM   13  O3  UNK     1      17.969  -8.370  35.951  1.00  0.00    -0.353 OA
HETATM   14  C18 UNK     1      17.118  -7.397  35.348  1.00  0.00     0.210 C 
ENDBRANCH   7  13
ENDBRANCH   2   3
BRANCH   2  15
HETATM   15  C15 UNK     1      19.997  -3.747  36.804  1.00  0.00     0.056 C 
HETATM   16  C14 UNK     1      20.437  -2.811  35.935  1.00  0.00     0.015 C 
BRANCH  16  17
HETATM   17  C2  UNK     1      19.626  -1.742  35.372  1.00  0.00    -0.031 A 
HETATM   18  C11 UNK     1      19.066  -0.777  36.208  1.00  0.00     0.051 A 
HETATM   19  C9  UNK     1      18.288   0.247  35.669  1.00  0.00     0.105 A 
HETATM   20  C8  UNK     1      18.069   0.305  34.291  1.00  0.00     0.135 A 
HETATM   21  C10 UNK     1      18.630  -0.661  33.455  1.00  0.00     0.105 A 
HETATM   22  C12 UNK     1      19.408  -1.685  33.995  1.00  0.00     0.051 A 
BRANCH  19  23
HETATM   23  O5  UNK     1      17.747   1.184  36.496  1.00  0.00    -0.353 OA
HETATM   24  C20 UNK     1      17.614   0.834  37.873  1.00  0.00     0.210 C 
ENDBRANCH  19  23
BRANCH  20  25
HETATM   25  O4  UNK     1      17.309   1.306  33.764  1.00  0.00    -0.351 OA
HETATM   26  C19 UNK     1      17.987   2.498  33.375  1.00  0.00     0.210 C 
ENDBRANCH  20  25
BRANCH  21  27
HETATM   27  O6  UNK     1      18.424  -0.615  32.109  1.00  0.00    -0.353 OA
HETATM   28  C21 UNK     1      19.522  -0.204  31.299  1.00  0.00     0.210 C 
ENDBRANCH  21  27
ENDBRANCH  16  17
ENDBRANCH   2  15
TORSDOF 9
ENDMDL
MODEL 5
REMARK VINA RESULT:      -7.4      4.956     12.296
REMARK  9 active torsions:
REMARK  status: ('A' for Active; 'I' for Inactive)
REMARK    1  A    between atoms: C3_10  and  O1_1 
REMARK    2  A    between atoms: C4_11  and  O2_2 
REMARK    3  A    between atoms: C5_12  and  O3_3 
REMARK    4  A    between atoms: C8_15  and  O4_4 
REMARK    5  A    between atoms: C9_16  and  O5_5 
REMARK    6  A    between atoms: C10_17  and  O6_6 
REMARK    7  A    between atoms: C1_8  and  C13_20 
REMARK    8  A    between atoms: C14_21  and  C2_9 
REMARK    9  A    between atoms: C13_20  and  C15_22 
ROOT
HETATM    1  O7  UNK     1      22.205  -4.488  37.706  1.00  0.00    -0.288 OA
HETATM    2  C13 UNK     1      21.044  -4.741  37.403  1.00  0.00     0.182 C 
ENDROOT
BRANCH   2   3
HETATM    3  C1  UNK     1      20.522  -6.118  37.575  1.00  0.00     0.019 A 
HETATM    4  C6  UNK     1      21.065  -6.919  38.559  1.00  0.00     0.055 A 
HETATM    5  C4  UNK     1      20.577  -8.216  38.720  1.00  0.00     0.105 A 
HETATM    6  C3  UNK     1      19.555  -8.684  37.895  1.00  0.00     0.135 A 
HETATM    7  C5  UNK     1      19.022  -7.855  36.907  1.00  0.00     0.105 A 
HETATM    8  C7  UNK     1      19.511  -6.559  36.745  1.00  0.00     0.055 A 
BRANCH   5   9
HETATM    9  O2  UNK     1      21.106  -9.015  39.687  1.00  0.00    -0.353 OA
HETATM   10  C17 UNK     1      22.355  -8.614  40.248  1.00  0.00     0.210 C 
ENDBRANCH   5   9
BRANCH   6  11
HETATM   11  O1  UNK     1      19.076  -9.951  38.052  1.00  0.00    -0.351 OA
HETATM   12  C16 UNK     1      19.818 -11.003  37.442  1.00  0.00     0.210 C 
ENDBRANCH   6  11
BRANCH   7  13
HETATM   13  O3  UNK     1      18.023  -8.299  36.093  1.00  0.00    -0.353 OA
HETATM   14  C18 UNK     1      17.323  -7.317  35.332  1.00  0.00     0.210 C 
ENDBRANCH   7  13
ENDBRANCH   2   3
BRANCH   2  15
HETATM   15  C15 UNK     1      20.104  -3.704  36.889  1.00  0.00     0.056 C 
HETATM   16  C14 UNK     1      20.498  -2.845  35.923  1.00  0.00     0.015 C 
BRANCH  16  17
HETATM   17  C2  UNK     1      19.677  -1.786  35.358  1.00  0.00    -0.031 A 
HETATM   18  C11 UNK     1      19.445  -1.741  33.983  1.00  0.00     0.051 A 
HETATM   19  C9  UNK     1      18.658  -0.726  33.441  1.00  0.00     0.105 A 
HETATM   20  C8  UNK     1      18.103   0.247  34.273  1.00  0.00     0.135 A 
HETATM   21  C10 UNK     1      18.335   0.202  35.648  1.00  0.00     0.105 A 
HETATM   22  C12 UNK     1      19.122  -0.814  36.191  1.00  0.00     0.051 A 
BRANCH  19  23
HETATM   23  O5  UNK     1      18.439  -0.694  32.097  1.00  0.00    -0.353 OA
HETATM   24  C20 UNK     1      19.508  -0.224  31.277  1.00  0.00     0.210 C 
ENDBRANCH  19  23
BRANCH  20  25
HETATM   25  O4  UNK     1      17.333   1.239  33.743  1.00  0.00    -0.351 OA
HETATM   26  C19 UNK     1      17.994   2.451  33.386  1.00  0.00     0.210 C 
ENDBRANCH  20  25
BRANCH  21  27
HETATM   27  O6  UNK     1      17.799   1.145  36.472  1.00  0.00    -0.353 OA
HETATM   28  C21 UNK     1      16.582   0.810  37.136  1.00  0.00     0.210 C 
ENDBRANCH  21  27
ENDBRANCH  16  17
ENDBRANCH   2  15
TORSDOF 9
ENDMDL
MODEL 6
REMARK VINA RESULT:      -7.4      4.973     12.714
REMARK  9 active torsions:
REMARK  status: ('A' for Active; 'I' for Inactive)
REMARK    1  A    between atoms: C3_10  and  O1_1 
REMARK    2  A    between atoms: C4_11  and  O2_2 
REMARK    3  A    between atoms: C5_12  and  O3_3 
REMARK    4  A    between atoms: C8_15  and  O4_4 
REMARK    5  A    between atoms: C9_16  and  O5_5 
REMARK    6  A    between atoms: C10_17  and  O6_6 
REMARK    7  A    between atoms: C1_8  and  C13_20 
REMARK    8  A    between atoms: C14_21  and  C2_9 
REMARK    9  A    between atoms: C13_20  and  C15_22 
ROOT
HETATM    1  O7  UNK     1      22.162  -4.512  37.702  1.00  0.00    -0.288 OA
HETATM    2  C13 UNK     1      21.011  -4.783  37.377  1.00  0.00     0.182 C 
ENDROOT
BRANCH   2   3
HETATM    3  C1  UNK     1      20.502  -6.164  37.555  1.00  0.00     0.019 A 
HETATM    4  C6  UNK     1      19.464  -6.602  36.757  1.00  0.00     0.055 A 
HETATM    5  C4  UNK     1      18.984  -7.901  36.926  1.00  0.00     0.105 A 
HETATM    6  C3  UNK     1      19.552  -8.735  37.888  1.00  0.00     0.135 A 
HETATM    7  C5  UNK     1      20.601  -8.270  38.683  1.00  0.00     0.105 A 
HETATM    8  C7  UNK     1      21.080  -6.972  38.515  1.00  0.00     0.055 A 
BRANCH   5   9
HETATM    9  O2  UNK     1      17.959  -8.342  36.145  1.00  0.00    -0.353 OA
HETATM   10  C17 UNK     1      17.314  -7.377  35.316  1.00  0.00     0.210 C 
ENDBRANCH   5   9
BRANCH   6  11
HETATM   11  O1  UNK     1      19.083 -10.005  38.053  1.00  0.00    -0.351 OA
HETATM   12  C16 UNK     1      19.777 -11.045  37.368  1.00  0.00     0.210 C 
ENDBRANCH   6  11
BRANCH   7  13
HETATM   13  O3  UNK     1      21.165  -9.075  39.626  1.00  0.00    -0.353 OA
HETATM   14  C18 UNK     1      22.384  -8.626  40.215  1.00  0.00     0.210 C 
ENDBRANCH   7  13
ENDBRANCH   2   3
BRANCH   2  15
HETATM   15  C15 UNK     1      20.070  -3.764  36.832  1.00  0.00     0.056 C 
HETATM   16  C14 UNK     1      20.519  -2.796  36.003  1.00  0.00     0.015 C 
BRANCH  16  17
HETATM   17  C2  UNK     1      19.700  -1.742  35.424  1.00  0.00    -0.031 A 
HETATM   18  C11 UNK     1      19.141  -0.763  36.244  1.00  0.00     0.051 A 
HETATM   19  C9  UNK     1      18.355   0.247  35.690  1.00  0.00     0.105 A 
HETATM   20  C8  UNK     1      18.127   0.277  34.313  1.00  0.00     0.135 A 
HETATM   21  C10 UNK     1      18.686  -0.703  33.493  1.00  0.00     0.105 A 
HETATM   22  C12 UNK     1      19.472  -1.713  34.048  1.00  0.00     0.051 A 
BRANCH  19  23
HETATM   23  O5  UNK     1      17.816   1.199  36.502  1.00  0.00    -0.353 OA
HETATM   24  C20 UNK     1      17.232   0.752  37.725  1.00  0.00     0.210 C 
ENDBRANCH  19  23
BRANCH  20  25
HETATM   25  O4  UNK     1      17.359   1.264  33.771  1.00  0.00    -0.351 OA
HETATM   26  C19 UNK     1      18.032   2.443  33.336  1.00  0.00     0.210 C 
ENDBRANCH  20  25
BRANCH  21  27
HETATM   27  O6  UNK     1      18.470  -0.686  32.148  1.00  0.00    -0.353 OA
HETATM   28  C21 UNK     1      19.615  -0.536  31.310  1.00  0.00     0.210 C 
ENDBRANCH  21  27
ENDBRANCH  16  17
ENDBRANCH   2  15
TORSDOF 9
ENDMDL
MODEL 7
REMARK VINA RESULT:      -7.4      1.619      3.954
REMARK  9 active torsions:
REMARK  status: ('A' for Active; 'I' for Inactive)
REMARK    1  A    between atoms: C3_10  and  O1_1 
REMARK    2  A    between atoms: C4_11  and  O2_2 
REMARK    3  A    between atoms: C5_12  and  O3_3 
REMARK    4  A    between atoms: C8_15  and  O4_4 
REMARK    5  A    between atoms: C9_16  and  O5_5 
REMARK    6  A    between atoms: C10_17  and  O6_6 
REMARK    7  A    between atoms: C1_8  and  C13_20 
REMARK    8  A    between atoms: C14_21  and  C2_9 
REMARK    9  A    between atoms: C13_20  and  C15_22 
ROOT
HETATM    1  O7  UNK     1      19.236   6.361  29.411  1.00  0.00    -0.288 OA
HETATM    2  C13 UNK     1      19.047   5.906  30.534  1.00  0.00     0.182 C 
ENDROOT
BRANCH   2   3
HETATM    3  C1  UNK     1      18.431   6.758  31.579  1.00  0.00     0.019 A 
HETATM    4  C6  UNK     1      17.131   7.189  31.407  1.00  0.00     0.055 A 
HETATM    5  C4  UNK     1      16.551   7.993  32.389  1.00  0.00     0.105 A 
HETATM    6  C3  UNK     1      17.283   8.348  33.522  1.00  0.00     0.135 A 
HETATM    7  C5  UNK     1      18.596   7.899  33.673  1.00  0.00     0.105 A 
HETATM    8  C7  UNK     1      19.175   7.097  32.691  1.00  0.00     0.055 A 
BRANCH   5   9
HETATM    9  O2  UNK     1      15.269   8.425  32.229  1.00  0.00    -0.353 OA
HETATM   10  C17 UNK     1      14.234   7.583  32.732  1.00  0.00     0.210 C 
ENDBRANCH   5   9
BRANCH   6  11
HETATM   11  O1  UNK     1      16.717   9.133  34.482  1.00  0.00    -0.351 OA
HETATM   12  C16 UNK     1      16.736  10.541  34.262  1.00  0.00     0.210 C 
ENDBRANCH   6  11
BRANCH   7  13
HETATM   13  O3  UNK     1      19.322   8.238  34.775  1.00  0.00    -0.353 OA
HETATM   14  C18 UNK     1      20.280   9.284  34.623  1.00  0.00     0.210 C 
ENDBRANCH   7  13
ENDBRANCH   2   3
BRANCH   2  15
HETATM   15  C15 UNK     1      19.386   4.501  30.897  1.00  0.00     0.056 C 
HETATM   16  C14 UNK     1      18.405   3.611  31.170  1.00  0.00     0.015 C 
BRANCH  16  17
HETATM   17  C2  UNK     1      18.615   2.223  31.551  1.00  0.00    -0.031 A 
HETATM   18  C11 UNK     1      18.245   1.785  32.822  1.00  0.00     0.051 A 
HETATM   19  C9  UNK     1      18.446   0.454  33.188  1.00  0.00     0.105 A 
HETATM   20  C8  UNK     1      19.019  -0.439  32.281  1.00  0.00     0.135 A 
HETATM   21  C10 UNK     1      19.389  -0.000  31.010  1.00  0.00     0.105 A 
HETATM   22  C12 UNK     1      19.188   1.330  30.644  1.00  0.00     0.051 A 
BRANCH  19  23
HETATM   23  O5  UNK     1      18.080   0.039  34.432  1.00  0.00    -0.353 OA
HETATM   24  C20 UNK     1      18.614   0.761  35.540  1.00  0.00     0.210 C 
ENDBRANCH  19  23
BRANCH  20  25
HETATM   25  O4  UNK     1      19.215  -1.740  32.638  1.00  0.00    -0.351 OA
HETATM   26  C19 UNK     1      20.491  -2.078  33.177  1.00  0.00     0.210 C 
ENDBRANCH  20  25
BRANCH  21  27
HETATM   27  O6  UNK     1      19.949  -0.862  30.116  1.00  0.00    -0.353 OA
HETATM   28  C21 UNK     1      19.876  -0.505  28.737  1.00  0.00     0.210 C 
ENDBRANCH  21  27
ENDBRANCH  16  17
ENDBRANCH   2  15
TORSDOF 9
ENDMDL
MODEL 8
REMARK VINA RESULT:      -7.3      4.975     12.494
REMARK  9 active torsions:
REMARK  status: ('A' for Active; 'I' for Inactive)
REMARK    1  A    between atoms: C3_10  and  O1_1 
REMARK    2  A    between atoms: C4_11  and  O2_2 
REMARK    3  A    between atoms: C5_12  and  O3_3 
REMARK    4  A    between atoms: C8_15  and  O4_4 
REMARK    5  A    between atoms: C9_16  and  O5_5 
REMARK    6  A    between atoms: C10_17  and  O6_6 
REMARK    7  A    between atoms: C1_8  and  C13_20 
REMARK    8  A    between atoms: C14_21  and  C2_9 
REMARK    9  A    between atoms: C13_20  and  C15_22 
ROOT
HETATM    1  O7  UNK     1      21.895  -4.405  37.992  1.00  0.00    -0.288 OA
HETATM    2  C13 UNK     1      20.815  -4.739  37.517  1.00  0.00     0.182 C 
ENDROOT
BRANCH   2   3
HETATM    3  C1  UNK     1      20.363  -6.146  37.635  1.00  0.00     0.019 A 
HETATM    4  C6  UNK     1      19.365  -6.600  36.796  1.00  0.00     0.055 A 
HETATM    5  C4  UNK     1      18.938  -7.923  36.908  1.00  0.00     0.105 A 
HETATM    6  C3  UNK     1      19.518  -8.765  37.856  1.00  0.00     0.135 A 
HETATM    7  C5  UNK     1      20.526  -8.284  38.694  1.00  0.00     0.105 A 
HETATM    8  C7  UNK     1      20.952  -6.961  38.582  1.00  0.00     0.055 A 
BRANCH   5   9
HETATM    9  O2  UNK     1      17.953  -8.380  36.086  1.00  0.00    -0.353 OA
HETATM   10  C17 UNK     1      17.260  -7.410  35.303  1.00  0.00     0.210 C 
ENDBRANCH   5   9
BRANCH   6  11
HETATM   11  O1  UNK     1      19.101 -10.058  37.966  1.00  0.00    -0.351 OA
HETATM   12  C16 UNK     1      19.843 -11.041  37.248  1.00  0.00     0.210 C 
ENDBRANCH   6  11
BRANCH   7  13
HETATM   13  O3  UNK     1      21.101  -9.096  39.624  1.00  0.00    -0.353 OA
HETATM   14  C18 UNK     1      22.313  -8.639  40.222  1.00  0.00     0.210 C 
ENDBRANCH   7  13
ENDBRANCH   2   3
BRANCH   2  15
HETATM   15  C15 UNK     1      19.903  -3.774  36.841  1.00  0.00     0.056 C 
HETATM   16  C14 UNK     1      20.403  -2.680  36.225  1.00  0.00     0.015 C 
BRANCH  16  17
HETATM   17  C2  UNK     1      19.612  -1.663  35.549  1.00  0.00    -0.031 A 
HETATM   18  C11 UNK     1      19.481  -1.691  34.160  1.00  0.00     0.051 A 
HETATM   19  C9  UNK     1      18.722  -0.717  33.512  1.00  0.00     0.105 A 
HETATM   20  C8  UNK     1      18.096   0.287  34.252  1.00  0.00     0.135 A 
HETATM   21  C10 UNK     1      18.227   0.314  35.640  1.00  0.00     0.105 A 
HETATM   22  C12 UNK     1      18.985  -0.660  36.289  1.00  0.00     0.051 A 
BRANCH  19  23
HETATM   23  O5  UNK     1      18.602  -0.755  32.155  1.00  0.00    -0.353 OA
HETATM   24  C20 UNK     1      19.629  -1.431  31.432  1.00  0.00     0.210 C 
ENDBRANCH  19  23
BRANCH  20  25
HETATM   25  O4  UNK     1      17.354   1.239  33.618  1.00  0.00    -0.351 OA
HETATM   26  C19 UNK     1      18.030   2.430  33.223  1.00  0.00     0.210 C 
ENDBRANCH  20  25
BRANCH  21  27
HETATM   27  O6  UNK     1      17.620   1.288  36.374  1.00  0.00    -0.353 OA
HETATM   28  C21 UNK     1      16.418   0.933  37.055  1.00  0.00     0.210 C 
ENDBRANCH  21  27
ENDBRANCH  16  17
ENDBRANCH   2  15
TORSDOF 9
ENDMDL
MODEL 9
REMARK VINA RESULT:      -7.3      1.608      3.090
REMARK  9 active torsions:
REMARK  status: ('A' for Active; 'I' for Inactive)
REMARK    1  A    between atoms: C3_10  and  O1_1 
REMARK    2  A    between atoms: C4_11  and  O2_2 
REMARK    3  A    between atoms: C5_12  and  O3_3 
REMARK    4  A    between atoms: C8_15  and  O4_4 
REMARK    5  A    between atoms: C9_16  and  O5_5 
REMARK    6  A    between atoms: C10_17  and  O6_6 
REMARK    7  A    between atoms: C1_8  and  C13_20 
REMARK    8  A    between atoms: C14_21  and  C2_9 
REMARK    9  A    between atoms: C13_20  and  C15_22 
ROOT
HETATM    1  O7  UNK     1      18.799   6.179  29.682  1.00  0.00    -0.288 OA
HETATM    2  C13 UNK     1      18.684   5.592  30.753  1.00  0.00     0.182 C 
ENDROOT
BRANCH   2   3
HETATM    3  C1  UNK     1      18.129   6.308  31.927  1.00  0.00     0.019 A 
HETATM    4  C6  UNK     1      18.997   6.916  32.810  1.00  0.00     0.055 A 
HETATM    5  C4  UNK     1      18.475   7.588  33.916  1.00  0.00     0.105 A 
HETATM    6  C3  UNK     1      17.096   7.637  34.115  1.00  0.00     0.135 A 
HETATM    7  C5  UNK     1      16.237   7.014  33.208  1.00  0.00     0.105 A 
HETATM    8  C7  UNK     1      16.759   6.342  32.103  1.00  0.00     0.055 A 
BRANCH   5   9
HETATM    9  O2  UNK     1      19.323   8.191  34.795  1.00  0.00    -0.353 OA
HETATM   10  C17 UNK     1      19.937   9.407  34.373  1.00  0.00     0.210 C 
ENDBRANCH   5   9
BRANCH   6  11
HETATM   11  O1  UNK     1      16.585   8.293  35.196  1.00  0.00    -0.351 OA
HETATM   12  C16 UNK     1      16.012   9.576  34.962  1.00  0.00     0.210 C 
ENDBRANCH   6  11
BRANCH   7  13
HETATM   13  O3  UNK     1      14.888   7.054  33.390  1.00  0.00    -0.353 OA
HETATM   14  C18 UNK     1      14.094   7.445  32.271  1.00  0.00     0.210 C 
ENDBRANCH   7  13
ENDBRANCH   2   3
BRANCH   2  15
HETATM   15  C15 UNK     1      19.054   4.159  30.927  1.00  0.00     0.056 C 
HETATM   16  C14 UNK     1      18.302   3.351  31.707  1.00  0.00     0.015 C 
BRANCH  16  17
HETATM   17  C2  UNK     1      18.574   1.945  31.963  1.00  0.00    -0.031 A 
HETATM   18  C11 UNK     1      18.253   1.387  33.201  1.00  0.00     0.051 A 
HETATM   19  C9  UNK     1      18.513   0.039  33.447  1.00  0.00     0.105 A 
HETATM   20  C8  UNK     1      19.096  -0.751  32.456  1.00  0.00     0.135 A 
HETATM   21  C10 UNK     1      19.417  -0.193  31.218  1.00  0.00     0.105 A 
HETATM   22  C12 UNK     1      19.156   1.155  30.972  1.00  0.00     0.051 A 
BRANCH  19  23
HETATM   23  O5  UNK     1      18.195  -0.494  34.660  1.00  0.00    -0.353 OA
HETATM   24  C20 UNK     1      16.809  -0.588  34.983  1.00  0.00     0.210 C 
ENDBRANCH  19  23
BRANCH  20  25
HETATM   25  O4  UNK     1      19.350  -2.069  32.696  1.00  0.00    -0.351 OA
HETATM   26  C19 UNK     1      20.651  -2.400  33.177  1.00  0.00     0.210 C 
ENDBRANCH  20  25
BRANCH  21  27
HETATM   27  O6  UNK     1      19.986  -0.954  30.242  1.00  0.00    -0.353 OA
HETATM   28  C21 UNK     1      20.522  -0.265  29.113  1.00  0.00     0.210 C 
ENDBRANCH  21  27
ENDBRANCH  16  17
ENDBRANCH   2  15
TORSDOF 9
ENDMDL
MODEL 10
REMARK VINA RESULT:      -7.1      5.368     13.031
REMARK  9 active torsions:
REMARK  status: ('A' for Active; 'I' for Inactive)
REMARK    1  A    between atoms: C3_10  and  O1_1 
REMARK    2  A    between atoms: C4_11  and  O2_2 
REMARK    3  A    between atoms: C5_12  and  O3_3 
REMARK    4  A    between atoms: C8_15  and  O4_4 
REMARK    5  A    between atoms: C9_16  and  O5_5 
REMARK    6  A    between atoms: C10_17  and  O6_6 
REMARK    7  A    between atoms: C1_8  and  C13_20 
REMARK    8  A    between atoms: C14_21  and  C2_9 
REMARK    9  A    between atoms: C13_20  and  C15_22 
ROOT
HETATM    1  O7  UNK     1      20.474  -5.313  38.728  1.00  0.00    -0.288 OA
HETATM    2  C13 UNK     1      20.220  -5.545  37.551  1.00  0.00     0.182 C 
ENDROOT
BRANCH   2   3
HETATM    3  C1  UNK     1      20.494  -6.890  36.991  1.00  0.00     0.019 A 
HETATM    4  C6  UNK     1      20.777  -7.008  35.644  1.00  0.00     0.055 A 
HETATM    5  C4  UNK     1      21.032  -8.274  35.116  1.00  0.00     0.105 A 
HETATM    6  C3  UNK     1      21.000  -9.395  35.945  1.00  0.00     0.135 A 
HETATM    7  C5  UNK     1      20.712  -9.250  37.303  1.00  0.00     0.105 A 
HETATM    8  C7  UNK     1      20.456  -7.986  37.831  1.00  0.00     0.055 A 
BRANCH   5   9
HETATM    9  O2  UNK     1      21.310  -8.402  33.790  1.00  0.00    -0.353 OA
HETATM   10  C17 UNK     1      21.060  -7.267  32.962  1.00  0.00     0.210 C 
ENDBRANCH   5   9
BRANCH   6  11
HETATM   11  O1  UNK     1      21.250 -10.632  35.430  1.00  0.00    -0.351 OA
HETATM   12  C16 UNK     1      22.602 -11.082  35.452  1.00  0.00     0.210 C 
ENDBRANCH   6  11
BRANCH   7  13
HETATM   13  O3  UNK     1      20.678 -10.337  38.125  1.00  0.00    -0.353 OA
HETATM   14  C18 UNK     1      19.392 -10.820  38.507  1.00  0.00     0.210 C 
ENDBRANCH   7  13
ENDBRANCH   2   3
BRANCH   2  15
HETATM   15  C15 UNK     1      19.609  -4.530  36.647  1.00  0.00     0.056 C 
HETATM   16  C14 UNK     1      19.637  -3.219  36.975  1.00  0.00     0.015 C 
BRANCH  16  17
HETATM   17  C2  UNK     1      19.061  -2.145  36.182  1.00  0.00    -0.031 A 
HETATM   18  C11 UNK     1      18.036  -1.360  36.711  1.00  0.00     0.051 A 
HETATM   19  C9  UNK     1      17.483  -0.330  35.950  1.00  0.00     0.105 A 
HETATM   20  C8  UNK     1      17.955  -0.084  34.660  1.00  0.00     0.135 A 
HETATM   21  C10 UNK     1      18.980  -0.869  34.132  1.00  0.00     0.105 A 
HETATM   22  C12 UNK     1      19.533  -1.900  34.892  1.00  0.00     0.051 A 
BRANCH  19  23
HETATM   23  O5  UNK     1      16.483   0.430  36.478  1.00  0.00    -0.353 OA
HETATM   24  C20 UNK     1      16.852   1.392  37.465  1.00  0.00     0.210 C 
ENDBRANCH  19  23
BRANCH  20  25
HETATM   25  O4  UNK     1      17.415   0.923  33.917  1.00  0.00    -0.351 OA
HETATM   26  C19 UNK     1      18.083   2.182  33.950  1.00  0.00     0.210 C 
ENDBRANCH  20  25
BRANCH  21  27
HETATM   27  O6  UNK     1      19.449  -0.640  32.873  1.00  0.00    -0.353 OA
HETATM   28  C21 UNK     1      19.429  -1.739  31.964  1.00  0.00     0.210 C 
ENDBRANCH  21  27
ENDBRANCH  16  17
ENDBRANCH   2  15
TORSDOF 9
ENDMDL
