MODEL 1
REMARK VINA RESULT:      -8.5      0.000      0.000
REMARK  5 active torsions:
REMARK  status: ('A' for Active; 'I' for Inactive)
REMARK    1  A    between atoms: C13_20  and  O3_4 
REMARK    2  A    between atoms: C23_30  and  O3_4 
REMARK    3  A    between atoms: C1_8  and  C10_17 
REMARK    4  A    between atoms: C11_18  and  C4_11 
REMARK    5  A    between atoms: C13_20  and  C8_15 
ROOT
HETATM    1  O1  UNK     1      30.093  -5.186  32.599  1.00  0.00    -0.293 OA
HETATM    2  N1  UNK     1      33.611  -8.357  32.514  1.00  0.00    -0.362 N 
HETATM    3  C1  UNK     1      30.215  -8.378  30.903  1.00  0.00     0.038 C 
HETATM    4  C2  UNK     1      31.727  -8.640  30.964  1.00  0.00     0.068 C 
HETATM    5  C3  UNK     1      31.845  -6.786  32.664  1.00  0.00     0.024 C 
HETATM    6  C4  UNK     1      32.534  -6.087  33.832  1.00  0.00     0.104 C 
HETATM    7  C5  UNK     1      32.387  -7.879  32.086  1.00  0.00     0.021 C 
HETATM    8  C6  UNK     1      29.935  -6.875  30.918  1.00  0.00     0.094 C 
HETATM    9  C7  UNK     1      30.574  -6.212  32.120  1.00  0.00     0.159 C 
HETATM   10  C8  UNK     1      33.934  -6.639  34.109  1.00  0.00     0.052 C 
HETATM   11  C9  UNK     1      34.402  -7.734  33.466  1.00  0.00     0.018 C 
HETATM   12  C12 UNK     1      35.761  -8.352  33.657  1.00  0.00     0.069 C 
HETATM   13  H7  UNK     1      33.990  -9.172  32.045  1.00  0.00     0.165 HD
ENDROOT
BRANCH   6  14
HETATM   14  C11 UNK     1      31.683  -6.179  35.071  1.00  0.00     0.029 A 
HETATM   15  C14 UNK     1      31.436  -4.942  35.854  1.00  0.00     0.194 A 
HETATM   16  O5  UNK     1      31.898  -3.858  35.523  1.00  0.00    -0.287 OA
HETATM   17  C17 UNK     1      30.598  -5.088  37.058  1.00  0.00     0.048 A 
HETATM   18  C20 UNK     1      30.098  -6.348  37.388  1.00  0.00     0.089 A 
HETATM   19  C21 UNK     1      30.308  -3.984  37.862  1.00  0.00     0.018 A 
HETATM   20  O2  UNK     1      30.351  -7.466  36.635  1.00  0.00    -0.321 OA
HETATM   21  C22 UNK     1      29.303  -6.509  38.523  1.00  0.00     0.038 A 
HETATM   22  C16 UNK     1      31.133  -7.316  35.515  1.00  0.00     0.154 A 
HETATM   23  C25 UNK     1      29.011  -5.407  39.327  1.00  0.00     0.003 A 
HETATM   24  C24 UNK     1      29.512  -4.148  38.997  1.00  0.00     0.001 A 
ENDBRANCH   6  14
BRANCH  10  25
HETATM   25  C13 UNK     1      34.739  -5.912  35.105  1.00  0.00     0.292 C 
HETATM   26  O4  UNK     1      35.103  -4.761  34.959  1.00  0.00    -0.259 OA
BRANCH  25  27
HETATM   27  O3  UNK     1      34.974  -6.740  36.152  1.00  0.00    -0.318 OA
BRANCH  27  28
HETATM   28  C23 UNK     1      34.532  -6.253  37.422  1.00  0.00     0.174 C 
HETATM   29  C26 UNK     1      33.604  -7.273  38.047  1.00  0.00     0.034 C 
ENDBRANCH  27  28
ENDBRANCH  25  27
ENDBRANCH  10  25
BRANCH   3  30
HETATM   30  C10 UNK     1      29.565  -9.070  29.715  1.00  0.00    -0.013 A 
HETATM   31  C15 UNK     1      28.226  -9.263  29.469  1.00  0.00     0.015 A 
HETATM   32  C18 UNK     1      28.006  -9.957  28.245  1.00  0.00     0.008 A 
HETATM   33  C19 UNK     1      29.186 -10.267  27.606  1.00  0.00     0.050 A 
HETATM   34  S1  UNK     1      30.553  -9.721  28.480  1.00  0.00    -0.106 SA
ENDBRANCH   3  30
TORSDOF 5
ENDMDL
MODEL 2
REMARK VINA RESULT:      -8.0      4.464      7.937
REMARK  5 active torsions:
REMARK  status: ('A' for Active; 'I' for Inactive)
REMARK    1  A    between atoms: C13_20  and  O3_4 
REMARK    2  A    between atoms: C23_30  and  O3_4 
REMARK    3  A    between atoms: C1_8  and  C10_17 
REMARK    4  A    between atoms: C11_18  and  C4_11 
REMARK    5  A    between atoms: C13_20  and  C8_15 
ROOT
HETATM    1  O1  UNK     1      27.786 -10.125  38.718  1.00  0.00    -0.293 OA
HETATM    2  N1  UNK     1      27.958  -5.424  38.157  1.00  0.00    -0.362 N 
HETATM    3  C1  UNK     1      25.045  -7.787  38.388  1.00  0.00     0.038 C 
HETATM    4  C2  UNK     1      25.797  -6.476  38.658  1.00  0.00     0.068 C 
HETATM    5  C3  UNK     1      27.924  -7.785  38.343  1.00  0.00     0.024 C 
HETATM    6  C4  UNK     1      29.410  -7.857  38.003  1.00  0.00     0.104 C 
HETATM    7  C5  UNK     1      27.273  -6.603  38.379  1.00  0.00     0.021 C 
HETATM    8  C6  UNK     1      25.739  -8.953  39.094  1.00  0.00     0.094 C 
HETATM    9  C7  UNK     1      27.196  -9.045  38.694  1.00  0.00     0.159 C 
HETATM   10  C8  UNK     1      30.065  -6.477  37.914  1.00  0.00     0.052 C 
HETATM   11  C9  UNK     1      29.330  -5.341  37.978  1.00  0.00     0.018 C 
HETATM   12  C12 UNK     1      29.872  -3.939  37.909  1.00  0.00     0.069 C 
HETATM   13  H7  UNK     1      27.436  -4.556  38.207  1.00  0.00     0.165 HD
ENDROOT
BRANCH   6  14
HETATM   14  C11 UNK     1      29.616  -8.615  36.719  1.00  0.00     0.029 A 
HETATM   15  C14 UNK     1      30.606  -9.721  36.700  1.00  0.00     0.194 A 
HETATM   16  O5  UNK     1      31.253 -10.032  37.691  1.00  0.00    -0.287 OA
HETATM   17  C17 UNK     1      30.770 -10.428  35.417  1.00  0.00     0.048 A 
HETATM   18  C20 UNK     1      30.005 -10.030  34.320  1.00  0.00     0.089 A 
HETATM   19  C21 UNK     1      31.678 -11.483  35.296  1.00  0.00     0.018 A 
HETATM   20  O2  UNK     1      29.100  -9.002  34.382  1.00  0.00    -0.321 OA
HETATM   21  C22 UNK     1      30.145 -10.686  33.096  1.00  0.00     0.038 A 
HETATM   22  C16 UNK     1      28.958  -8.351  35.583  1.00  0.00     0.154 A 
HETATM   23  C25 UNK     1      31.050 -11.740  32.974  1.00  0.00     0.003 A 
HETATM   24  C24 UNK     1      31.815 -12.138  34.071  1.00  0.00     0.001 A 
ENDBRANCH   6  14
BRANCH  10  25
HETATM   25  C13 UNK     1      31.528  -6.455  37.760  1.00  0.00     0.292 C 
HETATM   26  O4  UNK     1      32.298  -6.780  38.644  1.00  0.00    -0.259 OA
BRANCH  25  27
HETATM   27  O3  UNK     1      31.821  -6.024  36.510  1.00  0.00    -0.318 OA
BRANCH  27  28
HETATM   28  C23 UNK     1      32.810  -6.794  35.819  1.00  0.00     0.174 C 
HETATM   29  C26 UNK     1      32.297  -7.125  34.433  1.00  0.00     0.034 C 
ENDBRANCH  27  28
ENDBRANCH  25  27
ENDBRANCH  10  25
BRANCH   3  30
HETATM   30  C10 UNK     1      23.574  -7.687  38.758  1.00  0.00    -0.013 A 
HETATM   31  C15 UNK     1      22.999  -6.984  39.789  1.00  0.00     0.015 A 
HETATM   32  C18 UNK     1      21.583  -7.136  39.813  1.00  0.00     0.008 A 
HETATM   33  C19 UNK     1      21.133  -7.950  38.797  1.00  0.00     0.050 A 
HETATM   34  S1  UNK     1      22.415  -8.528  37.820  1.00  0.00    -0.106 SA
ENDBRANCH   3  30
TORSDOF 5
ENDMDL
MODEL 3
REMARK VINA RESULT:      -7.9      1.570      2.259
REMARK  5 active torsions:
REMARK  status: ('A' for Active; 'I' for Inactive)
REMARK    1  A    between atoms: C13_20  and  O3_4 
REMARK    2  A    between atoms: C23_30  and  O3_4 
REMARK    3  A    between atoms: C1_8  and  C10_17 
REMARK    4  A    between atoms: C11_18  and  C4_11 
REMARK    5  A    between atoms: C13_20  and  C8_15 
ROOT
HETATM    1  O1  UNK     1      29.005  -6.445  33.733  1.00  0.00    -0.293 OA
HETATM    2  N1  UNK     1      33.319  -8.327  33.203  1.00  0.00    -0.362 N 
HETATM    3  C1  UNK     1      30.138  -8.837  31.269  1.00  0.00     0.038 C 
HETATM    4  C2  UNK     1      31.655  -8.668  31.430  1.00  0.00     0.068 C 
HETATM    5  C3  UNK     1      31.157  -7.432  33.566  1.00  0.00     0.024 C 
HETATM    6  C4  UNK     1      31.567  -6.937  34.949  1.00  0.00     0.104 C 
HETATM    7  C5  UNK     1      32.021  -8.111  32.782  1.00  0.00     0.021 C 
HETATM    8  C6  UNK     1      29.415  -7.546  31.654  1.00  0.00     0.094 C 
HETATM    9  C7  UNK     1      29.788  -7.108  33.054  1.00  0.00     0.159 C 
HETATM   10  C8  UNK     1      33.060  -7.126  35.227  1.00  0.00     0.052 C 
HETATM   11  C9  UNK     1      33.857  -7.810  34.372  1.00  0.00     0.018 C 
HETATM   12  C12 UNK     1      35.333  -8.047  34.543  1.00  0.00     0.069 C 
HETATM   13  H7  UNK     1      33.941  -8.829  32.579  1.00  0.00     0.165 HD
ENDROOT
BRANCH   6  14
HETATM   14  C11 UNK     1      30.750  -7.620  36.013  1.00  0.00     0.029 A 
HETATM   15  C14 UNK     1      29.945  -6.781  36.936  1.00  0.00     0.194 A 
HETATM   16  O5  UNK     1      29.926  -5.560  36.857  1.00  0.00    -0.287 OA
HETATM   17  C17 UNK     1      29.164  -7.500  37.959  1.00  0.00     0.048 A 
HETATM   18  C20 UNK     1      29.224  -8.894  38.003  1.00  0.00     0.089 A 
HETATM   19  C21 UNK     1      28.375  -6.801  38.876  1.00  0.00     0.018 A 
HETATM   20  O2  UNK     1      29.981  -9.631  37.128  1.00  0.00    -0.321 OA
HETATM   21  C22 UNK     1      28.493  -9.595  38.963  1.00  0.00     0.038 A 
HETATM   22  C16 UNK     1      30.703  -8.948  36.180  1.00  0.00     0.154 A 
HETATM   23  C25 UNK     1      27.704  -8.898  39.878  1.00  0.00     0.003 A 
HETATM   24  C24 UNK     1      27.645  -7.505  39.835  1.00  0.00     0.001 A 
ENDBRANCH   6  14
BRANCH  10  25
HETATM   25  C13 UNK     1      33.578  -6.524  36.466  1.00  0.00     0.292 C 
HETATM   26  O4  UNK     1      33.928  -7.177  37.431  1.00  0.00    -0.259 OA
BRANCH  25  27
HETATM   27  O3  UNK     1      33.583  -5.177  36.318  1.00  0.00    -0.318 OA
BRANCH  27  28
HETATM   28  C23 UNK     1      34.774  -4.634  35.740  1.00  0.00     0.174 C 
HETATM   29  C26 UNK     1      34.396  -3.741  34.578  1.00  0.00     0.034 C 
ENDBRANCH  27  28
ENDBRANCH  25  27
ENDBRANCH  10  25
BRANCH   3  30
HETATM   30  C10 UNK     1      29.762  -9.310  29.873  1.00  0.00    -0.013 A 
HETATM   31  C15 UNK     1      28.514  -9.608  29.381  1.00  0.00     0.015 A 
HETATM   32  C18 UNK     1      28.565 -10.019  28.018  1.00  0.00     0.008 A 
HETATM   33  C19 UNK     1      29.851 -10.019  27.525  1.00  0.00     0.050 A 
HETATM   34  S1  UNK     1      30.991  -9.524  28.702  1.00  0.00    -0.106 SA
ENDBRANCH   3  30
TORSDOF 5
ENDMDL
MODEL 4
REMARK VINA RESULT:      -7.8      2.038      3.060
REMARK  5 active torsions:
REMARK  status: ('A' for Active; 'I' for Inactive)
REMARK    1  A    between atoms: C13_20  and  O3_4 
REMARK    2  A    between atoms: C23_30  and  O3_4 
REMARK    3  A    between atoms: C1_8  and  C10_17 
REMARK    4  A    between atoms: C11_18  and  C4_11 
REMARK    5  A    between atoms: C13_20  and  C8_15 
ROOT
HETATM    1  O1  UNK     1      27.632  -7.230  34.115  1.00  0.00    -0.293 OA
HETATM    2  N1  UNK     1      32.206  -6.247  33.375  1.00  0.00    -0.362 N 
HETATM    3  C1  UNK     1      29.813  -8.461  31.506  1.00  0.00     0.038 C 
HETATM    4  C2  UNK     1      30.958  -7.448  31.634  1.00  0.00     0.068 C 
HETATM    5  C3  UNK     1      29.947  -6.781  33.841  1.00  0.00     0.024 C 
HETATM    6  C4  UNK     1      30.065  -6.174  35.235  1.00  0.00     0.104 C 
HETATM    7  C5  UNK     1      31.004  -6.814  33.001  1.00  0.00     0.021 C 
HETATM    8  C6  UNK     1      28.497  -7.839  31.974  1.00  0.00     0.094 C 
HETATM    9  C7  UNK     1      28.619  -7.299  33.383  1.00  0.00     0.159 C 
HETATM   10  C8  UNK     1      31.405  -5.469  35.462  1.00  0.00     0.052 C 
HETATM   11  C9  UNK     1      32.405  -5.543  34.552  1.00  0.00     0.018 C 
HETATM   12  C12 UNK     1      33.752  -4.884  34.671  1.00  0.00     0.069 C 
HETATM   13  H7  UNK     1      32.972  -6.280  32.710  1.00  0.00     0.165 HD
ENDROOT
BRANCH   6  14
HETATM   14  C11 UNK     1      29.849  -7.230  36.285  1.00  0.00     0.029 A 
HETATM   15  C14 UNK     1      28.736  -7.049  37.253  1.00  0.00     0.194 A 
HETATM   16  O5  UNK     1      27.996  -6.076  37.220  1.00  0.00    -0.287 OA
HETATM   17  C17 UNK     1      28.570  -8.112  38.261  1.00  0.00     0.048 A 
HETATM   18  C20 UNK     1      29.444  -9.200  38.252  1.00  0.00     0.089 A 
HETATM   19  C21 UNK     1      27.553  -8.035  39.216  1.00  0.00     0.018 A 
HETATM   20  O2  UNK     1      30.458  -9.327  37.338  1.00  0.00    -0.321 OA
HETATM   21  C22 UNK     1      29.304 -10.217  39.198  1.00  0.00     0.038 A 
HETATM   22  C16 UNK     1      30.603  -8.330  36.404  1.00  0.00     0.154 A 
HETATM   23  C25 UNK     1      28.289 -10.141  40.151  1.00  0.00     0.003 A 
HETATM   24  C24 UNK     1      27.416  -9.053  40.161  1.00  0.00     0.001 A 
ENDBRANCH   6  14
BRANCH  10  25
HETATM   25  C13 UNK     1      31.540  -4.708  36.714  1.00  0.00     0.292 C 
HETATM   26  O4  UNK     1      30.673  -3.972  37.147  1.00  0.00    -0.259 OA
BRANCH  25  27
HETATM   27  O3  UNK     1      32.754  -4.979  37.251  1.00  0.00    -0.318 OA
BRANCH  27  28
HETATM   28  C23 UNK     1      32.780  -6.076  38.169  1.00  0.00     0.174 C 
HETATM   29  C26 UNK     1      33.856  -7.052  37.742  1.00  0.00     0.034 C 
ENDBRANCH  27  28
ENDBRANCH  25  27
ENDBRANCH  10  25
BRANCH   3  30
HETATM   30  C10 UNK     1      29.709  -9.031  30.100  1.00  0.00    -0.013 A 
HETATM   31  C15 UNK     1      28.580  -9.413  29.416  1.00  0.00     0.015 A 
HETATM   32  C18 UNK     1      28.888  -9.900  28.113  1.00  0.00     0.008 A 
HETATM   33  C19 UNK     1      30.241  -9.870  27.855  1.00  0.00     0.050 A 
HETATM   34  S1  UNK     1      31.134  -9.256  29.180  1.00  0.00    -0.106 SA
ENDBRANCH   3  30
TORSDOF 5
ENDMDL
MODEL 5
REMARK VINA RESULT:      -7.8      2.404      5.685
REMARK  5 active torsions:
REMARK  status: ('A' for Active; 'I' for Inactive)
REMARK    1  A    between atoms: C13_20  and  O3_4 
REMARK    2  A    between atoms: C23_30  and  O3_4 
REMARK    3  A    between atoms: C1_8  and  C10_17 
REMARK    4  A    between atoms: C11_18  and  C4_11 
REMARK    5  A    between atoms: C13_20  and  C8_15 
ROOT
HETATM    1  O1  UNK     1      31.569  -9.629  35.113  1.00  0.00    -0.293 OA
HETATM    2  N1  UNK     1      32.140  -7.153  31.115  1.00  0.00    -0.362 N 
HETATM    3  C1  UNK     1      34.589  -9.107  33.191  1.00  0.00     0.038 C 
HETATM    4  C2  UNK     1      33.971  -8.600  31.880  1.00  0.00     0.068 C 
HETATM    5  C3  UNK     1      31.825  -8.299  33.163  1.00  0.00     0.024 C 
HETATM    6  C4  UNK     1      30.464  -7.637  33.352  1.00  0.00     0.104 C 
HETATM    7  C5  UNK     1      32.597  -8.016  32.092  1.00  0.00     0.021 C 
HETATM    8  C6  UNK     1      33.605 -10.018  33.925  1.00  0.00     0.094 C 
HETATM    9  C7  UNK     1      32.283  -9.319  34.159  1.00  0.00     0.159 C 
HETATM   10  C8  UNK     1      30.032  -6.814  32.136  1.00  0.00     0.052 C 
HETATM   11  C9  UNK     1      30.871  -6.597  31.096  1.00  0.00     0.018 C 
HETATM   12  C12 UNK     1      30.546  -5.813  29.853  1.00  0.00     0.069 C 
HETATM   13  H7  UNK     1      32.744  -6.977  30.319  1.00  0.00     0.165 HD
ENDROOT
BRANCH   6  14
HETATM   14  C11 UNK     1      30.468  -6.776  34.587  1.00  0.00     0.029 A 
HETATM   15  C14 UNK     1      29.442  -7.029  35.630  1.00  0.00     0.194 A 
HETATM   16  O5  UNK     1      28.600  -7.910  35.516  1.00  0.00    -0.287 OA
HETATM   17  C17 UNK     1      29.490  -6.157  36.818  1.00  0.00     0.048 A 
HETATM   18  C20 UNK     1      30.471  -5.168  36.894  1.00  0.00     0.089 A 
HETATM   19  C21 UNK     1      28.567  -6.314  37.854  1.00  0.00     0.018 A 
HETATM   20  O2  UNK     1      31.402  -4.970  35.907  1.00  0.00    -0.321 OA
HETATM   21  C22 UNK     1      30.535  -4.332  38.010  1.00  0.00     0.038 A 
HETATM   22  C16 UNK     1      31.346  -5.789  34.806  1.00  0.00     0.154 A 
HETATM   23  C25 UNK     1      29.615  -4.488  39.046  1.00  0.00     0.003 A 
HETATM   24  C24 UNK     1      28.633  -5.476  38.969  1.00  0.00     0.001 A 
ENDBRANCH   6  14
BRANCH  10  25
HETATM   25  C13 UNK     1      28.660  -6.281  32.160  1.00  0.00     0.292 C 
HETATM   26  O4  UNK     1      28.404  -5.103  32.323  1.00  0.00    -0.259 OA
BRANCH  25  27
HETATM   27  O3  UNK     1      27.798  -7.309  31.974  1.00  0.00    -0.318 OA
BRANCH  27  28
HETATM   28  C23 UNK     1      27.231  -7.397  30.663  1.00  0.00     0.174 C 
HETATM   29  C26 UNK     1      27.654  -8.706  30.030  1.00  0.00     0.034 C 
ENDBRANCH  27  28
ENDBRANCH  25  27
ENDBRANCH  10  25
BRANCH   3  30
HETATM   30  C10 UNK     1      35.933  -9.780  32.964  1.00  0.00    -0.013 A 
HETATM   31  C15 UNK     1      37.181  -9.205  32.939  1.00  0.00     0.015 A 
HETATM   32  C18 UNK     1      38.204 -10.167  32.697  1.00  0.00     0.008 A 
HETATM   33  C19 UNK     1      37.695 -11.438  32.548  1.00  0.00     0.050 A 
HETATM   34  S1  UNK     1      35.990 -11.469  32.698  1.00  0.00    -0.106 SA
ENDBRANCH   3  30
TORSDOF 5
ENDMDL
MODEL 6
REMARK VINA RESULT:      -7.8      2.953      4.425
REMARK  5 active torsions:
REMARK  status: ('A' for Active; 'I' for Inactive)
REMARK    1  A    between atoms: C13_20  and  O3_4 
REMARK    2  A    between atoms: C23_30  and  O3_4 
REMARK    3  A    between atoms: C1_8  and  C10_17 
REMARK    4  A    between atoms: C11_18  and  C4_11 
REMARK    5  A    between atoms: C13_20  and  C8_15 
ROOT
HETATM    1  O1  UNK     1      29.775  -8.977  34.003  1.00  0.00    -0.293 OA
HETATM    2  N1  UNK     1      34.157  -7.958  35.485  1.00  0.00    -0.362 N 
HETATM    3  C1  UNK     1      32.851 -10.764  33.353  1.00  0.00     0.038 C 
HETATM    4  C2  UNK     1      33.863  -9.685  33.765  1.00  0.00     0.068 C 
HETATM    5  C3  UNK     1      31.936  -8.479  34.848  1.00  0.00     0.024 C 
HETATM    6  C4  UNK     1      31.385  -7.490  35.870  1.00  0.00     0.104 C 
HETATM    7  C5  UNK     1      33.265  -8.684  34.720  1.00  0.00     0.021 C 
HETATM    8  C6  UNK     1      31.548 -10.119  32.882  1.00  0.00     0.094 C 
HETATM    9  C7  UNK     1      30.985  -9.191  33.937  1.00  0.00     0.159 C 
HETATM   10  C8  UNK     1      32.482  -6.666  36.548  1.00  0.00     0.052 C 
HETATM   11  C9  UNK     1      33.794  -6.934  36.346  1.00  0.00     0.018 C 
HETATM   12  C12 UNK     1      34.948  -6.183  36.953  1.00  0.00     0.069 C 
HETATM   13  H7  UNK     1      35.147  -8.131  35.350  1.00  0.00     0.165 HD
ENDROOT
BRANCH   6  14
HETATM   14  C11 UNK     1      30.563  -8.212  36.904  1.00  0.00     0.029 A 
HETATM   15  C14 UNK     1      29.143  -7.815  37.084  1.00  0.00     0.194 A 
HETATM   16  O5  UNK     1      28.627  -6.926  36.421  1.00  0.00    -0.287 OA
HETATM   17  C17 UNK     1      28.384  -8.552  38.111  1.00  0.00     0.048 A 
HETATM   18  C20 UNK     1      29.025  -9.556  38.838  1.00  0.00     0.089 A 
HETATM   19  C21 UNK     1      27.043  -8.253  38.357  1.00  0.00     0.018 A 
HETATM   20  O2  UNK     1      30.340  -9.892  38.638  1.00  0.00    -0.321 OA
HETATM   21  C22 UNK     1      28.326 -10.267  39.815  1.00  0.00     0.038 A 
HETATM   22  C16 UNK     1      31.035  -9.197  37.679  1.00  0.00     0.154 A 
HETATM   23  C25 UNK     1      26.985  -9.970  40.061  1.00  0.00     0.003 A 
HETATM   24  C24 UNK     1      26.345  -8.965  39.334  1.00  0.00     0.001 A 
ENDBRANCH   6  14
BRANCH  10  25
HETATM   25  C13 UNK     1      32.032  -5.570  37.422  1.00  0.00     0.292 C 
HETATM   26  O4  UNK     1      32.414  -5.431  38.569  1.00  0.00    -0.259 OA
BRANCH  25  27
HETATM   27  O3  UNK     1      31.161  -4.799  36.728  1.00  0.00    -0.318 OA
BRANCH  27  28
HETATM   28  C23 UNK     1      30.569  -3.731  37.474  1.00  0.00     0.174 C 
HETATM   29  C26 UNK     1      29.415  -4.277  38.287  1.00  0.00     0.034 C 
ENDBRANCH  27  28
ENDBRANCH  25  27
ENDBRANCH  10  25
BRANCH   3  30
HETATM   30  C10 UNK     1      33.425 -11.718  32.318  1.00  0.00    -0.013 A 
HETATM   31  C15 UNK     1      34.229 -12.814  32.521  1.00  0.00     0.015 A 
HETATM   32  C18 UNK     1      34.564 -13.462  31.298  1.00  0.00     0.008 A 
HETATM   33  C19 UNK     1      34.002 -12.834  30.209  1.00  0.00     0.050 A 
HETATM   34  S1  UNK     1      33.074 -11.469  30.662  1.00  0.00    -0.106 SA
ENDBRANCH   3  30
TORSDOF 5
ENDMDL
MODEL 7
REMARK VINA RESULT:      -7.6      3.617      8.221
REMARK  5 active torsions:
REMARK  status: ('A' for Active; 'I' for Inactive)
REMARK    1  A    between atoms: C13_20  and  O3_4 
REMARK    2  A    between atoms: C23_30  and  O3_4 
REMARK    3  A    between atoms: C1_8  and  C10_17 
REMARK    4  A    between atoms: C11_18  and  C4_11 
REMARK    5  A    between atoms: C13_20  and  C8_15 
ROOT
HETATM    1  O1  UNK     1      32.645  -8.191  33.784  1.00  0.00    -0.293 OA
HETATM    2  N1  UNK     1      28.532  -6.405  32.257  1.00  0.00    -0.362 N 
HETATM    3  C1  UNK     1      29.849  -6.977  35.730  1.00  0.00     0.038 C 
HETATM    4  C2  UNK     1      29.097  -6.203  34.638  1.00  0.00     0.068 C 
HETATM    5  C3  UNK     1      30.563  -7.391  32.971  1.00  0.00     0.024 C 
HETATM    6  C4  UNK     1      30.832  -7.914  31.564  1.00  0.00     0.104 C 
HETATM    7  C5  UNK     1      29.439  -6.699  33.256  1.00  0.00     0.021 C 
HETATM    8  C6  UNK     1      31.344  -7.026  35.413  1.00  0.00     0.094 C 
HETATM    9  C7  UNK     1      31.592  -7.608  34.038  1.00  0.00     0.159 C 
HETATM   10  C8  UNK     1      29.817  -7.404  30.539  1.00  0.00     0.052 C 
HETATM   11  C9  UNK     1      28.725  -6.699  30.916  1.00  0.00     0.018 C 
HETATM   12  C12 UNK     1      27.673  -6.145  29.993  1.00  0.00     0.069 C 
HETATM   13  H7  UNK     1      27.708  -5.871  32.509  1.00  0.00     0.165 HD
ENDROOT
BRANCH   6  14
HETATM   14  C11 UNK     1      30.861  -9.419  31.563  1.00  0.00     0.029 A 
HETATM   15  C14 UNK     1      32.002 -10.105  30.903  1.00  0.00     0.194 A 
HETATM   16  O5  UNK     1      32.911  -9.487  30.366  1.00  0.00    -0.287 OA
HETATM   17  C17 UNK     1      31.980 -11.579  30.929  1.00  0.00     0.048 A 
HETATM   18  C20 UNK     1      30.917 -12.231  31.555  1.00  0.00     0.089 A 
HETATM   19  C21 UNK     1      33.006 -12.317  30.335  1.00  0.00     0.018 A 
HETATM   20  O2  UNK     1      29.884 -11.558  32.154  1.00  0.00    -0.321 OA
HETATM   21  C22 UNK     1      30.877 -13.626  31.591  1.00  0.00     0.038 A 
HETATM   22  C16 UNK     1      29.916 -10.185  32.122  1.00  0.00     0.154 A 
HETATM   23  C25 UNK     1      31.902 -14.364  31.000  1.00  0.00     0.003 A 
HETATM   24  C24 UNK     1      32.964 -13.712  30.373  1.00  0.00     0.001 A 
ENDBRANCH   6  14
BRANCH  10  25
HETATM   25  C13 UNK     1      30.097  -7.718  29.128  1.00  0.00     0.292 C 
HETATM   26  O4  UNK     1      31.012  -7.218  28.501  1.00  0.00    -0.259 OA
BRANCH  25  27
HETATM   27  O3  UNK     1      29.183  -8.621  28.701  1.00  0.00    -0.318 OA
BRANCH  27  28
HETATM   28  C23 UNK     1      29.725  -9.764  28.031  1.00  0.00     0.174 C 
HETATM   29  C26 UNK     1      29.081 -11.015  28.588  1.00  0.00     0.034 C 
ENDBRANCH  27  28
ENDBRANCH  25  27
ENDBRANCH  10  25
BRANCH   3  30
HETATM   30  C10 UNK     1      29.576  -6.416  37.117  1.00  0.00    -0.013 A 
HETATM   31  C15 UNK     1      28.818  -6.964  38.124  1.00  0.00     0.015 A 
HETATM   32  C18 UNK     1      28.799  -6.137  39.284  1.00  0.00     0.008 A 
HETATM   33  C19 UNK     1      29.544  -4.991  39.116  1.00  0.00     0.050 A 
HETATM   34  S1  UNK     1      30.262  -4.914  37.563  1.00  0.00    -0.106 SA
ENDBRANCH   3  30
TORSDOF 5
ENDMDL
MODEL 8
REMARK VINA RESULT:      -7.6      2.424      5.934
REMARK  5 active torsions:
REMARK  status: ('A' for Active; 'I' for Inactive)
REMARK    1  A    between atoms: C13_20  and  O3_4 
REMARK    2  A    between atoms: C23_30  and  O3_4 
REMARK    3  A    between atoms: C1_8  and  C10_17 
REMARK    4  A    between atoms: C11_18  and  C4_11 
REMARK    5  A    between atoms: C13_20  and  C8_15 
ROOT
HETATM    1  O1  UNK     1      32.768  -9.737  34.583  1.00  0.00    -0.293 OA
HETATM    2  N1  UNK     1      32.824  -7.847  30.240  1.00  0.00    -0.362 N 
HETATM    3  C1  UNK     1      35.576  -9.303  32.345  1.00  0.00     0.038 C 
HETATM    4  C2  UNK     1      34.818  -9.038  31.037  1.00  0.00     0.068 C 
HETATM    5  C3  UNK     1      32.763  -8.696  32.450  1.00  0.00     0.024 C 
HETATM    6  C4  UNK     1      31.373  -8.107  32.664  1.00  0.00     0.104 C 
HETATM    7  C5  UNK     1      33.424  -8.523  31.285  1.00  0.00     0.021 C 
HETATM    8  C6  UNK     1      34.729 -10.160  33.286  1.00  0.00     0.094 C 
HETATM    9  C7  UNK     1      33.377  -9.524  33.535  1.00  0.00     0.159 C 
HETATM   10  C8  UNK     1      30.782  -7.505  31.387  1.00  0.00     0.052 C 
HETATM   11  C9  UNK     1      31.517  -7.387  30.256  1.00  0.00     0.018 C 
HETATM   12  C12 UNK     1      31.034  -6.820  28.948  1.00  0.00     0.069 C 
HETATM   13  H7  UNK     1      33.348  -7.751  29.377  1.00  0.00     0.165 HD
ENDROOT
BRANCH   6  14
HETATM   14  C11 UNK     1      31.405  -7.075  33.759  1.00  0.00     0.029 A 
HETATM   15  C14 UNK     1      30.396  -7.162  34.845  1.00  0.00     0.194 A 
HETATM   16  O5  UNK     1      29.547  -8.043  34.876  1.00  0.00    -0.287 OA
HETATM   17  C17 UNK     1      30.472  -6.126  35.891  1.00  0.00     0.048 A 
HETATM   18  C20 UNK     1      31.461  -5.146  35.805  1.00  0.00     0.089 A 
HETATM   19  C21 UNK     1      29.568  -6.121  36.956  1.00  0.00     0.018 A 
HETATM   20  O2  UNK     1      32.375  -5.103  34.783  1.00  0.00    -0.321 OA
HETATM   21  C22 UNK     1      31.551  -4.155  36.784  1.00  0.00     0.038 A 
HETATM   22  C16 UNK     1      32.293  -6.074  33.815  1.00  0.00     0.154 A 
HETATM   23  C25 UNK     1      30.649  -4.149  37.848  1.00  0.00     0.003 A 
HETATM   24  C24 UNK     1      29.660  -5.129  37.934  1.00  0.00     0.001 A 
ENDBRANCH   6  14
BRANCH  10  25
HETATM   25  C13 UNK     1      29.378  -7.067  31.457  1.00  0.00     0.292 C 
HETATM   26  O4  UNK     1      29.045  -5.899  31.520  1.00  0.00    -0.259 OA
BRANCH  25  27
HETATM   27  O3  UNK     1      28.586  -8.166  31.439  1.00  0.00    -0.318 OA
BRANCH  27  28
HETATM   28  C23 UNK     1      27.628  -8.206  30.377  1.00  0.00     0.174 C 
HETATM   29  C26 UNK     1      28.087  -9.206  29.337  1.00  0.00     0.034 C 
ENDBRANCH  27  28
ENDBRANCH  25  27
ENDBRANCH  10  25
BRANCH   3  30
HETATM   30  C10 UNK     1      36.948  -9.910  32.097  1.00  0.00    -0.013 A 
HETATM   31  C15 UNK     1      37.969 -10.105  32.995  1.00  0.00     0.015 A 
HETATM   32  C18 UNK     1      39.107 -10.705  32.384  1.00  0.00     0.008 A 
HETATM   33  C19 UNK     1      38.908 -10.944  31.042  1.00  0.00     0.050 A 
HETATM   34  S1  UNK     1      37.355 -10.446  30.524  1.00  0.00    -0.106 SA
ENDBRANCH   3  30
TORSDOF 5
ENDMDL
MODEL 9
REMARK VINA RESULT:      -7.5      3.266      7.019
REMARK  5 active torsions:
REMARK  status: ('A' for Active; 'I' for Inactive)
REMARK    1  A    between atoms: C13_20  and  O3_4 
REMARK    2  A    between atoms: C23_30  and  O3_4 
REMARK    3  A    between atoms: C1_8  and  C10_17 
REMARK    4  A    between atoms: C11_18  and  C4_11 
REMARK    5  A    between atoms: C13_20  and  C8_15 
ROOT
HETATM    1  O1  UNK     1      31.633 -10.583  34.391  1.00  0.00    -0.293 OA
HETATM    2  N1  UNK     1      33.362  -6.890  36.801  1.00  0.00    -0.362 N 
HETATM    3  C1  UNK     1      30.142  -8.794  37.158  1.00  0.00     0.038 C 
HETATM    4  C2  UNK     1      31.380  -8.047  37.674  1.00  0.00     0.068 C 
HETATM    5  C3  UNK     1      32.498  -8.674  35.507  1.00  0.00     0.024 C 
HETATM    6  C4  UNK     1      33.553  -8.438  34.432  1.00  0.00     0.104 C 
HETATM    7  C5  UNK     1      32.432  -7.893  36.606  1.00  0.00     0.021 C 
HETATM    8  C6  UNK     1      30.555 -10.093  36.465  1.00  0.00     0.094 C 
HETATM    9  C7  UNK     1      31.555  -9.828  35.360  1.00  0.00     0.159 C 
HETATM   10  C8  UNK     1      34.590  -7.390  34.840  1.00  0.00     0.052 C 
HETATM   11  C9  UNK     1      34.451  -6.663  35.974  1.00  0.00     0.018 C 
HETATM   12  C12 UNK     1      35.411  -5.617  36.472  1.00  0.00     0.069 C 
HETATM   13  H7  UNK     1      33.287  -6.334  37.646  1.00  0.00     0.165 HD
ENDROOT
BRANCH   6  14
HETATM   14  C11 UNK     1      32.899  -8.045  33.134  1.00  0.00     0.029 A 
HETATM   15  C14 UNK     1      33.160  -8.873  31.929  1.00  0.00     0.194 A 
HETATM   16  O5  UNK     1      33.884  -9.859  31.961  1.00  0.00    -0.287 OA
HETATM   17  C17 UNK     1      32.496  -8.443  30.685  1.00  0.00     0.048 A 
HETATM   18  C20 UNK     1      31.681  -7.310  30.708  1.00  0.00     0.089 A 
HETATM   19  C21 UNK     1      32.678  -9.155  29.498  1.00  0.00     0.018 A 
HETATM   20  O2  UNK     1      31.467  -6.574  31.845  1.00  0.00    -0.321 OA
HETATM   21  C22 UNK     1      31.043  -6.885  29.541  1.00  0.00     0.038 A 
HETATM   22  C16 UNK     1      32.092  -6.986  32.997  1.00  0.00     0.154 A 
HETATM   23  C25 UNK     1      31.223  -7.596  28.355  1.00  0.00     0.003 A 
HETATM   24  C24 UNK     1      32.039  -8.728  28.333  1.00  0.00     0.001 A 
ENDBRANCH   6  14
BRANCH  10  25
HETATM   25  C13 UNK     1      35.742  -7.221  33.939  1.00  0.00     0.292 C 
HETATM   26  O4  UNK     1      35.814  -6.337  33.105  1.00  0.00    -0.259 OA
BRANCH  25  27
HETATM   27  O3  UNK     1      36.646  -8.191  34.213  1.00  0.00    -0.318 OA
BRANCH  27  28
HETATM   28  C23 UNK     1      37.118  -8.920  33.076  1.00  0.00     0.174 C 
HETATM   29  C26 UNK     1      37.054 -10.402  33.379  1.00  0.00     0.034 C 
ENDBRANCH  27  28
ENDBRANCH  25  27
ENDBRANCH  10  25
BRANCH   3  30
HETATM   30  C10 UNK     1      29.120  -9.032  38.259  1.00  0.00    -0.013 A 
HETATM   31  C15 UNK     1      29.100 -10.033  39.201  1.00  0.00     0.015 A 
HETATM   32  C18 UNK     1      27.976  -9.922  40.070  1.00  0.00     0.008 A 
HETATM   33  C19 UNK     1      27.183  -8.841  39.755  1.00  0.00     0.050 A 
HETATM   34  S1  UNK     1      27.794  -7.963  38.418  1.00  0.00    -0.106 SA
ENDBRANCH   3  30
TORSDOF 5
ENDMDL
MODEL 10
REMARK VINA RESULT:      -7.5      2.755      5.965
REMARK  5 active torsions:
REMARK  status: ('A' for Active; 'I' for Inactive)
REMARK    1  A    between atoms: C13_20  and  O3_4 
REMARK    2  A    between atoms: C23_30  and  O3_4 
REMARK    3  A    between atoms: C1_8  and  C10_17 
REMARK    4  A    between atoms: C11_18  and  C4_11 
REMARK    5  A    between atoms: C13_20  and  C8_15 
ROOT
HETATM    1  O1  UNK     1      33.641  -6.581  30.918  1.00  0.00    -0.293 OA
HETATM    2  N1  UNK     1      34.072  -8.559  35.201  1.00  0.00    -0.362 N 
HETATM    3  C1  UNK     1      35.734  -9.353  31.925  1.00  0.00     0.038 C 
HETATM    4  C2  UNK     1      35.679  -9.172  33.448  1.00  0.00     0.068 C 
HETATM    5  C3  UNK     1      33.752  -7.599  33.059  1.00  0.00     0.024 C 
HETATM    6  C4  UNK     1      32.491  -6.889  33.540  1.00  0.00     0.104 C 
HETATM    7  C5  UNK     1      34.456  -8.405  33.883  1.00  0.00     0.021 C 
HETATM    8  C6  UNK     1      35.529  -8.011  31.222  1.00  0.00     0.094 C 
HETATM    9  C7  UNK     1      34.240  -7.353  31.666  1.00  0.00     0.159 C 
HETATM   10  C8  UNK     1      32.261  -7.042  35.045  1.00  0.00     0.052 C 
HETATM   11  C9  UNK     1      33.032  -7.863  35.797  1.00  0.00     0.018 C 
HETATM   12  C12 UNK     1      32.898  -8.081  37.280  1.00  0.00     0.069 C 
HETATM   13  H7  UNK     1      34.635  -9.162  35.790  1.00  0.00     0.165 HD
ENDROOT
BRANCH   6  14
HETATM   14  C11 UNK     1      31.290  -7.382  32.777  1.00  0.00     0.029 A 
HETATM   15  C14 UNK     1      30.365  -6.381  32.187  1.00  0.00     0.194 A 
HETATM   16  O5  UNK     1      30.550  -5.177  32.301  1.00  0.00    -0.287 OA
HETATM   17  C17 UNK     1      29.205  -6.918  31.452  1.00  0.00     0.048 A 
HETATM   18  C20 UNK     1      29.044  -8.301  31.355  1.00  0.00     0.089 A 
HETATM   19  C21 UNK     1      28.276  -6.058  30.861  1.00  0.00     0.018 A 
HETATM   20  O2  UNK     1      29.924  -9.190  31.916  1.00  0.00    -0.321 OA
HETATM   21  C22 UNK     1      27.953  -8.830  30.665  1.00  0.00     0.038 A 
HETATM   22  C16 UNK     1      31.001  -8.677  32.598  1.00  0.00     0.154 A 
HETATM   23  C25 UNK     1      27.025  -7.973  30.073  1.00  0.00     0.003 A 
HETATM   24  C24 UNK     1      27.186  -6.591  30.171  1.00  0.00     0.001 A 
ENDBRANCH   6  14
BRANCH  10  25
HETATM   25  C13 UNK     1      31.165  -6.249  35.625  1.00  0.00     0.292 C 
HETATM   26  O4  UNK     1      30.039  -6.682  35.784  1.00  0.00    -0.259 OA
BRANCH  25  27
HETATM   27  O3  UNK     1      31.640  -5.017  35.925  1.00  0.00    -0.318 OA
BRANCH  27  28
HETATM   28  C23 UNK     1      31.030  -4.390  37.058  1.00  0.00     0.174 C 
HETATM   29  C26 UNK     1      31.647  -4.949  38.323  1.00  0.00     0.034 C 
ENDBRANCH  27  28
ENDBRANCH  25  27
ENDBRANCH  10  25
BRANCH   3  30
HETATM   30  C10 UNK     1      37.012 -10.045  31.478  1.00  0.00    -0.013 A 
HETATM   31  C15 UNK     1      37.407 -10.366  30.202  1.00  0.00     0.015 A 
HETATM   32  C18 UNK     1      38.677 -11.011  30.185  1.00  0.00     0.008 A 
HETATM   33  C19 UNK     1      39.201 -11.157  31.450  1.00  0.00     0.050 A 
HETATM   34  S1  UNK     1      38.163 -10.517  32.653  1.00  0.00    -0.106 SA
ENDBRANCH   3  30
TORSDOF 5
ENDMDL
