MODEL 1
REMARK VINA RESULT:     -10.4      0.000      0.000
REMARK  5 active torsions:
REMARK  status: ('A' for Active; 'I' for Inactive)
REMARK    1  A    between atoms: C5_11  and  N1_4 
REMARK    2  A    between atoms: C6_12  and  N2_5 
REMARK    3  A    between atoms: C5_11  and  C7_13 
REMARK    4  A    between atoms: C6_12  and  C8_14 
REMARK    5  A    between atoms: C14_20  and  C20_26 
ROOT
HETATM    1  N1  UNK     1      19.216  -3.228  36.059  1.00  0.00     0.096 N 
HETATM    2  N2  UNK     1      18.028  -0.693  35.339  1.00  0.00     0.097 N 
HETATM    3  C1  UNK     1      18.347  -2.502  36.993  1.00  0.00     0.303 C 
HETATM    4  C2  UNK     1      19.905  -2.290  35.165  1.00  0.00     0.303 C 
HETATM    5  C3  UNK     1      17.340  -1.631  36.234  1.00  0.00     0.303 C 
HETATM    6  C4  UNK     1      18.898  -1.421  34.406  1.00  0.00     0.303 C 
ENDROOT
BRANCH   1   7
HETATM    7  C5  UNK     1      20.177  -4.057  36.783  1.00  0.00     0.312 C 
BRANCH   7   8
HETATM    8  C7  UNK     1      20.214  -5.455  36.270  1.00  0.00    -0.011 A 
HETATM    9  C10 UNK     1      20.317  -5.710  34.959  1.00  0.00     0.092 A 
HETATM   10  C15 UNK     1      20.357  -7.074  34.406  1.00  0.00     0.288 A 
HETATM   11  O2  UNK     1      20.283  -8.118  35.316  1.00  0.00    -0.275 OA
HETATM   12  O3  UNK     1      20.452  -7.269  33.199  1.00  0.00    -0.260 OA
HETATM   13  C12 UNK     1      20.174  -7.881  36.701  1.00  0.00     0.090 A 
HETATM   14  C9  UNK     1      20.137  -6.582  37.210  1.00  0.00     0.006 A 
HETATM   15  C17 UNK     1      20.106  -9.007  37.524  1.00  0.00     0.045 A 
HETATM   16  C13 UNK     1      20.027  -6.431  38.599  1.00  0.00     0.015 A 
HETATM   17  C18 UNK     1      19.957  -7.551  39.436  1.00  0.00     0.007 A 
HETATM   18  C19 UNK     1      19.997  -8.837  38.900  1.00  0.00    -0.059 A 
HETATM   19  C21 UNK     1      19.923 -10.024  39.798  1.00  0.00     0.048 C 
ENDBRANCH   7   8
ENDBRANCH   1   7
BRANCH   2  20
HETATM   20  C6  UNK     1      17.066   0.134  34.613  1.00  0.00     0.334 C 
BRANCH  20  21
HETATM   21  C8  UNK     1      17.681   1.465  34.323  1.00  0.00     0.095 A 
HETATM   22  C11 UNK     1      18.340   2.316  35.175  1.00  0.00     0.078 A 
HETATM   23  O1  UNK     1      18.724   3.411  34.461  1.00  0.00    -0.294 OA
HETATM   24  C16 UNK     1      18.692   2.291  36.599  1.00  0.00     0.079 C 
HETATM   25  C14 UNK     1      18.266   3.148  33.206  1.00  0.00     0.180 A 
HETATM   26  N3  UNK     1      17.638   2.004  33.062  1.00  0.00    -0.224 NA
BRANCH  25  27
HETATM   27  C20 UNK     1      18.542   4.164  32.229  1.00  0.00     0.017 A 
HETATM   28  C22 UNK     1      18.610   5.504  32.615  1.00  0.00     0.016 A 
HETATM   29  C24 UNK     1      18.879   6.490  31.666  1.00  0.00     0.001 A 
HETATM   30  C26 UNK     1      19.078   6.138  30.332  1.00  0.00     0.000 A 
HETATM   31  C25 UNK     1      19.010   4.800  29.945  1.00  0.00     0.001 A 
HETATM   32  C23 UNK     1      18.741   3.813  30.894  1.00  0.00     0.016 A 
ENDBRANCH  25  27
ENDBRANCH  20  21
ENDBRANCH   2  20
TORSDOF 5
ENDMDL
MODEL 2
REMARK VINA RESULT:      -9.8      4.018     12.471
REMARK  5 active torsions:
REMARK  status: ('A' for Active; 'I' for Inactive)
REMARK    1  A    between atoms: C5_11  and  N1_4 
REMARK    2  A    between atoms: C6_12  and  N2_5 
REMARK    3  A    between atoms: C5_11  and  C7_13 
REMARK    4  A    between atoms: C6_12  and  C8_14 
REMARK    5  A    between atoms: C14_20  and  C20_26 
ROOT
HETATM    1  N1  UNK     1      18.134   5.498  31.655  1.00  0.00     0.096 N 
HETATM    2  N2  UNK     1      19.044   2.861  30.898  1.00  0.00     0.097 N 
HETATM    3  C1  UNK     1      19.189   5.316  30.651  1.00  0.00     0.303 C 
HETATM    4  C2  UNK     1      18.145   4.391  32.618  1.00  0.00     0.303 C 
HETATM    5  C3  UNK     1      19.034   3.969  29.936  1.00  0.00     0.303 C 
HETATM    6  C4  UNK     1      17.989   3.044  31.902  1.00  0.00     0.303 C 
ENDROOT
BRANCH   1   7
HETATM    7  C5  UNK     1      18.283   6.781  32.337  1.00  0.00     0.312 C 
BRANCH   7   8
HETATM    8  C7  UNK     1      16.975   7.463  32.548  1.00  0.00    -0.011 A 
HETATM    9  C10 UNK     1      15.825   6.886  32.173  1.00  0.00     0.092 A 
HETATM   10  C15 UNK     1      14.510   7.520  32.361  1.00  0.00     0.288 A 
HETATM   11  O2  UNK     1      14.501   8.772  32.958  1.00  0.00    -0.275 OA
HETATM   12  O3  UNK     1      13.477   6.963  32.005  1.00  0.00    -0.260 OA
HETATM   13  C12 UNK     1      15.695   9.403  33.363  1.00  0.00     0.090 A 
HETATM   14  C9  UNK     1      16.934   8.789  33.178  1.00  0.00     0.006 A 
HETATM   15  C17 UNK     1      15.566  10.662  33.953  1.00  0.00     0.045 A 
HETATM   16  C13 UNK     1      18.073   9.483  33.608  1.00  0.00     0.015 A 
HETATM   17  C18 UNK     1      17.960  10.746  34.200  1.00  0.00     0.007 A 
HETATM   18  C19 UNK     1      16.709  11.335  34.373  1.00  0.00    -0.059 A 
HETATM   19  C21 UNK     1      16.596  12.680  35.005  1.00  0.00     0.048 C 
ENDBRANCH   7   8
ENDBRANCH   1   7
BRANCH   2  20
HETATM   20  C6  UNK     1      18.893   1.578  30.215  1.00  0.00     0.334 C 
BRANCH  20  21
HETATM   21  C8  UNK     1      19.157   0.470  31.184  1.00  0.00     0.095 A 
HETATM   22  C11 UNK     1      19.891  -0.677  31.005  1.00  0.00     0.078 A 
HETATM   23  O1  UNK     1      19.849  -1.387  32.166  1.00  0.00    -0.294 OA
HETATM   24  C16 UNK     1      20.657  -1.255  29.895  1.00  0.00     0.079 C 
HETATM   25  C14 UNK     1      19.083  -0.614  32.984  1.00  0.00     0.180 A 
HETATM   26  N3  UNK     1      18.643   0.504  32.454  1.00  0.00    -0.224 NA
BRANCH  25  27
HETATM   27  C20 UNK     1      18.874  -1.141  34.304  1.00  0.00     0.017 A 
HETATM   28  C22 UNK     1      17.722  -0.805  35.016  1.00  0.00     0.016 A 
HETATM   29  C24 UNK     1      17.521  -1.317  36.298  1.00  0.00     0.001 A 
HETATM   30  C26 UNK     1      18.471  -2.164  36.868  1.00  0.00     0.000 A 
HETATM   31  C25 UNK     1      19.622  -2.500  36.157  1.00  0.00     0.001 A 
HETATM   32  C23 UNK     1      19.825  -1.988  34.875  1.00  0.00     0.016 A 
ENDBRANCH  25  27
ENDBRANCH  20  21
ENDBRANCH   2  20
TORSDOF 5
ENDMDL
MODEL 3
REMARK VINA RESULT:      -9.4      3.963     11.087
REMARK  5 active torsions:
REMARK  status: ('A' for Active; 'I' for Inactive)
REMARK    1  A    between atoms: C5_11  and  N1_4 
REMARK    2  A    between atoms: C6_12  and  N2_5 
REMARK    3  A    between atoms: C5_11  and  C7_13 
REMARK    4  A    between atoms: C6_12  and  C8_14 
REMARK    5  A    between atoms: C14_20  and  C20_26 
ROOT
HETATM    1  N1  UNK     1      19.973  -3.748  36.675  1.00  0.00     0.096 N 
HETATM    2  N2  UNK     1      20.898  -6.486  36.708  1.00  0.00     0.097 N 
HETATM    3  C1  UNK     1      20.144  -4.509  35.431  1.00  0.00     0.303 C 
HETATM    4  C2  UNK     1      20.910  -4.223  37.699  1.00  0.00     0.303 C 
HETATM    5  C3  UNK     1      19.963  -6.011  35.683  1.00  0.00     0.303 C 
HETATM    6  C4  UNK     1      20.728  -5.723  37.951  1.00  0.00     0.303 C 
ENDROOT
BRANCH   1   7
HETATM    7  C5  UNK     1      20.147  -2.317  36.434  1.00  0.00     0.312 C 
BRANCH   7   8
HETATM    8  C7  UNK     1      19.174  -1.791  35.437  1.00  0.00    -0.011 A 
HETATM    9  C10 UNK     1      17.975  -1.327  35.816  1.00  0.00     0.092 A 
HETATM   10  C15 UNK     1      16.982  -0.798  34.867  1.00  0.00     0.288 A 
HETATM   11  O2  UNK     1      17.339  -0.796  33.527  1.00  0.00    -0.275 OA
HETATM   12  O3  UNK     1      15.894  -0.382  35.250  1.00  0.00    -0.260 OA
HETATM   13  C12 UNK     1      18.593  -1.277  33.098  1.00  0.00     0.090 A 
HETATM   14  C9  UNK     1      19.524  -1.776  34.010  1.00  0.00     0.006 A 
HETATM   15  C17 UNK     1      18.845  -1.227  31.726  1.00  0.00     0.045 A 
HETATM   16  C13 UNK     1      20.747  -2.236  33.504  1.00  0.00     0.015 A 
HETATM   17  C18 UNK     1      21.014  -2.192  32.130  1.00  0.00     0.007 A 
HETATM   18  C19 UNK     1      20.065  -1.688  31.243  1.00  0.00    -0.059 A 
HETATM   19  C21 UNK     1      20.357  -1.644  29.781  1.00  0.00     0.048 C 
ENDBRANCH   7   8
ENDBRANCH   1   7
BRANCH   2  20
HETATM   20  C6  UNK     1      20.722  -7.917  36.949  1.00  0.00     0.334 C 
BRANCH  20  21
HETATM   21  C8  UNK     1      22.050  -8.598  36.867  1.00  0.00     0.095 A 
HETATM   22  C11 UNK     1      22.400  -9.726  36.168  1.00  0.00     0.078 A 
HETATM   23  O1  UNK     1      23.720  -9.969  36.397  1.00  0.00    -0.294 OA
HETATM   24  C16 UNK     1      21.692 -10.660  35.285  1.00  0.00     0.079 C 
HETATM   25  C14 UNK     1      24.089  -8.959  37.232  1.00  0.00     0.180 A 
HETATM   26  N3  UNK     1      23.137  -8.111  37.546  1.00  0.00    -0.224 NA
BRANCH  25  27
HETATM   27  C20 UNK     1      25.467  -8.975  37.639  1.00  0.00     0.017 A 
HETATM   28  C22 UNK     1      25.836  -8.436  38.872  1.00  0.00     0.016 A 
HETATM   29  C24 UNK     1      27.174  -8.452  39.267  1.00  0.00     0.001 A 
HETATM   30  C26 UNK     1      28.142  -9.005  38.429  1.00  0.00     0.000 A 
HETATM   31  C25 UNK     1      27.773  -9.544  37.197  1.00  0.00     0.001 A 
HETATM   32  C23 UNK     1      26.435  -9.528  36.801  1.00  0.00     0.016 A 
ENDBRANCH  25  27
ENDBRANCH  20  21
ENDBRANCH   2  20
TORSDOF 5
ENDMDL
MODEL 4
REMARK VINA RESULT:      -9.3      5.450     14.428
REMARK  5 active torsions:
REMARK  status: ('A' for Active; 'I' for Inactive)
REMARK    1  A    between atoms: C5_11  and  N1_4 
REMARK    2  A    between atoms: C6_12  and  N2_5 
REMARK    3  A    between atoms: C5_11  and  C7_13 
REMARK    4  A    between atoms: C6_12  and  C8_14 
REMARK    5  A    between atoms: C14_20  and  C20_26 
ROOT
HETATM    1  N1  UNK     1      16.473   8.614  33.807  1.00  0.00     0.096 N 
HETATM    2  N2  UNK     1      17.593   6.195  32.688  1.00  0.00     0.097 N 
HETATM    3  C1  UNK     1      17.864   8.225  34.071  1.00  0.00     0.303 C 
HETATM    4  C2  UNK     1      15.644   7.425  33.577  1.00  0.00     0.303 C 
HETATM    5  C3  UNK     1      18.423   7.383  32.918  1.00  0.00     0.303 C 
HETATM    6  C4  UNK     1      16.202   6.585  32.424  1.00  0.00     0.303 C 
ENDROOT
BRANCH   1   7
HETATM    7  C5  UNK     1      15.941   9.415  34.906  1.00  0.00     0.312 C 
BRANCH   7   8
HETATM    8  C7  UNK     1      15.225  10.629  34.424  1.00  0.00    -0.011 A 
HETATM    9  C10 UNK     1      13.898  10.621  34.237  1.00  0.00     0.092 A 
HETATM   10  C15 UNK     1      13.148  11.796  33.762  1.00  0.00     0.288 A 
HETATM   11  O2  UNK     1      13.882  12.944  33.507  1.00  0.00    -0.275 OA
HETATM   12  O3  UNK     1      11.932  11.753  33.602  1.00  0.00    -0.260 OA
HETATM   13  C12 UNK     1      15.279  12.981  33.694  1.00  0.00     0.090 A 
HETATM   14  C9  UNK     1      15.977  11.860  34.145  1.00  0.00     0.006 A 
HETATM   15  C17 UNK     1      15.916  14.190  33.406  1.00  0.00     0.045 A 
HETATM   16  C13 UNK     1      17.363  11.979  34.305  1.00  0.00     0.015 A 
HETATM   17  C18 UNK     1      18.016  13.184  34.019  1.00  0.00     0.007 A 
HETATM   18  C19 UNK     1      17.293  14.288  33.571  1.00  0.00    -0.059 A 
HETATM   19  C21 UNK     1      17.994  15.568  33.269  1.00  0.00     0.048 C 
ENDBRANCH   7   8
ENDBRANCH   1   7
BRANCH   2  20
HETATM   20  C6  UNK     1      18.125   5.395  31.586  1.00  0.00     0.334 C 
BRANCH  20  21
HETATM   21  C8  UNK     1      18.181   3.960  32.001  1.00  0.00     0.095 A 
HETATM   22  C11 UNK     1      18.318   2.840  31.220  1.00  0.00     0.078 A 
HETATM   23  O1  UNK     1      18.316   1.753  32.040  1.00  0.00    -0.294 OA
HETATM   24  C16 UNK     1      18.457   2.590  29.781  1.00  0.00     0.079 C 
HETATM   25  C14 UNK     1      18.176   2.293  33.282  1.00  0.00     0.180 A 
HETATM   26  N3  UNK     1      18.091   3.602  33.322  1.00  0.00    -0.224 NA
BRANCH  25  27
HETATM   27  C20 UNK     1      18.144   1.344  34.361  1.00  0.00     0.017 A 
HETATM   28  C22 UNK     1      18.254  -0.021  34.093  1.00  0.00     0.016 A 
HETATM   29  C24 UNK     1      18.224  -0.941  35.141  1.00  0.00     0.001 A 
HETATM   30  C26 UNK     1      18.082  -0.497  36.455  1.00  0.00     0.000 A 
HETATM   31  C25 UNK     1      17.971   0.867  36.723  1.00  0.00     0.001 A 
HETATM   32  C23 UNK     1      18.002   1.788  35.676  1.00  0.00     0.016 A 
ENDBRANCH  25  27
ENDBRANCH  20  21
ENDBRANCH   2  20
TORSDOF 5
ENDMDL
MODEL 5
REMARK VINA RESULT:      -9.2     13.857     17.403
REMARK  5 active torsions:
REMARK  status: ('A' for Active; 'I' for Inactive)
REMARK    1  A    between atoms: C5_11  and  N1_4 
REMARK    2  A    between atoms: C6_12  and  N2_5 
REMARK    3  A    between atoms: C5_11  and  C7_13 
REMARK    4  A    between atoms: C6_12  and  C8_14 
REMARK    5  A    between atoms: C14_20  and  C20_26 
ROOT
HETATM    1  N1  UNK     1      31.753  -5.866  35.746  1.00  0.00     0.096 N 
HETATM    2  N2  UNK     1      34.310  -6.250  34.452  1.00  0.00     0.097 N 
HETATM    3  C1  UNK     1      32.229  -7.206  35.380  1.00  0.00     0.303 C 
HETATM    4  C2  UNK     1      32.301  -4.860  34.829  1.00  0.00     0.303 C 
HETATM    5  C3  UNK     1      33.761  -7.256  35.368  1.00  0.00     0.303 C 
HETATM    6  C4  UNK     1      33.833  -4.910  34.817  1.00  0.00     0.303 C 
ENDROOT
BRANCH   1   7
HETATM    7  C5  UNK     1      30.293  -5.819  35.756  1.00  0.00     0.312 C 
BRANCH   7   8
HETATM    8  C7  UNK     1      29.742  -5.747  37.138  1.00  0.00    -0.011 A 
HETATM    9  C10 UNK     1      29.857  -4.631  37.872  1.00  0.00     0.092 A 
HETATM   10  C15 UNK     1      29.329  -4.513  39.242  1.00  0.00     0.288 A 
HETATM   11  O2  UNK     1      28.688  -5.628  39.761  1.00  0.00    -0.275 OA
HETATM   12  O3  UNK     1      29.453  -3.476  39.885  1.00  0.00    -0.260 OA
HETATM   13  C12 UNK     1      28.551  -6.814  39.012  1.00  0.00     0.090 A 
HETATM   14  C9  UNK     1      29.058  -6.912  37.715  1.00  0.00     0.006 A 
HETATM   15  C17 UNK     1      27.888  -7.873  39.635  1.00  0.00     0.045 A 
HETATM   16  C13 UNK     1      28.881  -8.125  37.038  1.00  0.00     0.015 A 
HETATM   17  C18 UNK     1      28.219  -9.196  37.650  1.00  0.00     0.007 A 
HETATM   18  C19 UNK     1      27.722  -9.070  38.947  1.00  0.00    -0.059 A 
HETATM   19  C21 UNK     1      27.018 -10.215  39.592  1.00  0.00     0.048 C 
ENDBRANCH   7   8
ENDBRANCH   1   7
BRANCH   2  20
HETATM   20  C6  UNK     1      35.770  -6.296  34.443  1.00  0.00     0.334 C 
BRANCH  20  21
HETATM   21  C8  UNK     1      36.223  -7.414  33.560  1.00  0.00     0.095 A 
HETATM   22  C11 UNK     1      35.994  -7.603  32.220  1.00  0.00     0.078 A 
HETATM   23  O1  UNK     1      36.603  -8.764  31.850  1.00  0.00    -0.294 OA
HETATM   24  C16 UNK     1      35.275  -6.863  31.177  1.00  0.00     0.079 C 
HETATM   25  C14 UNK     1      37.170  -9.207  33.006  1.00  0.00     0.180 A 
HETATM   26  N3  UNK     1      36.978  -8.445  34.057  1.00  0.00    -0.224 NA
BRANCH  25  27
HETATM   27  C20 UNK     1      37.893 -10.444  32.896  1.00  0.00     0.017 A 
HETATM   28  C22 UNK     1      38.799 -10.631  31.851  1.00  0.00     0.016 A 
HETATM   29  C24 UNK     1      39.502 -11.832  31.745  1.00  0.00     0.001 A 
HETATM   30  C26 UNK     1      39.297 -12.845  32.682  1.00  0.00     0.000 A 
HETATM   31  C25 UNK     1      38.392 -12.658  33.726  1.00  0.00     0.001 A 
HETATM   32  C23 UNK     1      37.689 -11.457  33.832  1.00  0.00     0.016 A 
ENDBRANCH  25  27
ENDBRANCH  20  21
ENDBRANCH   2  20
TORSDOF 5
ENDMDL
MODEL 6
REMARK VINA RESULT:      -9.2      5.590     14.483
REMARK  5 active torsions:
REMARK  status: ('A' for Active; 'I' for Inactive)
REMARK    1  A    between atoms: C5_11  and  N1_4 
REMARK    2  A    between atoms: C6_12  and  N2_5 
REMARK    3  A    between atoms: C5_11  and  C7_13 
REMARK    4  A    between atoms: C6_12  and  C8_14 
REMARK    5  A    between atoms: C14_20  and  C20_26 
ROOT
HETATM    1  N1  UNK     1      16.739   8.717  33.607  1.00  0.00     0.096 N 
HETATM    2  N2  UNK     1      17.703   6.191  32.584  1.00  0.00     0.097 N 
HETATM    3  C1  UNK     1      18.071   8.211  33.960  1.00  0.00     0.303 C 
HETATM    4  C2  UNK     1      15.822   7.603  33.340  1.00  0.00     0.303 C 
HETATM    5  C3  UNK     1      18.621   7.305  32.852  1.00  0.00     0.303 C 
HETATM    6  C4  UNK     1      16.371   6.699  32.232  1.00  0.00     0.303 C 
ENDROOT
BRANCH   1   7
HETATM    7  C5  UNK     1      16.215   9.580  34.664  1.00  0.00     0.312 C 
BRANCH   7   8
HETATM    8  C7  UNK     1      16.222  11.017  34.273  1.00  0.00    -0.011 A 
HETATM    9  C10 UNK     1      17.363  11.719  34.234  1.00  0.00     0.092 A 
HETATM   10  C15 UNK     1      17.418  13.140  33.853  1.00  0.00     0.288 A 
HETATM   11  O2  UNK     1      16.215  13.746  33.526  1.00  0.00    -0.275 OA
HETATM   12  O3  UNK     1      18.481  13.752  33.829  1.00  0.00    -0.260 OA
HETATM   13  C12 UNK     1      14.999  13.033  33.558  1.00  0.00     0.090 A 
HETATM   14  C9  UNK     1      14.962  11.686  33.921  1.00  0.00     0.006 A 
HETATM   15  C17 UNK     1      13.848  13.743  33.210  1.00  0.00     0.045 A 
HETATM   16  C13 UNK     1      13.714  11.049  33.928  1.00  0.00     0.015 A 
HETATM   17  C18 UNK     1      12.552  11.748  33.583  1.00  0.00     0.007 A 
HETATM   18  C19 UNK     1      12.619  13.093  33.223  1.00  0.00    -0.059 A 
HETATM   19  C21 UNK     1      11.377  13.832  32.855  1.00  0.00     0.048 C 
ENDBRANCH   7   8
ENDBRANCH   1   7
BRANCH   2  20
HETATM   20  C6  UNK     1      18.226   5.331  31.525  1.00  0.00     0.334 C 
BRANCH  20  21
HETATM   21  C8  UNK     1      18.218   3.912  31.995  1.00  0.00     0.095 A 
HETATM   22  C11 UNK     1      18.278   2.757  31.255  1.00  0.00     0.078 A 
HETATM   23  O1  UNK     1      18.240   1.703  32.117  1.00  0.00    -0.294 OA
HETATM   24  C16 UNK     1      18.367   2.446  29.824  1.00  0.00     0.079 C 
HETATM   25  C14 UNK     1      18.159   2.297  33.340  1.00  0.00     0.180 A 
HETATM   26  N3  UNK     1      18.142   3.610  33.330  1.00  0.00    -0.224 NA
BRANCH  25  27
HETATM   27  C20 UNK     1      18.105   1.393  34.455  1.00  0.00     0.017 A 
HETATM   28  C22 UNK     1      18.189   0.016  34.243  1.00  0.00     0.016 A 
HETATM   29  C24 UNK     1      18.136  -0.861  35.327  1.00  0.00     0.001 A 
HETATM   30  C26 UNK     1      17.998  -0.362  36.621  1.00  0.00     0.000 A 
HETATM   31  C25 UNK     1      17.914   1.014  36.834  1.00  0.00     0.001 A 
HETATM   32  C23 UNK     1      17.966   1.891  35.751  1.00  0.00     0.016 A 
ENDBRANCH  25  27
ENDBRANCH  20  21
ENDBRANCH   2  20
TORSDOF 5
ENDMDL
MODEL 7
REMARK VINA RESULT:      -9.1      9.414     13.070
REMARK  5 active torsions:
REMARK  status: ('A' for Active; 'I' for Inactive)
REMARK    1  A    between atoms: C5_11  and  N1_4 
REMARK    2  A    between atoms: C6_12  and  N2_5 
REMARK    3  A    between atoms: C5_11  and  C7_13 
REMARK    4  A    between atoms: C6_12  and  C8_14 
REMARK    5  A    between atoms: C14_20  and  C20_26 
ROOT
HETATM    1  N1  UNK     1      30.015  -6.440  35.076  1.00  0.00     0.096 N 
HETATM    2  N2  UNK     1      28.826  -6.714  37.697  1.00  0.00     0.097 N 
HETATM    3  C1  UNK     1      28.929  -7.397  35.324  1.00  0.00     0.303 C 
HETATM    4  C2  UNK     1      30.804  -6.233  36.296  1.00  0.00     0.303 C 
HETATM    5  C3  UNK     1      28.038  -6.923  36.477  1.00  0.00     0.303 C 
HETATM    6  C4  UNK     1      29.912  -5.758  37.448  1.00  0.00     0.303 C 
ENDROOT
BRANCH   1   7
HETATM    7  C5  UNK     1      30.865  -6.893  33.978  1.00  0.00     0.312 C 
BRANCH   7   8
HETATM    8  C7  UNK     1      30.394  -6.391  32.657  1.00  0.00    -0.011 A 
HETATM    9  C10 UNK     1      30.406  -5.082  32.369  1.00  0.00     0.092 A 
HETATM   10  C15 UNK     1      29.951  -4.540  31.078  1.00  0.00     0.288 A 
HETATM   11  O2  UNK     1      29.496  -5.456  30.142  1.00  0.00    -0.275 OA
HETATM   12  O3  UNK     1      29.975  -3.335  30.849  1.00  0.00    -0.260 OA
HETATM   13  C12 UNK     1      29.472  -6.839  30.416  1.00  0.00     0.090 A 
HETATM   14  C9  UNK     1      29.907  -7.338  31.645  1.00  0.00     0.006 A 
HETATM   15  C17 UNK     1      28.995  -7.669  29.401  1.00  0.00     0.045 A 
HETATM   16  C13 UNK     1      29.851  -8.724  31.839  1.00  0.00     0.015 A 
HETATM   17  C18 UNK     1      29.374  -9.569  30.831  1.00  0.00     0.007 A 
HETATM   18  C19 UNK     1      28.947  -9.042  29.613  1.00  0.00    -0.059 A 
HETATM   19  C21 UNK     1      28.440  -9.949  28.543  1.00  0.00     0.048 C 
ENDBRANCH   7   8
ENDBRANCH   1   7
BRANCH   2  20
HETATM   20  C6  UNK     1      27.975  -6.259  38.794  1.00  0.00     0.334 C 
BRANCH  20  21
HETATM   21  C8  UNK     1      26.792  -7.165  38.909  1.00  0.00     0.095 A 
HETATM   22  C11 UNK     1      26.746  -8.481  39.296  1.00  0.00     0.078 A 
HETATM   23  O1  UNK     1      25.447  -8.889  39.246  1.00  0.00    -0.294 OA
HETATM   24  C16 UNK     1      27.740  -9.472  39.723  1.00  0.00     0.079 C 
HETATM   25  C14 UNK     1      24.782  -7.777  38.826  1.00  0.00     0.180 A 
HETATM   26  N3  UNK     1      25.530  -6.720  38.610  1.00  0.00    -0.224 NA
BRANCH  25  27
HETATM   27  C20 UNK     1      23.361  -7.932  38.685  1.00  0.00     0.017 A 
HETATM   28  C22 UNK     1      22.835  -8.548  37.548  1.00  0.00     0.016 A 
HETATM   29  C24 UNK     1      21.454  -8.698  37.413  1.00  0.00     0.001 A 
HETATM   30  C26 UNK     1      20.601  -8.233  38.412  1.00  0.00     0.000 A 
HETATM   31  C25 UNK     1      21.126  -7.618  39.548  1.00  0.00     0.001 A 
HETATM   32  C23 UNK     1      22.506  -7.467  39.684  1.00  0.00     0.016 A 
ENDBRANCH  25  27
ENDBRANCH  20  21
ENDBRANCH   2  20
TORSDOF 5
ENDMDL
MODEL 8
REMARK VINA RESULT:      -9.1      3.871     11.010
REMARK  5 active torsions:
REMARK  status: ('A' for Active; 'I' for Inactive)
REMARK    1  A    between atoms: C5_11  and  N1_4 
REMARK    2  A    between atoms: C6_12  and  N2_5 
REMARK    3  A    between atoms: C5_11  and  C7_13 
REMARK    4  A    between atoms: C6_12  and  C8_14 
REMARK    5  A    between atoms: C14_20  and  C20_26 
ROOT
HETATM    1  N1  UNK     1      20.120  -3.654  36.606  1.00  0.00     0.096 N 
HETATM    2  N2  UNK     1      20.933  -6.428  36.600  1.00  0.00     0.097 N 
HETATM    3  C1  UNK     1      20.213  -4.418  35.356  1.00  0.00     0.303 C 
HETATM    4  C2  UNK     1      21.074  -4.170  37.595  1.00  0.00     0.303 C 
HETATM    5  C3  UNK     1      19.981  -5.911  35.611  1.00  0.00     0.303 C 
HETATM    6  C4  UNK     1      20.840  -5.663  37.850  1.00  0.00     0.303 C 
ENDROOT
BRANCH   1   7
HETATM    7  C5  UNK     1      20.343  -2.231  36.362  1.00  0.00     0.312 C 
BRANCH   7   8
HETATM    8  C7  UNK     1      19.406  -1.680  35.344  1.00  0.00    -0.011 A 
HETATM    9  C10 UNK     1      19.625  -1.856  34.034  1.00  0.00     0.092 A 
HETATM   10  C15 UNK     1      18.726  -1.330  32.992  1.00  0.00     0.288 A 
HETATM   11  O2  UNK     1      17.613  -0.628  33.426  1.00  0.00    -0.275 OA
HETATM   12  O3  UNK     1      18.959  -1.510  31.801  1.00  0.00    -0.260 OA
HETATM   13  C12 UNK     1      17.356  -0.427  34.797  1.00  0.00     0.090 A 
HETATM   14  C9  UNK     1      18.217  -0.931  35.773  1.00  0.00     0.006 A 
HETATM   15  C17 UNK     1      16.205   0.295  35.119  1.00  0.00     0.045 A 
HETATM   16  C13 UNK     1      17.891  -0.689  37.115  1.00  0.00     0.015 A 
HETATM   17  C18 UNK     1      16.742   0.035  37.452  1.00  0.00     0.007 A 
HETATM   18  C19 UNK     1      15.899   0.525  36.455  1.00  0.00    -0.059 A 
HETATM   19  C21 UNK     1      14.676   1.295  36.823  1.00  0.00     0.048 C 
ENDBRANCH   7   8
ENDBRANCH   1   7
BRANCH   2  20
HETATM   20  C6  UNK     1      20.708  -7.851  36.845  1.00  0.00     0.334 C 
BRANCH  20  21
HETATM   21  C8  UNK     1      22.018  -8.570  36.813  1.00  0.00     0.095 A 
HETATM   22  C11 UNK     1      22.346  -9.739  36.172  1.00  0.00     0.078 A 
HETATM   23  O1  UNK     1      23.656 -10.006  36.431  1.00  0.00    -0.294 OA
HETATM   24  C16 UNK     1      21.624 -10.694  35.324  1.00  0.00     0.079 C 
HETATM   25  C14 UNK     1      24.041  -8.968  37.223  1.00  0.00     0.180 A 
HETATM   26  N3  UNK     1      23.109  -8.081  37.484  1.00  0.00    -0.224 NA
BRANCH  25  27
HETATM   27  C20 UNK     1      25.413  -9.001  37.650  1.00  0.00     0.017 A 
HETATM   28  C22 UNK     1      25.773  -8.456  38.882  1.00  0.00     0.016 A 
HETATM   29  C24 UNK     1      27.106  -8.489  39.296  1.00  0.00     0.001 A 
HETATM   30  C26 UNK     1      28.076  -9.066  38.477  1.00  0.00     0.000 A 
HETATM   31  C25 UNK     1      27.716  -9.611  37.245  1.00  0.00     0.001 A 
HETATM   32  C23 UNK     1      26.384  -9.578  36.831  1.00  0.00     0.016 A 
ENDBRANCH  25  27
ENDBRANCH  20  21
ENDBRANCH   2  20
TORSDOF 5
ENDMDL
MODEL 9
REMARK VINA RESULT:      -9.1     27.220     30.484
REMARK  5 active torsions:
REMARK  status: ('A' for Active; 'I' for Inactive)
REMARK    1  A    between atoms: C5_11  and  N1_4 
REMARK    2  A    between atoms: C6_12  and  N2_5 
REMARK    3  A    between atoms: C5_11  and  C7_13 
REMARK    4  A    between atoms: C6_12  and  C8_14 
REMARK    5  A    between atoms: C14_20  and  C20_26 
ROOT
HETATM    1  N1  UNK     1      15.429   9.399   9.685  1.00  0.00     0.096 N 
HETATM    2  N2  UNK     1      16.687  11.869   8.862  1.00  0.00     0.097 N 
HETATM    3  C1  UNK     1      14.838  10.244   8.639  1.00  0.00     0.303 C 
HETATM    4  C2  UNK     1      16.194  10.217  10.633  1.00  0.00     0.303 C 
HETATM    5  C3  UNK     1      15.920  11.052   7.914  1.00  0.00     0.303 C 
HETATM    6  C4  UNK     1      17.277  11.023   9.907  1.00  0.00     0.303 C 
ENDROOT
BRANCH   1   7
HETATM    7  C5  UNK     1      14.396   8.631  10.376  1.00  0.00     0.312 C 
BRANCH   7   8
HETATM    8  C7  UNK     1      14.219   7.273   9.792  1.00  0.00    -0.011 A 
HETATM    9  C10 UNK     1      15.050   6.270  10.105  1.00  0.00     0.092 A 
HETATM   10  C15 UNK     1      14.914   4.911   9.553  1.00  0.00     0.288 A 
HETATM   11  O2  UNK     1      13.865   4.699   8.672  1.00  0.00    -0.275 OA
HETATM   12  O3  UNK     1      15.695   4.017   9.863  1.00  0.00    -0.260 OA
HETATM   13  C12 UNK     1      12.975   5.734   8.323  1.00  0.00     0.090 A 
HETATM   14  C9  UNK     1      13.116   7.017   8.855  1.00  0.00     0.006 A 
HETATM   15  C17 UNK     1      11.955   5.407   7.427  1.00  0.00     0.045 A 
HETATM   16  C13 UNK     1      12.190   7.991   8.458  1.00  0.00     0.015 A 
HETATM   17  C18 UNK     1      11.164   7.677   7.559  1.00  0.00     0.007 A 
HETATM   18  C19 UNK     1      11.046   6.387   7.045  1.00  0.00    -0.059 A 
HETATM   19  C21 UNK     1       9.950   6.060   6.089  1.00  0.00     0.048 C 
ENDBRANCH   7   8
ENDBRANCH   1   7
BRANCH   2  20
HETATM   20  C6  UNK     1      17.721  12.635   8.170  1.00  0.00     0.334 C 
BRANCH  20  21
HETATM   21  C8  UNK     1      17.090  13.796   7.472  1.00  0.00     0.095 A 
HETATM   22  C11 UNK     1      17.455  14.398   6.293  1.00  0.00     0.078 A 
HETATM   23  O1  UNK     1      16.584  15.417   6.054  1.00  0.00    -0.294 OA
HETATM   24  C16 UNK     1      18.519  14.183   5.305  1.00  0.00     0.079 C 
HETATM   25  C14 UNK     1      15.736  15.366   7.119  1.00  0.00     0.180 A 
HETATM   26  N3  UNK     1      15.987  14.421   7.995  1.00  0.00    -0.224 NA
BRANCH  25  27
HETATM   27  C20 UNK     1      14.694  16.355   7.118  1.00  0.00     0.017 A 
HETATM   28  C22 UNK     1      14.974  17.664   7.513  1.00  0.00     0.016 A 
HETATM   29  C24 UNK     1      13.961  18.624   7.512  1.00  0.00     0.001 A 
HETATM   30  C26 UNK     1      12.671  18.275   7.117  1.00  0.00     0.000 A 
HETATM   31  C25 UNK     1      12.391  16.968   6.721  1.00  0.00     0.001 A 
HETATM   32  C23 UNK     1      13.402  16.007   6.723  1.00  0.00     0.016 A 
ENDBRANCH  25  27
ENDBRANCH  20  21
ENDBRANCH   2  20
TORSDOF 5
ENDMDL
MODEL 10
REMARK VINA RESULT:      -9.1     11.646     14.366
REMARK  5 active torsions:
REMARK  status: ('A' for Active; 'I' for Inactive)
REMARK    1  A    between atoms: C5_11  and  N1_4 
REMARK    2  A    between atoms: C6_12  and  N2_5 
REMARK    3  A    between atoms: C5_11  and  C7_13 
REMARK    4  A    between atoms: C6_12  and  C8_14 
REMARK    5  A    between atoms: C14_20  and  C20_26 
ROOT
HETATM    1  N1  UNK     1      32.632  -6.698  36.497  1.00  0.00     0.096 N 
HETATM    2  N2  UNK     1      34.060  -6.971  33.998  1.00  0.00     0.097 N 
HETATM    3  C1  UNK     1      33.336  -5.559  35.894  1.00  0.00     0.303 C 
HETATM    4  C2  UNK     1      33.284  -7.959  36.127  1.00  0.00     0.303 C 
HETATM    5  C3  UNK     1      33.408  -5.710  34.370  1.00  0.00     0.303 C 
HETATM    6  C4  UNK     1      33.356  -8.109  34.603  1.00  0.00     0.303 C 
ENDROOT
BRANCH   1   7
HETATM    7  C5  UNK     1      32.565  -6.554  37.950  1.00  0.00     0.312 C 
BRANCH   7   8
HETATM    8  C7  UNK     1      31.195  -6.205  38.418  1.00  0.00    -0.011 A 
HETATM    9  C10 UNK     1      30.873  -4.944  38.738  1.00  0.00     0.092 A 
HETATM   10  C15 UNK     1      29.533  -4.551  39.205  1.00  0.00     0.288 A 
HETATM   11  O2  UNK     1      28.587  -5.560  39.305  1.00  0.00    -0.275 OA
HETATM   12  O3  UNK     1      29.274  -3.386  39.490  1.00  0.00    -0.260 OA
HETATM   13  C12 UNK     1      28.896  -6.895  38.975  1.00  0.00     0.090 A 
HETATM   14  C9  UNK     1      30.171  -7.252  38.534  1.00  0.00     0.006 A 
HETATM   15  C17 UNK     1      27.866  -7.827  39.114  1.00  0.00     0.045 A 
HETATM   16  C13 UNK     1      30.398  -8.600  38.227  1.00  0.00     0.015 A 
HETATM   17  C18 UNK     1      29.376  -9.546  38.362  1.00  0.00     0.007 A 
HETATM   18  C19 UNK     1      28.111  -9.160  38.804  1.00  0.00    -0.059 A 
HETATM   19  C21 UNK     1      27.027 -10.174  38.944  1.00  0.00     0.048 C 
ENDBRANCH   7   8
ENDBRANCH   1   7
BRANCH   2  20
HETATM   20  C6  UNK     1      34.124  -7.115  32.546  1.00  0.00     0.334 C 
BRANCH  20  21
HETATM   21  C8  UNK     1      32.863  -7.751  32.057  1.00  0.00     0.095 A 
HETATM   22  C11 UNK     1      32.642  -9.052  31.679  1.00  0.00     0.078 A 
HETATM   23  O1  UNK     1      31.337  -9.165  31.306  1.00  0.00    -0.294 OA
HETATM   24  C16 UNK     1      33.466 -10.263  31.600  1.00  0.00     0.079 C 
HETATM   25  C14 UNK     1      30.846  -7.907  31.484  1.00  0.00     0.180 A 
HETATM   26  N3  UNK     1      31.708  -7.023  31.930  1.00  0.00    -0.224 NA
BRANCH  25  27
HETATM   27  C20 UNK     1      29.457  -7.742  31.158  1.00  0.00     0.017 A 
HETATM   28  C22 UNK     1      28.765  -6.615  31.602  1.00  0.00     0.016 A 
HETATM   29  C24 UNK     1      27.415  -6.455  31.285  1.00  0.00     0.001 A 
HETATM   30  C26 UNK     1      26.759  -7.423  30.525  1.00  0.00     0.000 A 
HETATM   31  C25 UNK     1      27.450  -8.550  30.081  1.00  0.00     0.001 A 
HETATM   32  C23 UNK     1      28.799  -8.710  30.399  1.00  0.00     0.016 A 
ENDBRANCH  25  27
ENDBRANCH  20  21
ENDBRANCH   2  20
TORSDOF 5
ENDMDL
