MODEL 1
REMARK VINA RESULT:      -8.3      0.000      0.000
REMARK  4 active torsions:
REMARK  status: ('A' for Active; 'I' for Inactive)
REMARK    1  A    between atoms: C1_6  and  N1_5 
REMARK       I    between atoms: C9_14  and  N1_5 
REMARK    2  A    between atoms: C2_7  and  C4_9 
REMARK    3  A    between atoms: C3_8  and  C5_10 
REMARK    4  A    between atoms: C10_15  and  C9_14 
ROOT
HETATM    1  O2  UNK     1      23.066  -8.710  40.220  1.00  0.00    -0.267 OA
HETATM    2  N1  UNK     1      22.561  -8.144  37.985  1.00  0.00    -0.322 N 
HETATM    3  C9  UNK     1      23.344  -8.215  39.128  1.00  0.00     0.262 C 
HETATM    4  H7  UNK     1      22.982  -7.819  37.117  1.00  0.00     0.169 HD
ENDROOT
BRANCH   3   5
HETATM    5  C10 UNK     1      24.661  -7.597  38.929  1.00  0.00     0.108 A 
HETATM    6  C14 UNK     1      25.697  -8.437  38.814  1.00  0.00     0.037 A 
HETATM    7  C13 UNK     1      27.041  -7.919  38.613  1.00  0.00     0.000 A 
HETATM    8  C15 UNK     1      27.229  -6.543  38.545  1.00  0.00     0.089 A 
HETATM    9  C17 UNK     1      28.151  -8.758  38.487  1.00  0.00     0.033 A 
HETATM   10  O1  UNK     1      26.135  -5.664  38.668  1.00  0.00    -0.274 OA
HETATM   11  C18 UNK     1      28.491  -5.982  38.356  1.00  0.00     0.039 A 
HETATM   12  C16 UNK     1      24.837  -6.130  38.859  1.00  0.00     0.304 A 
HETATM   13  O3  UNK     1      23.891  -5.357  38.965  1.00  0.00    -0.259 OA
HETATM   14  C20 UNK     1      29.592  -6.826  38.231  1.00  0.00     0.022 A 
HETATM   15  C19 UNK     1      29.423  -8.211  38.296  1.00  0.00     0.011 A 
HETATM   16 Br1  UNK     1      30.922  -9.351  38.124  1.00  0.00    -0.051 Br
ENDBRANCH   3   5
BRANCH   2  17
HETATM   17  C1  UNK     1      21.260  -8.636  37.844  1.00  0.00     0.047 A 
HETATM   18  C2  UNK     1      21.039  -9.846  37.185  1.00  0.00    -0.031 A 
HETATM   19  C6  UNK     1      19.741 -10.337  37.045  1.00  0.00     0.009 A 
HETATM   20  C8  UNK     1      18.664  -9.620  37.565  1.00  0.00     0.001 A 
HETATM   21  C7  UNK     1      18.884  -8.411  38.224  1.00  0.00     0.009 A 
HETATM   22  C3  UNK     1      20.182  -7.918  38.364  1.00  0.00    -0.031 A 
BRANCH  18  23
HETATM   23  C4  UNK     1      22.173 -10.638  36.618  1.00  0.00     0.036 C 
HETATM   24  C11 UNK     1      22.052 -10.812  35.107  1.00  0.00     0.010 C 
ENDBRANCH  18  23
BRANCH  22  25
HETATM   25  C5  UNK     1      20.385  -6.620  39.075  1.00  0.00     0.036 C 
HETATM   26  C12 UNK     1      20.420  -5.436  38.112  1.00  0.00     0.010 C 
ENDBRANCH  22  25
ENDBRANCH   2  17
TORSDOF 4
ENDMDL
MODEL 2
REMARK VINA RESULT:      -8.3      0.144      2.496
REMARK  4 active torsions:
REMARK  status: ('A' for Active; 'I' for Inactive)
REMARK    1  A    between atoms: C1_6  and  N1_5 
REMARK       I    between atoms: C9_14  and  N1_5 
REMARK    2  A    between atoms: C2_7  and  C4_9 
REMARK    3  A    between atoms: C3_8  and  C5_10 
REMARK    4  A    between atoms: C10_15  and  C9_14 
ROOT
HETATM    1  O2  UNK     1      23.046  -8.620  40.220  1.00  0.00    -0.267 OA
HETATM    2  N1  UNK     1      22.587  -8.082  37.968  1.00  0.00    -0.322 N 
HETATM    3  C9  UNK     1      23.354  -8.159  39.122  1.00  0.00     0.262 C 
HETATM    4  H7  UNK     1      23.028  -7.790  37.100  1.00  0.00     0.169 HD
ENDROOT
BRANCH   3   5
HETATM    5  C10 UNK     1      24.695  -7.592  38.926  1.00  0.00     0.108 A 
HETATM    6  C14 UNK     1      25.699  -8.473  38.829  1.00  0.00     0.037 A 
HETATM    7  C13 UNK     1      27.063  -8.008  38.633  1.00  0.00     0.000 A 
HETATM    8  C15 UNK     1      27.303  -6.640  38.551  1.00  0.00     0.089 A 
HETATM    9  C17 UNK     1      28.142  -8.889  38.526  1.00  0.00     0.033 A 
HETATM   10  O1  UNK     1      26.243  -5.720  38.654  1.00  0.00    -0.274 OA
HETATM   11  C18 UNK     1      28.587  -6.130  38.365  1.00  0.00     0.039 A 
HETATM   12  C16 UNK     1      24.926  -6.134  38.841  1.00  0.00     0.304 A 
HETATM   13  O3  UNK     1      24.009  -5.325  38.930  1.00  0.00    -0.259 OA
HETATM   14  C20 UNK     1      29.657  -7.016  38.259  1.00  0.00     0.022 A 
HETATM   15  C19 UNK     1      29.435  -8.393  38.339  1.00  0.00     0.011 A 
HETATM   16 Br1  UNK     1      30.891  -9.591  38.193  1.00  0.00    -0.051 Br
ENDBRANCH   3   5
BRANCH   2  17
HETATM   17  C1  UNK     1      21.270  -8.529  37.823  1.00  0.00     0.047 A 
HETATM   18  C2  UNK     1      20.214  -7.763  38.316  1.00  0.00    -0.031 A 
HETATM   19  C6  UNK     1      18.900  -8.210  38.171  1.00  0.00     0.009 A 
HETATM   20  C8  UNK     1      18.642  -9.422  37.532  1.00  0.00     0.001 A 
HETATM   21  C7  UNK     1      19.698 -10.189  37.040  1.00  0.00     0.009 A 
HETATM   22  C3  UNK     1      21.012  -9.743  37.185  1.00  0.00    -0.031 A 
BRANCH  18  23
HETATM   23  C4  UNK     1      20.457  -6.458  39.004  1.00  0.00     0.036 C 
HETATM   24  C11 UNK     1      20.531  -5.295  38.019  1.00  0.00     0.010 C 
ENDBRANCH  18  23
BRANCH  22  25
HETATM   25  C5  UNK     1      22.120 -10.587  36.646  1.00  0.00     0.036 C 
HETATM   26  C12 UNK     1      22.013 -10.785  35.137  1.00  0.00     0.010 C 
ENDBRANCH  22  25
ENDBRANCH   2  17
TORSDOF 4
ENDMDL
MODEL 3
REMARK VINA RESULT:      -8.2     10.414     13.455
REMARK  4 active torsions:
REMARK  status: ('A' for Active; 'I' for Inactive)
REMARK    1  A    between atoms: C1_6  and  N1_5 
REMARK       I    between atoms: C9_14  and  N1_5 
REMARK    2  A    between atoms: C2_7  and  C4_9 
REMARK    3  A    between atoms: C3_8  and  C5_10 
REMARK    4  A    between atoms: C10_15  and  C9_14 
ROOT
HETATM    1  O2  UNK     1      16.552   0.788  34.030  1.00  0.00    -0.267 OA
HETATM    2  N1  UNK     1      18.754   0.841  34.879  1.00  0.00    -0.322 N 
HETATM    3  C9  UNK     1      17.683   1.265  34.104  1.00  0.00     0.262 C 
HETATM    4  H7  UNK     1      19.588   1.420  34.928  1.00  0.00     0.169 HD
ENDROOT
BRANCH   3   5
HETATM    5  C10 UNK     1      18.027   2.441  33.293  1.00  0.00     0.108 A 
HETATM    6  C14 UNK     1      18.012   3.620  33.927  1.00  0.00     0.037 A 
HETATM    7  C13 UNK     1      18.339   4.842  33.208  1.00  0.00     0.000 A 
HETATM    8  C15 UNK     1      18.664   4.762  31.859  1.00  0.00     0.089 A 
HETATM    9  C17 UNK     1      18.337   6.093  33.828  1.00  0.00     0.033 A 
HETATM   10  O1  UNK     1      18.678   3.518  31.197  1.00  0.00    -0.274 OA
HETATM   11  C18 UNK     1      18.986   5.894  31.113  1.00  0.00     0.039 A 
HETATM   12  C16 UNK     1      18.371   2.332  31.859  1.00  0.00     0.304 A 
HETATM   13  O3  UNK     1      18.385   1.254  31.275  1.00  0.00    -0.259 OA
HETATM   14  C20 UNK     1      18.982   7.139  31.739  1.00  0.00     0.022 A 
HETATM   15  C19 UNK     1      18.658   7.239  33.094  1.00  0.00     0.011 A 
HETATM   16 Br1  UNK     1      18.655   8.930  33.939  1.00  0.00    -0.051 Br
ENDBRANCH   3   5
BRANCH   2  17
HETATM   17  C1  UNK     1      18.755  -0.248  35.756  1.00  0.00     0.047 A 
HETATM   18  C2  UNK     1      18.328  -0.081  37.074  1.00  0.00    -0.031 A 
HETATM   19  C6  UNK     1      18.329  -1.168  37.950  1.00  0.00     0.009 A 
HETATM   20  C8  UNK     1      18.757  -2.419  37.509  1.00  0.00     0.001 A 
HETATM   21  C7  UNK     1      19.185  -2.585  36.192  1.00  0.00     0.009 A 
HETATM   22  C3  UNK     1      19.185  -1.500  35.315  1.00  0.00    -0.031 A 
BRANCH  18  23
HETATM   23  C4  UNK     1      17.861   1.247  37.577  1.00  0.00     0.036 C 
HETATM   24  C11 UNK     1      16.347   1.400  37.473  1.00  0.00     0.010 C 
ENDBRANCH  18  23
BRANCH  22  25
HETATM   25  C5  UNK     1      19.649  -1.710  33.911  1.00  0.00     0.036 C 
HETATM   26  C12 UNK     1      20.675  -2.835  33.806  1.00  0.00     0.010 C 
ENDBRANCH  22  25
ENDBRANCH   2  17
TORSDOF 4
ENDMDL
MODEL 4
REMARK VINA RESULT:      -8.2     10.404     13.217
REMARK  4 active torsions:
REMARK  status: ('A' for Active; 'I' for Inactive)
REMARK    1  A    between atoms: C1_6  and  N1_5 
REMARK       I    between atoms: C9_14  and  N1_5 
REMARK    2  A    between atoms: C2_7  and  C4_9 
REMARK    3  A    between atoms: C3_8  and  C5_10 
REMARK    4  A    between atoms: C10_15  and  C9_14 
ROOT
HETATM    1  O2  UNK     1      16.547   0.776  34.033  1.00  0.00    -0.267 OA
HETATM    2  N1  UNK     1      18.752   0.823  34.873  1.00  0.00    -0.322 N 
HETATM    3  C9  UNK     1      17.679   1.250  34.103  1.00  0.00     0.262 C 
HETATM    4  H7  UNK     1      19.587   1.401  34.921  1.00  0.00     0.169 HD
ENDROOT
BRANCH   3   5
HETATM    5  C10 UNK     1      18.022   2.426  33.293  1.00  0.00     0.108 A 
HETATM    6  C14 UNK     1      18.009   3.605  33.927  1.00  0.00     0.037 A 
HETATM    7  C13 UNK     1      18.336   4.827  33.209  1.00  0.00     0.000 A 
HETATM    8  C15 UNK     1      18.658   4.748  31.859  1.00  0.00     0.089 A 
HETATM    9  C17 UNK     1      18.335   6.078  33.830  1.00  0.00     0.033 A 
HETATM   10  O1  UNK     1      18.670   3.505  31.196  1.00  0.00    -0.274 OA
HETATM   11  C18 UNK     1      18.979   5.881  31.113  1.00  0.00     0.039 A 
HETATM   12  C16 UNK     1      18.363   2.318  31.857  1.00  0.00     0.304 A 
HETATM   13  O3  UNK     1      18.376   1.240  31.273  1.00  0.00    -0.259 OA
HETATM   14  C20 UNK     1      18.977   7.125  31.740  1.00  0.00     0.022 A 
HETATM   15  C19 UNK     1      18.655   7.224  33.096  1.00  0.00     0.011 A 
HETATM   16 Br1  UNK     1      18.655   8.915  33.942  1.00  0.00    -0.051 Br
ENDBRANCH   3   5
BRANCH   2  17
HETATM   17  C1  UNK     1      18.754  -0.267  35.750  1.00  0.00     0.047 A 
HETATM   18  C2  UNK     1      19.179  -1.519  35.305  1.00  0.00    -0.031 A 
HETATM   19  C6  UNK     1      19.181  -2.606  36.180  1.00  0.00     0.009 A 
HETATM   20  C8  UNK     1      18.760  -2.441  37.499  1.00  0.00     0.001 A 
HETATM   21  C7  UNK     1      18.335  -1.189  37.943  1.00  0.00     0.009 A 
HETATM   22  C3  UNK     1      18.331  -0.102  37.070  1.00  0.00    -0.031 A 
BRANCH  18  23
HETATM   23  C4  UNK     1      19.638  -1.728  33.898  1.00  0.00     0.036 C 
HETATM   24  C11 UNK     1      20.718  -2.801  33.800  1.00  0.00     0.010 C 
ENDBRANCH  18  23
BRANCH  22  25
HETATM   25  C5  UNK     1      17.870   1.226  37.576  1.00  0.00     0.036 C 
HETATM   26  C12 UNK     1      16.356   1.387  37.473  1.00  0.00     0.010 C 
ENDBRANCH  22  25
ENDBRANCH   2  17
TORSDOF 4
ENDMDL
MODEL 5
REMARK VINA RESULT:      -8.2     22.694     24.711
REMARK  4 active torsions:
REMARK  status: ('A' for Active; 'I' for Inactive)
REMARK    1  A    between atoms: C1_6  and  N1_5 
REMARK       I    between atoms: C9_14  and  N1_5 
REMARK    2  A    between atoms: C2_7  and  C4_9 
REMARK    3  A    between atoms: C3_8  and  C5_10 
REMARK    4  A    between atoms: C10_15  and  C9_14 
ROOT
HETATM    1  O2  UNK     1      17.876  -3.530  15.381  1.00  0.00    -0.267 OA
HETATM    2  N1  UNK     1      19.959  -3.259  14.306  1.00  0.00    -0.322 N 
HETATM    3  C9  UNK     1      18.865  -2.870  15.066  1.00  0.00     0.262 C 
HETATM    4  H7  UNK     1      20.762  -2.638  14.242  1.00  0.00     0.169 HD
ENDROOT
BRANCH   3   5
HETATM    5  C10 UNK     1      18.977  -1.476  15.513  1.00  0.00     0.108 A 
HETATM    6  C14 UNK     1      18.925  -1.274  16.836  1.00  0.00     0.037 A 
HETATM    7  C13 UNK     1      19.029   0.073  17.376  1.00  0.00     0.000 A 
HETATM    8  C15 UNK     1      19.180   1.140  16.497  1.00  0.00     0.089 A 
HETATM    9  C17 UNK     1      18.981   0.330  18.748  1.00  0.00     0.033 A 
HETATM   10  O1  UNK     1      19.233   0.921  15.107  1.00  0.00    -0.274 OA
HETATM   11  C18 UNK     1      19.283   2.454  16.950  1.00  0.00     0.039 A 
HETATM   12  C16 UNK     1      19.138  -0.356  14.561  1.00  0.00     0.304 A 
HETATM   13  O3  UNK     1      19.186  -0.537  13.349  1.00  0.00    -0.259 OA
HETATM   14  C20 UNK     1      19.235   2.702  18.319  1.00  0.00     0.022 A 
HETATM   15  C19 UNK     1      19.084   1.643  19.218  1.00  0.00     0.011 A 
HETATM   16 Br1  UNK     1      19.019   1.986  21.076  1.00  0.00    -0.051 Br
ENDBRANCH   3   5
BRANCH   2  17
HETATM   17  C1  UNK     1      20.158  -4.518  13.731  1.00  0.00     0.047 A 
HETATM   18  C2  UNK     1      20.633  -5.573  14.510  1.00  0.00    -0.031 A 
HETATM   19  C6  UNK     1      20.831  -6.830  13.936  1.00  0.00     0.009 A 
HETATM   20  C8  UNK     1      20.554  -7.031  12.584  1.00  0.00     0.001 A 
HETATM   21  C7  UNK     1      20.080  -5.976  11.805  1.00  0.00     0.009 A 
HETATM   22  C3  UNK     1      19.882  -4.719  12.378  1.00  0.00    -0.031 A 
BRANCH  18  23
HETATM   23  C4  UNK     1      20.937  -5.390  15.962  1.00  0.00     0.036 C 
HETATM   24  C11 UNK     1      22.353  -4.870  16.190  1.00  0.00     0.010 C 
ENDBRANCH  18  23
BRANCH  22  25
HETATM   25  C5  UNK     1      19.374  -3.609  11.517  1.00  0.00     0.036 C 
HETATM   26  C12 UNK     1      20.408  -3.157  10.490  1.00  0.00     0.010 C 
ENDBRANCH  22  25
ENDBRANCH   2  17
TORSDOF 4
ENDMDL
MODEL 6
REMARK VINA RESULT:      -8.2     22.705     24.720
REMARK  4 active torsions:
REMARK  status: ('A' for Active; 'I' for Inactive)
REMARK    1  A    between atoms: C1_6  and  N1_5 
REMARK       I    between atoms: C9_14  and  N1_5 
REMARK    2  A    between atoms: C2_7  and  C4_9 
REMARK    3  A    between atoms: C3_8  and  C5_10 
REMARK    4  A    between atoms: C10_15  and  C9_14 
ROOT
HETATM    1  O2  UNK     1      17.862  -3.588  15.289  1.00  0.00    -0.267 OA
HETATM    2  N1  UNK     1      19.977  -3.331  14.274  1.00  0.00    -0.322 N 
HETATM    3  C9  UNK     1      18.864  -2.935  15.002  1.00  0.00     0.262 C 
HETATM    4  H7  UNK     1      20.785  -2.715  14.233  1.00  0.00     0.169 HD
ENDROOT
BRANCH   3   5
HETATM    5  C10 UNK     1      18.973  -1.541  15.452  1.00  0.00     0.108 A 
HETATM    6  C14 UNK     1      18.914  -1.341  16.775  1.00  0.00     0.037 A 
HETATM    7  C13 UNK     1      19.013   0.005  17.318  1.00  0.00     0.000 A 
HETATM    8  C15 UNK     1      19.168   1.074  16.442  1.00  0.00     0.089 A 
HETATM    9  C17 UNK     1      18.958   0.260  18.690  1.00  0.00     0.033 A 
HETATM   10  O1  UNK     1      19.228   0.857  15.051  1.00  0.00    -0.274 OA
HETATM   11  C18 UNK     1      19.267   2.387  16.896  1.00  0.00     0.039 A 
HETATM   12  C16 UNK     1      19.137  -0.420  14.502  1.00  0.00     0.304 A 
HETATM   13  O3  UNK     1      19.190  -0.599  13.290  1.00  0.00    -0.259 OA
HETATM   14  C20 UNK     1      19.212   2.633  18.266  1.00  0.00     0.022 A 
HETATM   15  C19 UNK     1      19.057   1.572  19.162  1.00  0.00     0.011 A 
HETATM   16 Br1  UNK     1      18.983   1.912  21.020  1.00  0.00    -0.051 Br
ENDBRANCH   3   5
BRANCH   2  17
HETATM   17  C1  UNK     1      20.184  -4.592  13.705  1.00  0.00     0.047 A 
HETATM   18  C2  UNK     1      19.910  -4.800  12.353  1.00  0.00    -0.031 A 
HETATM   19  C6  UNK     1      20.117  -6.058  11.786  1.00  0.00     0.009 A 
HETATM   20  C8  UNK     1      20.597  -7.107  12.570  1.00  0.00     0.001 A 
HETATM   21  C7  UNK     1      20.869  -6.899  13.922  1.00  0.00     0.009 A 
HETATM   22  C3  UNK     1      20.663  -5.641  14.490  1.00  0.00    -0.031 A 
BRANCH  18  23
HETATM   23  C4  UNK     1      19.397  -3.696  11.486  1.00  0.00     0.036 C 
HETATM   24  C11 UNK     1      20.520  -2.991  10.731  1.00  0.00     0.010 C 
ENDBRANCH  18  23
BRANCH  22  25
HETATM   25  C5  UNK     1      20.963  -5.450  15.941  1.00  0.00     0.036 C 
HETATM   26  C12 UNK     1      22.299  -4.747  16.164  1.00  0.00     0.010 C 
ENDBRANCH  22  25
ENDBRANCH   2  17
TORSDOF 4
ENDMDL
MODEL 7
REMARK VINA RESULT:      -7.9      9.893     12.711
REMARK  4 active torsions:
REMARK  status: ('A' for Active; 'I' for Inactive)
REMARK    1  A    between atoms: C1_6  and  N1_5 
REMARK       I    between atoms: C9_14  and  N1_5 
REMARK    2  A    between atoms: C2_7  and  C4_9 
REMARK    3  A    between atoms: C3_8  and  C5_10 
REMARK    4  A    between atoms: C10_15  and  C9_14 
ROOT
HETATM    1  O2  UNK     1      17.548  -0.873  33.153  1.00  0.00    -0.267 OA
HETATM    2  N1  UNK     1      19.064   0.122  34.664  1.00  0.00    -0.322 N 
HETATM    3  C9  UNK     1      18.310   0.028  33.503  1.00  0.00     0.262 C 
HETATM    4  H7  UNK     1      19.546   0.994  34.870  1.00  0.00     0.169 HD
ENDROOT
BRANCH   3   5
HETATM    5  C10 UNK     1      18.502   1.192  32.629  1.00  0.00     0.108 A 
HETATM    6  C14 UNK     1      18.145   2.378  33.138  1.00  0.00     0.037 A 
HETATM    7  C13 UNK     1      18.299   3.590  32.349  1.00  0.00     0.000 A 
HETATM    8  C15 UNK     1      18.819   3.494  31.063  1.00  0.00     0.089 A 
HETATM    9  C17 UNK     1      17.940   4.848  32.839  1.00  0.00     0.033 A 
HETATM   10  O1  UNK     1      19.193   2.244  30.533  1.00  0.00    -0.274 OA
HETATM   11  C18 UNK     1      18.991   4.617  30.255  1.00  0.00     0.039 A 
HETATM   12  C16 UNK     1      19.059   1.067  31.265  1.00  0.00     0.304 A 
HETATM   13  O3  UNK     1      19.387  -0.017  30.795  1.00  0.00    -0.259 OA
HETATM   14  C20 UNK     1      18.631   5.867  30.751  1.00  0.00     0.022 A 
HETATM   15  C19 UNK     1      18.106   5.984  32.041  1.00  0.00     0.011 A 
HETATM   16 Br1  UNK     1      17.620   7.684  32.710  1.00  0.00    -0.051 Br
ENDBRANCH   3   5
BRANCH   2  17
HETATM   17  C1  UNK     1      19.107  -0.818  35.698  1.00  0.00     0.047 A 
HETATM   18  C2  UNK     1      20.057  -1.840  35.673  1.00  0.00    -0.031 A 
HETATM   19  C6  UNK     1      20.099  -2.778  36.704  1.00  0.00     0.009 A 
HETATM   20  C8  UNK     1      19.193  -2.695  37.761  1.00  0.00     0.001 A 
HETATM   21  C7  UNK     1      18.243  -1.674  37.786  1.00  0.00     0.009 A 
HETATM   22  C3  UNK     1      18.199  -0.736  36.755  1.00  0.00    -0.031 A 
BRANCH  18  23
HETATM   23  C4  UNK     1      21.042  -1.955  34.555  1.00  0.00     0.036 C 
HETATM   24  C11 UNK     1      20.509  -2.802  33.404  1.00  0.00     0.010 C 
ENDBRANCH  18  23
BRANCH  22  25
HETATM   25  C5  UNK     1      17.170   0.345  36.810  1.00  0.00     0.036 C 
HETATM   26  C12 UNK     1      17.492   1.394  37.871  1.00  0.00     0.010 C 
ENDBRANCH  22  25
ENDBRANCH   2  17
TORSDOF 4
ENDMDL
MODEL 8
REMARK VINA RESULT:      -7.9      3.073      7.905
REMARK  4 active torsions:
REMARK  status: ('A' for Active; 'I' for Inactive)
REMARK    1  A    between atoms: C1_6  and  N1_5 
REMARK       I    between atoms: C9_14  and  N1_5 
REMARK    2  A    between atoms: C2_7  and  C4_9 
REMARK    3  A    between atoms: C3_8  and  C5_10 
REMARK    4  A    between atoms: C10_15  and  C9_14 
ROOT
HETATM    1  O2  UNK     1      27.142  -8.571  39.776  1.00  0.00    -0.267 OA
HETATM    2  N1  UNK     1      27.643  -7.156  37.955  1.00  0.00    -0.322 N 
HETATM    3  C9  UNK     1      26.838  -7.735  38.926  1.00  0.00     0.262 C 
HETATM    4  H7  UNK     1      27.277  -6.381  37.408  1.00  0.00     0.169 HD
ENDROOT
BRANCH   3   5
HETATM    5  C10 UNK     1      25.459  -7.235  38.863  1.00  0.00     0.108 A 
HETATM    6  C14 UNK     1      24.498  -8.162  38.768  1.00  0.00     0.037 A 
HETATM    7  C13 UNK     1      23.100  -7.764  38.701  1.00  0.00     0.000 A 
HETATM    8  C15 UNK     1      22.784  -6.411  38.736  1.00  0.00     0.089 A 
HETATM    9  C17 UNK     1      22.065  -8.696  38.602  1.00  0.00     0.033 A 
HETATM   10  O1  UNK     1      23.799  -5.440  38.835  1.00  0.00    -0.274 OA
HETATM   11  C18 UNK     1      21.465  -5.963  38.674  1.00  0.00     0.039 A 
HETATM   12  C16 UNK     1      25.146  -5.790  38.902  1.00  0.00     0.304 A 
HETATM   13  O3  UNK     1      26.023  -4.938  38.989  1.00  0.00    -0.259 OA
HETATM   14  C20 UNK     1      20.439  -6.899  38.575  1.00  0.00     0.022 A 
HETATM   15  C19 UNK     1      20.737  -8.264  38.540  1.00  0.00     0.011 A 
HETATM   16 Br1  UNK     1      19.339  -9.530  38.407  1.00  0.00    -0.051 Br
ENDBRANCH   3   5
BRANCH   2  17
HETATM   17  C1  UNK     1      29.001  -7.417  37.747  1.00  0.00     0.047 A 
HETATM   18  C2  UNK     1      29.965  -6.546  38.255  1.00  0.00    -0.031 A 
HETATM   19  C6  UNK     1      31.319  -6.806  38.048  1.00  0.00     0.009 A 
HETATM   20  C8  UNK     1      31.711  -7.937  37.332  1.00  0.00     0.001 A 
HETATM   21  C7  UNK     1      30.747  -8.808  36.822  1.00  0.00     0.009 A 
HETATM   22  C3  UNK     1      29.392  -8.548  37.029  1.00  0.00    -0.031 A 
BRANCH  18  23
HETATM   23  C4  UNK     1      29.577  -5.326  39.028  1.00  0.00     0.036 C 
HETATM   24  C11 UNK     1      29.852  -4.043  38.250  1.00  0.00     0.010 C 
ENDBRANCH  18  23
BRANCH  22  25
HETATM   25  C5  UNK     1      28.385  -9.499  36.471  1.00  0.00     0.036 C 
HETATM   26  C12 UNK     1      28.375  -9.498  34.945  1.00  0.00     0.010 C 
ENDBRANCH  22  25
ENDBRANCH   2  17
TORSDOF 4
ENDMDL
MODEL 9
REMARK VINA RESULT:      -7.8      3.136      7.646
REMARK  4 active torsions:
REMARK  status: ('A' for Active; 'I' for Inactive)
REMARK    1  A    between atoms: C1_6  and  N1_5 
REMARK       I    between atoms: C9_14  and  N1_5 
REMARK    2  A    between atoms: C2_7  and  C4_9 
REMARK    3  A    between atoms: C3_8  and  C5_10 
REMARK    4  A    between atoms: C10_15  and  C9_14 
ROOT
HETATM    1  O2  UNK     1      27.566  -8.464  39.824  1.00  0.00    -0.267 OA
HETATM    2  N1  UNK     1      28.002  -7.115  37.937  1.00  0.00    -0.322 N 
HETATM    3  C9  UNK     1      27.231  -7.661  38.954  1.00  0.00     0.262 C 
HETATM    4  H7  UNK     1      27.615  -6.362  37.373  1.00  0.00     0.169 HD
ENDROOT
BRANCH   3   5
HETATM    5  C10 UNK     1      25.849  -7.168  38.917  1.00  0.00     0.108 A 
HETATM    6  C14 UNK     1      24.889  -8.102  38.914  1.00  0.00     0.037 A 
HETATM    7  C13 UNK     1      23.488  -7.711  38.879  1.00  0.00     0.000 A 
HETATM    8  C15 UNK     1      23.167  -6.358  38.848  1.00  0.00     0.089 A 
HETATM    9  C17 UNK     1      22.453  -8.650  38.875  1.00  0.00     0.033 A 
HETATM   10  O1  UNK     1      24.181  -5.381  38.851  1.00  0.00    -0.274 OA
HETATM   11  C18 UNK     1      21.845  -5.918  38.812  1.00  0.00     0.039 A 
HETATM   12  C16 UNK     1      25.530  -5.724  38.885  1.00  0.00     0.304 A 
HETATM   13  O3  UNK     1      26.407  -4.866  38.887  1.00  0.00    -0.259 OA
HETATM   14  C20 UNK     1      20.819  -6.861  38.809  1.00  0.00     0.022 A 
HETATM   15  C19 UNK     1      21.122  -8.225  38.841  1.00  0.00     0.011 A 
HETATM   16 Br1  UNK     1      19.726  -9.499  38.837  1.00  0.00    -0.051 Br
ENDBRANCH   3   5
BRANCH   2  17
HETATM   17  C1  UNK     1      29.354  -7.379  37.695  1.00  0.00     0.047 A 
HETATM   18  C2  UNK     1      29.726  -8.521  36.986  1.00  0.00    -0.031 A 
HETATM   19  C6  UNK     1      31.075  -8.784  36.745  1.00  0.00     0.009 A 
HETATM   20  C8  UNK     1      32.051  -7.905  37.212  1.00  0.00     0.001 A 
HETATM   21  C7  UNK     1      31.680  -6.763  37.921  1.00  0.00     0.009 A 
HETATM   22  C3  UNK     1      30.331  -6.500  38.163  1.00  0.00    -0.031 A 
BRANCH  18  23
HETATM   23  C4  UNK     1      28.703  -9.482  36.471  1.00  0.00     0.036 C 
HETATM   24  C11 UNK     1      28.388  -9.249  34.996  1.00  0.00     0.010 C 
ENDBRANCH  18  23
BRANCH  22  25
HETATM   25  C5  UNK     1      29.966  -5.269  38.926  1.00  0.00     0.036 C 
HETATM   26  C12 UNK     1      29.973  -4.022  38.046  1.00  0.00     0.010 C 
ENDBRANCH  22  25
ENDBRANCH   2  17
TORSDOF 4
ENDMDL
MODEL 10
REMARK VINA RESULT:      -7.8      5.796      8.872
REMARK  4 active torsions:
REMARK  status: ('A' for Active; 'I' for Inactive)
REMARK    1  A    between atoms: C1_6  and  N1_5 
REMARK       I    between atoms: C9_14  and  N1_5 
REMARK    2  A    between atoms: C2_7  and  C4_9 
REMARK    3  A    between atoms: C3_8  and  C5_10 
REMARK    4  A    between atoms: C10_15  and  C9_14 
ROOT
HETATM    1  O2  UNK     1      20.252  -4.948  35.141  1.00  0.00    -0.267 OA
HETATM    2  N1  UNK     1      19.774  -4.856  37.450  1.00  0.00    -0.322 N 
HETATM    3  C9  UNK     1      19.937  -4.350  36.169  1.00  0.00     0.262 C 
HETATM    4  H7  UNK     1      19.381  -4.257  38.173  1.00  0.00     0.169 HD
ENDROOT
BRANCH   3   5
HETATM    5  C10 UNK     1      19.684  -2.904  36.116  1.00  0.00     0.108 A 
HETATM    6  C14 UNK     1      18.430  -2.514  36.378  1.00  0.00     0.037 A 
HETATM    7  C13 UNK     1      18.082  -1.102  36.351  1.00  0.00     0.000 A 
HETATM    8  C15 UNK     1      19.069  -0.171  36.047  1.00  0.00     0.089 A 
HETATM    9  C17 UNK     1      16.788  -0.649  36.620  1.00  0.00     0.033 A 
HETATM   10  O1  UNK     1      20.386  -0.587  35.771  1.00  0.00    -0.274 OA
HETATM   11  C18 UNK     1      18.801   1.196  36.003  1.00  0.00     0.039 A 
HETATM   12  C16 UNK     1      20.750  -1.932  35.791  1.00  0.00     0.304 A 
HETATM   13  O3  UNK     1      21.899  -2.285  35.549  1.00  0.00    -0.259 OA
HETATM   14  C20 UNK     1      17.508   1.639  36.272  1.00  0.00     0.022 A 
HETATM   15  C19 UNK     1      16.502   0.718  36.580  1.00  0.00     0.011 A 
HETATM   16 Br1  UNK     1      14.749   1.326  36.945  1.00  0.00    -0.051 Br
ENDBRANCH   3   5
BRANCH   2  17
HETATM   17  C1  UNK     1      19.941  -6.190  37.837  1.00  0.00     0.047 A 
HETATM   18  C2  UNK     1      21.121  -6.591  38.464  1.00  0.00    -0.031 A 
HETATM   19  C6  UNK     1      21.288  -7.922  38.850  1.00  0.00     0.009 A 
HETATM   20  C8  UNK     1      20.276  -8.850  38.609  1.00  0.00     0.001 A 
HETATM   21  C7  UNK     1      19.097  -8.449  37.981  1.00  0.00     0.009 A 
HETATM   22  C3  UNK     1      18.929  -7.119  37.595  1.00  0.00    -0.031 A 
BRANCH  18  23
HETATM   23  C4  UNK     1      22.223  -5.620  38.738  1.00  0.00     0.036 C 
HETATM   24  C11 UNK     1      23.494  -6.314  39.220  1.00  0.00     0.010 C 
ENDBRANCH  18  23
BRANCH  22  25
HETATM   25  C5  UNK     1      17.655  -6.721  36.924  1.00  0.00     0.036 C 
HETATM   26  C12 UNK     1      17.522  -7.331  35.531  1.00  0.00     0.010 C 
ENDBRANCH  22  25
ENDBRANCH   2  17
TORSDOF 4
ENDMDL
