MODEL 1
REMARK VINA RESULT:      -6.8      0.000      0.000
REMARK  2 active torsions:
REMARK  status: ('A' for Active; 'I' for Inactive)
REMARK    1  A    between atoms: C9_12  and  O2_2 
REMARK    2  A    between atoms: C3_6  and  C6_9 
ROOT
HETATM    1  O1  UNK     1      17.958   2.008  33.109  1.00  0.00    -0.274 OA
HETATM    2  O3  UNK     1      17.700   3.703  31.621  1.00  0.00    -0.259 OA
HETATM    3  C1  UNK     1      19.078  -0.048  32.444  1.00  0.00     0.005 A 
HETATM    4  C2  UNK     1      19.285   0.522  31.096  1.00  0.00    -0.037 A 
HETATM    5  C3  UNK     1      18.803   1.752  30.815  1.00  0.00     0.024 A 
HETATM    6  C4  UNK     1      18.422   0.717  33.405  1.00  0.00     0.099 A 
HETATM    7  C5  UNK     1      18.186   0.254  34.702  1.00  0.00     0.006 A 
HETATM    8  C7  UNK     1      19.496  -1.333  32.826  1.00  0.00     0.017 A 
HETATM    9  C8  UNK     1      18.112   2.571  31.852  1.00  0.00     0.295 A 
HETATM   10  C9  UNK     1      18.613  -1.018  35.059  1.00  0.00     0.076 A 
HETATM   11  C10 UNK     1      20.051  -0.323  30.109  1.00  0.00     0.050 C 
HETATM   12  C11 UNK     1      19.267  -1.813  34.120  1.00  0.00     0.038 A 
HETATM   13  C12 UNK     1      17.480   1.115  35.699  1.00  0.00     0.054 C 
ENDROOT
BRANCH   5  14
HETATM   14  C6  UNK     1      18.887   2.422  29.468  1.00  0.00     0.041 C 
HETATM   15  C13 UNK     1      17.791   1.941  28.541  1.00  0.00     0.010 C 
ENDBRANCH   5  14
BRANCH  10  16
HETATM   16  O2  UNK     1      18.402  -1.504  36.313  1.00  0.00    -0.355 OA
HETATM   17  C14 UNK     1      19.284  -2.529  36.770  1.00  0.00     0.210 C 
ENDBRANCH  10  16
TORSDOF 2
ENDMDL
MODEL 2
REMARK VINA RESULT:      -6.8      1.844      5.992
REMARK  2 active torsions:
REMARK  status: ('A' for Active; 'I' for Inactive)
REMARK    1  A    between atoms: C9_12  and  O2_2 
REMARK    2  A    between atoms: C3_6  and  C6_9 
ROOT
HETATM    1  O1  UNK     1      18.591   0.631  31.814  1.00  0.00    -0.274 OA
HETATM    2  O3  UNK     1      18.575  -1.526  32.520  1.00  0.00    -0.259 OA
HETATM    3  C1  UNK     1      18.316   2.446  33.411  1.00  0.00     0.005 A 
HETATM    4  C2  UNK     1      18.221   1.451  34.499  1.00  0.00    -0.037 A 
HETATM    5  C3  UNK     1      18.278   0.135  34.201  1.00  0.00     0.024 A 
HETATM    6  C4  UNK     1      18.499   2.001  32.105  1.00  0.00     0.099 A 
HETATM    7  C5  UNK     1      18.597   2.875  31.019  1.00  0.00     0.006 A 
HETATM    8  C7  UNK     1      18.222   3.834  33.605  1.00  0.00     0.017 A 
HETATM    9  C8  UNK     1      18.487  -0.335  32.801  1.00  0.00     0.295 A 
HETATM   10  C9  UNK     1      18.507   4.244  31.236  1.00  0.00     0.076 A 
HETATM   11  C10 UNK     1      18.082   1.986  35.902  1.00  0.00     0.050 C 
HETATM   12  C11 UNK     1      18.318   4.724  32.530  1.00  0.00     0.038 A 
HETATM   13  C12 UNK     1      18.797   2.348  29.635  1.00  0.00     0.054 C 
ENDROOT
BRANCH   5  14
HETATM   14  C6  UNK     1      18.131  -0.982  35.201  1.00  0.00     0.041 C 
HETATM   15  C13 UNK     1      19.471  -1.390  35.774  1.00  0.00     0.010 C 
ENDBRANCH   5  14
BRANCH  10  16
HETATM   16  O2  UNK     1      18.600   5.126  30.204  1.00  0.00    -0.355 OA
HETATM   17  C14 UNK     1      19.787   5.915  30.127  1.00  0.00     0.210 C 
ENDBRANCH  10  16
TORSDOF 2
ENDMDL
MODEL 3
REMARK VINA RESULT:      -6.7      1.933      3.294
REMARK  2 active torsions:
REMARK  status: ('A' for Active; 'I' for Inactive)
REMARK    1  A    between atoms: C9_12  and  O2_2 
REMARK    2  A    between atoms: C3_6  and  C6_9 
ROOT
HETATM    1  O1  UNK     1      18.443   1.531  31.767  1.00  0.00    -0.274 OA
HETATM    2  O3  UNK     1      18.513   2.606  29.768  1.00  0.00    -0.259 OA
HETATM    3  C1  UNK     1      18.314   2.802  33.838  1.00  0.00     0.005 A 
HETATM    4  C2  UNK     1      18.308   4.052  33.051  1.00  0.00    -0.037 A 
HETATM    5  C3  UNK     1      18.403   3.989  31.705  1.00  0.00     0.024 A 
HETATM    6  C4  UNK     1      18.380   1.584  33.168  1.00  0.00     0.099 A 
HETATM    7  C5  UNK     1      18.390   0.357  33.836  1.00  0.00     0.006 A 
HETATM    8  C7  UNK     1      18.267   2.758  35.241  1.00  0.00     0.017 A 
HETATM    9  C8  UNK     1      18.461   2.680  30.992  1.00  0.00     0.295 A 
HETATM   10  C9  UNK     1      18.337   0.337  35.224  1.00  0.00     0.076 A 
HETATM   11  C10 UNK     1      18.176   5.343  33.820  1.00  0.00     0.050 C 
HETATM   12  C11 UNK     1      18.277   1.538  35.927  1.00  0.00     0.038 A 
HETATM   13  C12 UNK     1      18.458  -0.925  33.071  1.00  0.00     0.054 C 
ENDROOT
BRANCH   5  14
HETATM   14  C6  UNK     1      18.473   5.183  30.789  1.00  0.00     0.041 C 
HETATM   15  C13 UNK     1      19.900   5.646  30.592  1.00  0.00     0.010 C 
ENDBRANCH   5  14
BRANCH  10  16
HETATM   16  O2  UNK     1      18.344  -0.838  35.911  1.00  0.00    -0.355 OA
HETATM   17  C14 UNK     1      17.878  -0.806  37.260  1.00  0.00     0.210 C 
ENDBRANCH  10  16
TORSDOF 2
ENDMDL
MODEL 4
REMARK VINA RESULT:      -6.6     23.234     25.462
REMARK  2 active torsions:
REMARK  status: ('A' for Active; 'I' for Inactive)
REMARK    1  A    between atoms: C9_12  and  O2_2 
REMARK    2  A    between atoms: C3_6  and  C6_9 
ROOT
HETATM    1  O1  UNK     1      12.409   8.276  10.261  1.00  0.00    -0.274 OA
HETATM    2  O3  UNK     1      13.609   9.561  11.697  1.00  0.00    -0.259 OA
HETATM    3  C1  UNK     1      13.464   6.406   9.116  1.00  0.00     0.005 A 
HETATM    4  C2  UNK     1      14.730   6.717   9.810  1.00  0.00    -0.037 A 
HETATM    5  C3  UNK     1      14.786   7.780  10.642  1.00  0.00     0.024 A 
HETATM    6  C4  UNK     1      12.346   7.196   9.367  1.00  0.00     0.099 A 
HETATM    7  C5  UNK     1      11.111   6.970   8.752  1.00  0.00     0.006 A 
HETATM    8  C7  UNK     1      13.310   5.355   8.196  1.00  0.00     0.017 A 
HETATM    9  C8  UNK     1      13.581   8.615  10.917  1.00  0.00     0.295 A 
HETATM   10  C9  UNK     1      10.982   5.922   7.851  1.00  0.00     0.076 A 
HETATM   11  C10 UNK     1      15.896   5.796   9.549  1.00  0.00     0.050 C 
HETATM   12  C11 UNK     1      12.082   5.115   7.571  1.00  0.00     0.038 A 
HETATM   13  C12 UNK     1       9.939   7.845   9.058  1.00  0.00     0.054 C 
ENDROOT
BRANCH   5  14
HETATM   14  C6  UNK     1      16.025   8.246  11.362  1.00  0.00     0.041 C 
HETATM   15  C13 UNK     1      16.861   9.158  10.490  1.00  0.00     0.010 C 
ENDBRANCH   5  14
BRANCH  10  16
HETATM   16  O2  UNK     1       9.795   5.670   7.233  1.00  0.00    -0.355 OA
HETATM   17  C14 UNK     1       9.676   6.069   5.867  1.00  0.00     0.210 C 
ENDBRANCH  10  16
TORSDOF 2
ENDMDL
MODEL 5
REMARK VINA RESULT:      -6.5      2.055      3.308
REMARK  2 active torsions:
REMARK  status: ('A' for Active; 'I' for Inactive)
REMARK    1  A    between atoms: C9_12  and  O2_2 
REMARK    2  A    between atoms: C3_6  and  C6_9 
ROOT
HETATM    1  O1  UNK     1      19.726  -1.632  32.810  1.00  0.00    -0.274 OA
HETATM    2  O3  UNK     1      20.767  -2.541  31.009  1.00  0.00    -0.259 OA
HETATM    3  C1  UNK     1      18.800   0.615  32.687  1.00  0.00     0.005 A 
HETATM    4  C2  UNK     1      19.252   0.705  31.282  1.00  0.00    -0.037 A 
HETATM    5  C3  UNK     1      19.928  -0.328  30.736  1.00  0.00     0.024 A 
HETATM    6  C4  UNK     1      19.053  -0.552  33.402  1.00  0.00     0.099 A 
HETATM    7  C5  UNK     1      18.661  -0.719  34.733  1.00  0.00     0.006 A 
HETATM    8  C7  UNK     1      18.132   1.648  33.364  1.00  0.00     0.017 A 
HETATM    9  C8  UNK     1      20.184  -1.581  31.504  1.00  0.00     0.295 A 
HETATM   10  C9  UNK     1      17.995   0.314  35.381  1.00  0.00     0.076 A 
HETATM   11  C10 UNK     1      18.903   1.967  30.534  1.00  0.00     0.050 C 
HETATM   12  C11 UNK     1      17.733   1.498  34.697  1.00  0.00     0.038 A 
HETATM   13  C12 UNK     1      18.951  -1.994  35.457  1.00  0.00     0.054 C 
ENDROOT
BRANCH   5  14
HETATM   14  C6  UNK     1      20.499  -0.343  29.342  1.00  0.00     0.041 C 
HETATM   15  C13 UNK     1      19.438  -0.675  28.314  1.00  0.00     0.010 C 
ENDBRANCH   5  14
BRANCH  10  16
HETATM   16  O2  UNK     1      17.597   0.189  36.677  1.00  0.00    -0.355 OA
HETATM   17  C14 UNK     1      16.849   1.269  37.234  1.00  0.00     0.210 C 
ENDBRANCH  10  16
TORSDOF 2
ENDMDL
MODEL 6
REMARK VINA RESULT:      -6.5      6.460      9.297
REMARK  2 active torsions:
REMARK  status: ('A' for Active; 'I' for Inactive)
REMARK    1  A    between atoms: C9_12  and  O2_2 
REMARK    2  A    between atoms: C3_6  and  C6_9 
ROOT
HETATM    1  O1  UNK     1      16.284   6.559  32.821  1.00  0.00    -0.274 OA
HETATM    2  O3  UNK     1      17.649   4.751  32.673  1.00  0.00    -0.259 OA
HETATM    3  C1  UNK     1      17.136   8.670  33.682  1.00  0.00     0.005 A 
HETATM    4  C2  UNK     1      18.463   8.044  33.856  1.00  0.00    -0.037 A 
HETATM    5  C3  UNK     1      18.626   6.738  33.550  1.00  0.00     0.024 A 
HETATM    6  C4  UNK     1      16.092   7.905  33.169  1.00  0.00     0.099 A 
HETATM    7  C5  UNK     1      14.808   8.420  32.973  1.00  0.00     0.006 A 
HETATM    8  C7  UNK     1      16.848  10.004  34.013  1.00  0.00     0.017 A 
HETATM    9  C8  UNK     1      17.506   5.928  32.988  1.00  0.00     0.295 A 
HETATM   10  C9  UNK     1      14.548   9.744  33.303  1.00  0.00     0.076 A 
HETATM   11  C10 UNK     1      19.575   8.930  34.360  1.00  0.00     0.050 C 
HETATM   12  C11 UNK     1      15.567  10.536  33.825  1.00  0.00     0.038 A 
HETATM   13  C12 UNK     1      13.721   7.559  32.416  1.00  0.00     0.054 C 
ENDROOT
BRANCH   5  14
HETATM   14  C6  UNK     1      19.903   5.962  33.739  1.00  0.00     0.041 C 
HETATM   15  C13 UNK     1      20.879   6.220  32.611  1.00  0.00     0.010 C 
ENDBRANCH   5  14
BRANCH  10  16
HETATM   16  O2  UNK     1      13.309  10.281  33.126  1.00  0.00    -0.355 OA
HETATM   17  C14 UNK     1      13.246  11.632  32.671  1.00  0.00     0.210 C 
ENDBRANCH  10  16
TORSDOF 2
ENDMDL
MODEL 7
REMARK VINA RESULT:      -6.5      1.742      2.968
REMARK  2 active torsions:
REMARK  status: ('A' for Active; 'I' for Inactive)
REMARK    1  A    between atoms: C9_12  and  O2_2 
REMARK    2  A    between atoms: C3_6  and  C6_9 
ROOT
HETATM    1  O1  UNK     1      19.211  -0.655  32.659  1.00  0.00    -0.274 OA
HETATM    2  O3  UNK     1      19.760  -1.120  30.506  1.00  0.00    -0.259 OA
HETATM    3  C1  UNK     1      18.440   1.569  33.274  1.00  0.00     0.005 A 
HETATM    4  C2  UNK     1      18.574   1.987  31.863  1.00  0.00    -0.037 A 
HETATM    5  C3  UNK     1      19.039   1.106  30.952  1.00  0.00     0.024 A 
HETATM    6  C4  UNK     1      18.763   0.261  33.623  1.00  0.00     0.099 A 
HETATM    7  C5  UNK     1      18.665  -0.215  34.933  1.00  0.00     0.006 A 
HETATM    8  C7  UNK     1      18.013   2.419  34.308  1.00  0.00     0.017 A 
HETATM    9  C8  UNK     1      19.370  -0.299  31.330  1.00  0.00     0.295 A 
HETATM   10  C9  UNK     1      18.234   0.642  35.938  1.00  0.00     0.076 A 
HETATM   11  C10 UNK     1      18.157   3.397  31.527  1.00  0.00     0.050 C 
HETATM   12  C11 UNK     1      17.909   1.960  35.625  1.00  0.00     0.038 A 
HETATM   13  C12 UNK     1      19.019  -1.631  35.257  1.00  0.00     0.054 C 
ENDROOT
BRANCH   5  14
HETATM   14  C6  UNK     1      19.284   1.418  29.498  1.00  0.00     0.041 C 
HETATM   15  C13 UNK     1      17.995   1.398  28.704  1.00  0.00     0.010 C 
ENDBRANCH   5  14
BRANCH  10  16
HETATM   16  O2  UNK     1      18.125   0.215  37.226  1.00  0.00    -0.355 OA
HETATM   17  C14 UNK     1      17.587   1.137  38.173  1.00  0.00     0.210 C 
ENDBRANCH  10  16
TORSDOF 2
ENDMDL
MODEL 8
REMARK VINA RESULT:      -6.5      6.464      7.918
REMARK  2 active torsions:
REMARK  status: ('A' for Active; 'I' for Inactive)
REMARK    1  A    between atoms: C9_12  and  O2_2 
REMARK    2  A    between atoms: C3_6  and  C6_9 
ROOT
HETATM    1  O1  UNK     1      16.644   6.707  31.296  1.00  0.00    -0.274 OA
HETATM    2  O3  UNK     1      14.420   7.161  31.326  1.00  0.00    -0.259 OA
HETATM    3  C1  UNK     1      17.991   7.043  33.295  1.00  0.00     0.005 A 
HETATM    4  C2  UNK     1      16.779   7.489  34.015  1.00  0.00    -0.037 A 
HETATM    5  C3  UNK     1      15.603   7.556  33.355  1.00  0.00     0.024 A 
HETATM    6  C4  UNK     1      17.880   6.666  31.959  1.00  0.00     0.099 A 
HETATM    7  C5  UNK     1      18.975   6.234  31.207  1.00  0.00     0.006 A 
HETATM    8  C7  UNK     1      19.269   6.982  33.872  1.00  0.00     0.017 A 
HETATM    9  C8  UNK     1      15.489   7.138  31.928  1.00  0.00     0.295 A 
HETATM   10  C9  UNK     1      20.229   6.176  31.801  1.00  0.00     0.076 A 
HETATM   11  C10 UNK     1      16.941   7.830  35.475  1.00  0.00     0.050 C 
HETATM   12  C11 UNK     1      20.377   6.552  33.133  1.00  0.00     0.038 A 
HETATM   13  C12 UNK     1      18.804   5.836  29.776  1.00  0.00     0.054 C 
ENDROOT
BRANCH   5  14
HETATM   14  C6  UNK     1      14.310   8.052  33.948  1.00  0.00     0.041 C 
HETATM   15  C13 UNK     1      14.198   9.558  33.849  1.00  0.00     0.010 C 
ENDBRANCH   5  14
BRANCH  10  16
HETATM   16  O2  UNK     1      21.319   5.759  31.100  1.00  0.00    -0.355 OA
HETATM   17  C14 UNK     1      22.569   5.747  31.789  1.00  0.00     0.210 C 
ENDBRANCH  10  16
TORSDOF 2
ENDMDL
MODEL 9
REMARK VINA RESULT:      -6.4      6.657      8.819
REMARK  2 active torsions:
REMARK  status: ('A' for Active; 'I' for Inactive)
REMARK    1  A    between atoms: C9_12  and  O2_2 
REMARK    2  A    between atoms: C3_6  and  C6_9 
ROOT
HETATM    1  O1  UNK     1      16.239   9.216  33.308  1.00  0.00    -0.274 OA
HETATM    2  O3  UNK     1      15.707  11.352  33.864  1.00  0.00    -0.259 OA
HETATM    3  C1  UNK     1      18.525   8.419  33.551  1.00  0.00     0.005 A 
HETATM    4  C2  UNK     1      18.915   9.747  34.068  1.00  0.00    -0.037 A 
HETATM    5  C3  UNK     1      17.989  10.727  34.144  1.00  0.00     0.024 A 
HETATM    6  C4  UNK     1      17.199   8.199  33.190  1.00  0.00     0.099 A 
HETATM    7  C5  UNK     1      16.747   6.973  32.694  1.00  0.00     0.006 A 
HETATM    8  C7  UNK     1      19.418   7.347  33.387  1.00  0.00     0.017 A 
HETATM    9  C8  UNK     1      16.567  10.481  33.768  1.00  0.00     0.295 A 
HETATM   10  C9  UNK     1      17.647   5.926  32.546  1.00  0.00     0.076 A 
HETATM   11  C10 UNK     1      20.351   9.916  34.499  1.00  0.00     0.050 C 
HETATM   12  C11 UNK     1      18.984   6.113  32.891  1.00  0.00     0.038 A 
HETATM   13  C12 UNK     1      15.312   6.786  32.324  1.00  0.00     0.054 C 
ENDROOT
BRANCH   5  14
HETATM   14  C6  UNK     1      18.264  12.140  34.589  1.00  0.00     0.041 C 
HETATM   15  C13 UNK     1      18.577  13.039  33.413  1.00  0.00     0.010 C 
ENDBRANCH   5  14
BRANCH  10  16
HETATM   16  O2  UNK     1      17.245   4.717  32.066  1.00  0.00    -0.355 OA
HETATM   17  C14 UNK     1      18.263   3.832  31.599  1.00  0.00     0.210 C 
ENDBRANCH  10  16
TORSDOF 2
ENDMDL
MODEL 10
REMARK VINA RESULT:      -6.2     12.081     14.453
REMARK  2 active torsions:
REMARK  status: ('A' for Active; 'I' for Inactive)
REMARK    1  A    between atoms: C9_12  and  O2_2 
REMARK    2  A    between atoms: C3_6  and  C6_9 
ROOT
HETATM    1  O1  UNK     1      28.109  -5.327  38.318  1.00  0.00    -0.274 OA
HETATM    2  O3  UNK     1      25.848  -5.315  38.520  1.00  0.00    -0.259 OA
HETATM    3  C1  UNK     1      29.342  -7.420  38.462  1.00  0.00     0.005 A 
HETATM    4  C2  UNK     1      28.065  -8.139  38.650  1.00  0.00    -0.037 A 
HETATM    5  C3  UNK     1      26.911  -7.439  38.699  1.00  0.00     0.024 A 
HETATM    6  C4  UNK     1      29.319  -6.037  38.301  1.00  0.00     0.099 A 
HETATM    7  C5  UNK     1      30.480  -5.282  38.118  1.00  0.00     0.006 A 
HETATM    8  C7  UNK     1      30.600  -8.044  38.444  1.00  0.00     0.017 A 
HETATM    9  C8  UNK     1      26.892  -5.959  38.513  1.00  0.00     0.295 A 
HETATM   10  C9  UNK     1      31.713  -5.922  38.098  1.00  0.00     0.076 A 
HETATM   11  C10 UNK     1      28.139  -9.641  38.761  1.00  0.00     0.050 C 
HETATM   12  C11 UNK     1      31.773  -7.304  38.262  1.00  0.00     0.038 A 
HETATM   13  C12 UNK     1      30.404  -3.799  37.946  1.00  0.00     0.054 C 
ENDROOT
BRANCH   5  14
HETATM   14  C6  UNK     1      25.551  -8.038  38.949  1.00  0.00     0.041 C 
HETATM   15  C13 UNK     1      24.955  -8.605  37.678  1.00  0.00     0.010 C 
ENDBRANCH   5  14
BRANCH  10  16
HETATM   16  O2  UNK     1      32.866  -5.220  37.921  1.00  0.00    -0.355 OA
HETATM   17  C14 UNK     1      34.058  -5.973  37.696  1.00  0.00     0.210 C 
ENDBRANCH  10  16
TORSDOF 2
ENDMDL
