MODEL 1
REMARK VINA RESULT:      -8.7      0.000      0.000
REMARK  3 active torsions:
REMARK  status: ('A' for Active; 'I' for Inactive)
REMARK       I    between atoms: C5_12  and  N1_7 
REMARK    1  A    between atoms: C6_13  and  N1_7 
REMARK    2  A    between atoms: C1_8  and  C5_12 
REMARK    3  A    between atoms: C12_19  and  C14_21 
ROOT
HETATM    1  O2  UNK     1      18.753   0.273  33.096  1.00  0.00    -0.275 OA
HETATM    2  O3  UNK     1      19.216  -1.867  33.755  1.00  0.00    -0.260 OA
HETATM    3  C6  UNK     1      18.222   3.500  31.439  1.00  0.00     0.037 A 
HETATM    4  C7  UNK     1      18.270   2.508  32.413  1.00  0.00     0.067 A 
HETATM    5  C8  UNK     1      19.145   0.920  30.773  1.00  0.00     0.013 A 
HETATM    6  C9  UNK     1      18.728   1.235  32.067  1.00  0.00     0.092 A 
HETATM    7  C10 UNK     1      18.632   3.213  30.138  1.00  0.00     0.030 A 
HETATM    8  C11 UNK     1      19.090   1.933  29.807  1.00  0.00     0.017 A 
HETATM    9  C12 UNK     1      19.614  -0.445  30.499  1.00  0.00     0.066 A 
HETATM   10  C13 UNK     1      19.626  -1.340  31.497  1.00  0.00     0.099 A 
HETATM   11  C15 UNK     1      19.191  -1.022  32.867  1.00  0.00     0.289 A 
ENDROOT
BRANCH   3  12
HETATM   12  N1  UNK     1      17.768   4.779  31.763  1.00  0.00    -0.327 N 
HETATM   13  C5  UNK     1      18.525   5.898  32.135  1.00  0.00     0.226 C 
HETATM   14  O1  UNK     1      19.744   5.968  32.251  1.00  0.00    -0.273 OA
HETATM   15  H8  UNK     1      16.759   4.906  31.721  1.00  0.00     0.169 HD
BRANCH  13  16
HETATM   16  C1  UNK     1      17.628   7.127  32.411  1.00  0.00     0.078 C 
HETATM   17  C2  UNK     1      16.302   6.866  33.157  1.00  0.00     0.014 C 
HETATM   18  C4  UNK     1      15.677   7.963  32.268  1.00  0.00     0.002 C 
HETATM   19  C3  UNK     1      16.776   7.644  31.234  1.00  0.00     0.014 C 
ENDBRANCH  13  16
ENDBRANCH   3  12
BRANCH   9  20
HETATM   20  C14 UNK     1      20.069  -0.817  29.117  1.00  0.00     0.418 C 
HETATM   21  F1  UNK     1      19.227  -0.326  28.187  1.00  0.00    -0.166 F 
HETATM   22  F2  UNK     1      20.116  -2.156  28.970  1.00  0.00    -0.166 F 
HETATM   23  F3  UNK     1      21.299  -0.328  28.866  1.00  0.00    -0.166 F 
ENDBRANCH   9  20
TORSDOF 3
ENDMDL
MODEL 2
REMARK VINA RESULT:      -8.5      4.709      8.258
REMARK  3 active torsions:
REMARK  status: ('A' for Active; 'I' for Inactive)
REMARK       I    between atoms: C5_12  and  N1_7 
REMARK    1  A    between atoms: C6_13  and  N1_7 
REMARK    2  A    between atoms: C1_8  and  C5_12 
REMARK    3  A    between atoms: C12_19  and  C14_21 
ROOT
HETATM    1  O2  UNK     1      16.600   7.654  31.884  1.00  0.00    -0.275 OA
HETATM    2  O3  UNK     1      15.313   9.373  32.671  1.00  0.00    -0.260 OA
HETATM    3  C6  UNK     1      19.124   5.132  31.046  1.00  0.00     0.037 A 
HETATM    4  C7  UNK     1      17.939   5.860  31.059  1.00  0.00     0.067 A 
HETATM    5  C8  UNK     1      18.859   7.355  32.761  1.00  0.00     0.013 A 
HETATM    6  C9  UNK     1      17.823   6.957  31.915  1.00  0.00     0.092 A 
HETATM    7  C10 UNK     1      20.176   5.506  31.880  1.00  0.00     0.030 A 
HETATM    8  C11 UNK     1      20.046   6.609  32.732  1.00  0.00     0.017 A 
HETATM    9  C12 UNK     1      18.651   8.522  33.627  1.00  0.00     0.066 A 
HETATM   10  C13 UNK     1      17.477   9.166  33.577  1.00  0.00     0.099 A 
HETATM   11  C15 UNK     1      16.374   8.760  32.689  1.00  0.00     0.289 A 
ENDROOT
BRANCH   3  12
HETATM   12  N1  UNK     1      19.261   4.033  30.198  1.00  0.00    -0.327 N 
HETATM   13  C5  UNK     1      18.587   2.805  30.256  1.00  0.00     0.226 C 
HETATM   14  O1  UNK     1      17.741   2.458  31.073  1.00  0.00    -0.273 OA
HETATM   15  H8  UNK     1      19.938   4.144  29.446  1.00  0.00     0.169 HD
BRANCH  13  16
HETATM   16  C1  UNK     1      19.036   1.854  29.123  1.00  0.00     0.078 C 
HETATM   17  C2  UNK     1      17.940   0.984  28.471  1.00  0.00     0.014 C 
HETATM   18  C4  UNK     1      19.001  -0.132  28.361  1.00  0.00     0.002 C 
HETATM   19  C3  UNK     1      19.719   0.538  29.550  1.00  0.00     0.014 C 
ENDBRANCH  13  16
ENDBRANCH   3  12
BRANCH   9  20
HETATM   20  C14 UNK     1      19.746   8.976  34.549  1.00  0.00     0.418 C 
HETATM   21  F1  UNK     1      19.770   8.228  35.669  1.00  0.00    -0.166 F 
HETATM   22  F2  UNK     1      19.568  10.262  34.911  1.00  0.00    -0.166 F 
HETATM   23  F3  UNK     1      20.951   8.875  33.955  1.00  0.00    -0.166 F 
ENDBRANCH   9  20
TORSDOF 3
ENDMDL
MODEL 3
REMARK VINA RESULT:      -8.4      8.326     10.966
REMARK  3 active torsions:
REMARK  status: ('A' for Active; 'I' for Inactive)
REMARK       I    between atoms: C5_12  and  N1_7 
REMARK    1  A    between atoms: C6_13  and  N1_7 
REMARK    2  A    between atoms: C1_8  and  C5_12 
REMARK    3  A    between atoms: C12_19  and  C14_21 
ROOT
HETATM    1  O2  UNK     1      18.916  -9.229  38.283  1.00  0.00    -0.275 OA
HETATM    2  O3  UNK     1      19.032 -11.344  39.144  1.00  0.00    -0.260 OA
HETATM    3  C6  UNK     1      19.207  -6.048  36.485  1.00  0.00     0.037 A 
HETATM    4  C7  UNK     1      18.792  -7.019  37.389  1.00  0.00     0.067 A 
HETATM    5  C8  UNK     1      20.371  -8.615  36.421  1.00  0.00     0.013 A 
HETATM    6  C9  UNK     1      19.377  -8.286  37.344  1.00  0.00     0.092 A 
HETATM    7  C10 UNK     1      20.198  -6.347  35.552  1.00  0.00     0.030 A 
HETATM    8  C11 UNK     1      20.777  -7.620  35.519  1.00  0.00     0.017 A 
HETATM    9  C12 UNK     1      20.933  -9.972  36.445  1.00  0.00     0.066 A 
HETATM   10  C13 UNK     1      20.474 -10.848  37.350  1.00  0.00     0.099 A 
HETATM   11  C15 UNK     1      19.427 -10.516  38.330  1.00  0.00     0.289 A 
ENDROOT
BRANCH   3  12
HETATM   12  N1  UNK     1      18.635  -4.775  36.514  1.00  0.00    -0.327 N 
HETATM   13  C5  UNK     1      19.251  -3.556  36.831  1.00  0.00     0.226 C 
HETATM   14  O1  UNK     1      20.421  -3.373  37.151  1.00  0.00    -0.273 OA
HETATM   15  H8  UNK     1      17.647  -4.736  36.273  1.00  0.00     0.169 HD
BRANCH  13  16
HETATM   16  C1  UNK     1      18.257  -2.375  36.742  1.00  0.00     0.078 C 
HETATM   17  C2  UNK     1      18.676  -1.178  35.863  1.00  0.00     0.014 C 
HETATM   18  C4  UNK     1      17.989  -0.271  36.906  1.00  0.00     0.002 C 
HETATM   19  C3  UNK     1      18.234  -1.396  37.934  1.00  0.00     0.014 C 
ENDBRANCH  13  16
ENDBRANCH   3  12
BRANCH   9  20
HETATM   20  C14 UNK     1      22.004 -10.357  35.466  1.00  0.00     0.418 C 
HETATM   21  F1  UNK     1      22.126 -11.696  35.391  1.00  0.00    -0.166 F 
HETATM   22  F2  UNK     1      23.198  -9.850  35.834  1.00  0.00    -0.166 F 
HETATM   23  F3  UNK     1      21.720  -9.894  34.233  1.00  0.00    -0.166 F 
ENDBRANCH   9  20
TORSDOF 3
ENDMDL
MODEL 4
REMARK VINA RESULT:      -8.4      4.097      6.566
REMARK  3 active torsions:
REMARK  status: ('A' for Active; 'I' for Inactive)
REMARK       I    between atoms: C5_12  and  N1_7 
REMARK    1  A    between atoms: C6_13  and  N1_7 
REMARK    2  A    between atoms: C1_8  and  C5_12 
REMARK    3  A    between atoms: C12_19  and  C14_21 
ROOT
HETATM    1  O2  UNK     1      18.184   1.727  30.465  1.00  0.00    -0.275 OA
HETATM    2  O3  UNK     1      18.343   1.979  28.198  1.00  0.00    -0.260 OA
HETATM    3  C6  UNK     1      18.049   1.980  34.120  1.00  0.00     0.037 A 
HETATM    4  C7  UNK     1      18.017   1.458  32.831  1.00  0.00     0.067 A 
HETATM    5  C8  UNK     1      18.473   3.676  31.908  1.00  0.00     0.013 A 
HETATM    6  C9  UNK     1      18.228   2.312  31.746  1.00  0.00     0.092 A 
HETATM    7  C10 UNK     1      18.292   3.339  34.312  1.00  0.00     0.030 A 
HETATM    8  C11 UNK     1      18.502   4.181  33.215  1.00  0.00     0.017 A 
HETATM    9  C12 UNK     1      18.685   4.500  30.710  1.00  0.00     0.066 A 
HETATM   10  C13 UNK     1      18.636   3.916  29.504  1.00  0.00     0.099 A 
HETATM   11  C15 UNK     1      18.380   2.478  29.317  1.00  0.00     0.289 A 
ENDROOT
BRANCH   3  12
HETATM   12  N1  UNK     1      17.842   1.145  35.218  1.00  0.00    -0.327 N 
HETATM   13  C5  UNK     1      16.661   0.496  35.601  1.00  0.00     0.226 C 
HETATM   14  O1  UNK     1      15.570   0.540  35.041  1.00  0.00    -0.273 OA
HETATM   15  H8  UNK     1      18.656   0.993  35.810  1.00  0.00     0.169 HD
BRANCH  13  16
HETATM   16  C1  UNK     1      16.859  -0.339  36.888  1.00  0.00     0.078 C 
HETATM   17  C2  UNK     1      17.857   0.214  37.928  1.00  0.00     0.014 C 
HETATM   18  C4  UNK     1      18.256  -1.251  38.208  1.00  0.00     0.002 C 
HETATM   19  C3  UNK     1      17.775  -1.575  36.778  1.00  0.00     0.014 C 
ENDBRANCH  13  16
ENDBRANCH   3  12
BRANCH   9  20
HETATM   20  C14 UNK     1      18.951   5.971  30.850  1.00  0.00     0.418 C 
HETATM   21  F1  UNK     1      17.904   6.594  31.424  1.00  0.00    -0.166 F 
HETATM   22  F2  UNK     1      19.163   6.538  29.646  1.00  0.00    -0.166 F 
HETATM   23  F3  UNK     1      20.038   6.195  31.612  1.00  0.00    -0.166 F 
ENDBRANCH   9  20
TORSDOF 3
ENDMDL
MODEL 5
REMARK VINA RESULT:      -8.4      4.748      8.307
REMARK  3 active torsions:
REMARK  status: ('A' for Active; 'I' for Inactive)
REMARK       I    between atoms: C5_12  and  N1_7 
REMARK    1  A    between atoms: C6_13  and  N1_7 
REMARK    2  A    between atoms: C1_8  and  C5_12 
REMARK    3  A    between atoms: C12_19  and  C14_21 
ROOT
HETATM    1  O2  UNK     1      20.360   7.779  33.432  1.00  0.00    -0.275 OA
HETATM    2  O3  UNK     1      20.961   9.567  34.725  1.00  0.00    -0.260 OA
HETATM    3  C6  UNK     1      18.771   5.103  31.495  1.00  0.00     0.037 A 
HETATM    4  C7  UNK     1      19.738   5.911  32.083  1.00  0.00     0.067 A 
HETATM    5  C8  UNK     1      17.991   7.303  33.078  1.00  0.00     0.013 A 
HETATM    6  C9  UNK     1      19.336   6.997  32.863  1.00  0.00     0.092 A 
HETATM    7  C10 UNK     1      17.420   5.384  31.692  1.00  0.00     0.030 A 
HETATM    8  C11 UNK     1      17.032   6.475  32.478  1.00  0.00     0.017 A 
HETATM    9  C12 UNK     1      17.659   8.464  33.914  1.00  0.00     0.066 A 
HETATM   10  C13 UNK     1      18.654   9.190  34.442  1.00  0.00     0.099 A 
HETATM   11  C15 UNK     1      20.077   8.880  34.225  1.00  0.00     0.289 A 
ENDROOT
BRANCH   3  12
HETATM   12  N1  UNK     1      19.151   4.013  30.712  1.00  0.00    -0.327 N 
HETATM   13  C5  UNK     1      18.433   2.836  30.460  1.00  0.00     0.226 C 
HETATM   14  O1  UNK     1      17.323   2.534  30.886  1.00  0.00    -0.273 OA
HETATM   15  H8  UNK     1      20.066   4.090  30.273  1.00  0.00     0.169 HD
BRANCH  13  16
HETATM   16  C1  UNK     1      19.217   1.876  29.535  1.00  0.00     0.078 C 
HETATM   17  C2  UNK     1      18.388   1.037  28.540  1.00  0.00     0.014 C 
HETATM   18  C4  UNK     1      19.396  -0.106  28.784  1.00  0.00     0.002 C 
HETATM   19  C3  UNK     1      19.684   0.542  30.154  1.00  0.00     0.014 C 
ENDBRANCH  13  16
ENDBRANCH   3  12
BRANCH   9  20
HETATM   20  C14 UNK     1      16.221   8.819  34.165  1.00  0.00     0.418 C 
HETATM   21  F1  UNK     1      16.125   9.830  35.049  1.00  0.00    -0.166 F 
HETATM   22  F2  UNK     1      15.545   7.765  34.663  1.00  0.00    -0.166 F 
HETATM   23  F3  UNK     1      15.613   9.202  33.026  1.00  0.00    -0.166 F 
ENDBRANCH   9  20
TORSDOF 3
ENDMDL
MODEL 6
REMARK VINA RESULT:      -8.2      3.267      7.207
REMARK  3 active torsions:
REMARK  status: ('A' for Active; 'I' for Inactive)
REMARK       I    between atoms: C5_12  and  N1_7 
REMARK    1  A    between atoms: C6_13  and  N1_7 
REMARK    2  A    between atoms: C1_8  and  C5_12 
REMARK    3  A    between atoms: C12_19  and  C14_21 
ROOT
HETATM    1  O2  UNK     1      18.077   2.599  33.588  1.00  0.00    -0.275 OA
HETATM    2  O3  UNK     1      17.667   4.774  33.015  1.00  0.00    -0.260 OA
HETATM    3  C6  UNK     1      18.833  -0.978  33.851  1.00  0.00     0.037 A 
HETATM    4  C7  UNK     1      18.503   0.329  34.191  1.00  0.00     0.067 A 
HETATM    5  C8  UNK     1      18.646   0.990  31.841  1.00  0.00     0.013 A 
HETATM    6  C9  UNK     1      18.415   1.292  33.183  1.00  0.00     0.092 A 
HETATM    7  C10 UNK     1      19.069  -1.310  32.519  1.00  0.00     0.030 A 
HETATM    8  C11 UNK     1      18.976  -0.334  31.520  1.00  0.00     0.017 A 
HETATM    9  C12 UNK     1      18.530   2.065  30.847  1.00  0.00     0.066 A 
HETATM   10  C13 UNK     1      18.208   3.299  31.261  1.00  0.00     0.099 A 
HETATM   11  C15 UNK     1      17.961   3.634  32.673  1.00  0.00     0.289 A 
ENDROOT
BRANCH   3  12
HETATM   12  N1  UNK     1      18.926  -1.957  34.842  1.00  0.00    -0.327 N 
HETATM   13  C5  UNK     1      20.081  -2.463  35.453  1.00  0.00     0.226 C 
HETATM   14  O1  UNK     1      21.244  -2.142  35.230  1.00  0.00    -0.273 OA
HETATM   15  H8  UNK     1      18.039  -2.346  35.154  1.00  0.00     0.169 HD
BRANCH  13  16
HETATM   16  C1  UNK     1      19.742  -3.543  36.507  1.00  0.00     0.078 C 
HETATM   17  C2  UNK     1      20.857  -3.910  37.509  1.00  0.00     0.014 C 
HETATM   18  C4  UNK     1      20.340  -5.363  37.432  1.00  0.00     0.002 C 
HETATM   19  C3  UNK     1      19.786  -5.011  36.036  1.00  0.00     0.014 C 
ENDBRANCH  13  16
ENDBRANCH   3  12
BRANCH   9  20
HETATM   20  C14 UNK     1      18.772   1.772  29.395  1.00  0.00     0.418 C 
HETATM   21  F1  UNK     1      18.738   2.904  28.665  1.00  0.00    -0.166 F 
HETATM   22  F2  UNK     1      17.832   0.937  28.910  1.00  0.00    -0.166 F 
HETATM   23  F3  UNK     1      19.975   1.194  29.212  1.00  0.00    -0.166 F 
ENDBRANCH   9  20
TORSDOF 3
ENDMDL
MODEL 7
REMARK VINA RESULT:      -8.2      8.213     10.903
REMARK  3 active torsions:
REMARK  status: ('A' for Active; 'I' for Inactive)
REMARK       I    between atoms: C5_12  and  N1_7 
REMARK    1  A    between atoms: C6_13  and  N1_7 
REMARK    2  A    between atoms: C1_8  and  C5_12 
REMARK    3  A    between atoms: C12_19  and  C14_21 
ROOT
HETATM    1  O2  UNK     1      21.216  -8.426  34.759  1.00  0.00    -0.275 OA
HETATM    2  O3  UNK     1      22.074 -10.470  34.198  1.00  0.00    -0.260 OA
HETATM    3  C6  UNK     1      19.620  -5.461  36.206  1.00  0.00     0.037 A 
HETATM    4  C7  UNK     1      20.322  -6.291  35.339  1.00  0.00     0.067 A 
HETATM    5  C8  UNK     1      19.989  -8.180  36.856  1.00  0.00     0.013 A 
HETATM    6  C9  UNK     1      20.497  -7.635  35.676  1.00  0.00     0.092 A 
HETATM    7  C10 UNK     1      19.101  -5.977  37.392  1.00  0.00     0.030 A 
HETATM    8  C11 UNK     1      19.283  -7.326  37.716  1.00  0.00     0.017 A 
HETATM    9  C12 UNK     1      20.219  -9.605  37.129  1.00  0.00     0.066 A 
HETATM   10  C13 UNK     1      20.907 -10.333  36.239  1.00  0.00     0.099 A 
HETATM   11  C15 UNK     1      21.449  -9.773  34.989  1.00  0.00     0.289 A 
ENDROOT
BRANCH   3  12
HETATM   12  N1  UNK     1      19.433  -4.115  35.890  1.00  0.00    -0.327 N 
HETATM   13  C5  UNK     1      19.885  -2.989  36.592  1.00  0.00     0.226 C 
HETATM   14  O1  UNK     1      20.535  -2.971  37.632  1.00  0.00    -0.273 OA
HETATM   15  H8  UNK     1      18.901  -3.937  35.040  1.00  0.00     0.169 HD
BRANCH  13  16
HETATM   16  C1  UNK     1      19.460  -1.675  35.897  1.00  0.00     0.078 C 
HETATM   17  C2  UNK     1      17.955  -1.334  35.917  1.00  0.00     0.014 C 
HETATM   18  C4  UNK     1      18.147  -0.757  34.498  1.00  0.00     0.002 C 
HETATM   19  C3  UNK     1      19.355  -1.705  34.358  1.00  0.00     0.014 C 
ENDBRANCH  13  16
ENDBRANCH   3  12
BRANCH   9  20
HETATM   20  C14 UNK     1      19.685 -10.221  38.390  1.00  0.00     0.418 C 
HETATM   21  F1  UNK     1      19.720 -11.566  38.318  1.00  0.00    -0.166 F 
HETATM   22  F2  UNK     1      18.407  -9.850  38.603  1.00  0.00    -0.166 F 
HETATM   23  F3  UNK     1      20.411  -9.842  39.458  1.00  0.00    -0.166 F 
ENDBRANCH   9  20
TORSDOF 3
ENDMDL
MODEL 8
REMARK VINA RESULT:      -8.1      3.947      7.489
REMARK  3 active torsions:
REMARK  status: ('A' for Active; 'I' for Inactive)
REMARK       I    between atoms: C5_12  and  N1_7 
REMARK    1  A    between atoms: C6_13  and  N1_7 
REMARK    2  A    between atoms: C1_8  and  C5_12 
REMARK    3  A    between atoms: C12_19  and  C14_21 
ROOT
HETATM    1  O2  UNK     1      20.090  -1.142  30.321  1.00  0.00    -0.275 OA
HETATM    2  O3  UNK     1      20.570  -0.657  28.139  1.00  0.00    -0.260 OA
HETATM    3  C6  UNK     1      19.076  -1.300  33.840  1.00  0.00     0.037 A 
HETATM    4  C7  UNK     1      19.593  -1.653  32.599  1.00  0.00     0.067 A 
HETATM    5  C8  UNK     1      19.009   0.549  31.712  1.00  0.00     0.013 A 
HETATM    6  C9  UNK     1      19.552  -0.727  31.555  1.00  0.00     0.092 A 
HETATM    7  C10 UNK     1      18.527  -0.032  34.027  1.00  0.00     0.030 A 
HETATM    8  C11 UNK     1      18.493   0.886  32.971  1.00  0.00     0.017 A 
HETATM    9  C12 UNK     1      19.008   1.460  30.560  1.00  0.00     0.066 A 
HETATM   10  C13 UNK     1      19.526   1.037  29.398  1.00  0.00     0.099 A 
HETATM   11  C15 UNK     1      20.103  -0.305  29.217  1.00  0.00     0.289 A 
ENDROOT
BRANCH   3  12
HETATM   12  N1  UNK     1      19.108  -2.210  34.898  1.00  0.00    -0.327 N 
HETATM   13  C5  UNK     1      20.210  -2.604  35.668  1.00  0.00     0.226 C 
HETATM   14  O1  UNK     1      21.371  -2.223  35.557  1.00  0.00    -0.273 OA
HETATM   15  H8  UNK     1      18.214  -2.636  35.132  1.00  0.00     0.169 HD
BRANCH  13  16
HETATM   16  C1  UNK     1      19.813  -3.639  36.745  1.00  0.00     0.078 C 
HETATM   17  C2  UNK     1      20.959  -4.250  37.579  1.00  0.00     0.014 C 
HETATM   18  C4  UNK     1      20.166  -5.574  37.556  1.00  0.00     0.002 C 
HETATM   19  C3  UNK     1      19.509  -5.070  36.255  1.00  0.00     0.014 C 
ENDBRANCH  13  16
ENDBRANCH   3  12
BRANCH   9  20
HETATM   20  C14 UNK     1      18.431   2.839  30.696  1.00  0.00     0.418 C 
HETATM   21  F1  UNK     1      18.976   3.678  29.794  1.00  0.00    -0.166 F 
HETATM   22  F2  UNK     1      18.667   3.340  31.925  1.00  0.00    -0.166 F 
HETATM   23  F3  UNK     1      17.098   2.827  30.502  1.00  0.00    -0.166 F 
ENDBRANCH   9  20
TORSDOF 3
ENDMDL
MODEL 9
REMARK VINA RESULT:      -8.1      7.787     10.363
REMARK  3 active torsions:
REMARK  status: ('A' for Active; 'I' for Inactive)
REMARK       I    between atoms: C5_12  and  N1_7 
REMARK    1  A    between atoms: C6_13  and  N1_7 
REMARK    2  A    between atoms: C1_8  and  C5_12 
REMARK    3  A    between atoms: C12_19  and  C14_21 
ROOT
HETATM    1  O2  UNK     1      22.527  -6.771  38.335  1.00  0.00    -0.275 OA
HETATM    2  O3  UNK     1      24.343  -7.948  39.073  1.00  0.00    -0.260 OA
HETATM    3  C6  UNK     1      19.541  -5.387  36.720  1.00  0.00     0.037 A 
HETATM    4  C7  UNK     1      20.633  -5.537  37.568  1.00  0.00     0.067 A 
HETATM    5  C8  UNK     1      21.184  -7.668  36.504  1.00  0.00     0.013 A 
HETATM    6  C9  UNK     1      21.436  -6.673  37.449  1.00  0.00     0.092 A 
HETATM    7  C10 UNK     1      19.265  -6.364  35.766  1.00  0.00     0.030 A 
HETATM    8  C11 UNK     1      20.079  -7.497  35.658  1.00  0.00     0.017 A 
HETATM    9  C12 UNK     1      22.082  -8.830  36.448  1.00  0.00     0.066 A 
HETATM   10  C13 UNK     1      23.111  -8.896  37.303  1.00  0.00     0.099 A 
HETATM   11  C15 UNK     1      23.391  -7.854  38.306  1.00  0.00     0.289 A 
ENDROOT
BRANCH   3  12
HETATM   12  N1  UNK     1      18.726  -4.259  36.822  1.00  0.00    -0.327 N 
HETATM   13  C5  UNK     1      19.060  -2.923  36.563  1.00  0.00     0.226 C 
HETATM   14  O1  UNK     1      20.146  -2.484  36.198  1.00  0.00    -0.273 OA
HETATM   15  H8  UNK     1      17.770  -4.439  37.122  1.00  0.00     0.169 HD
BRANCH  13  16
HETATM   16  C1  UNK     1      17.859  -1.978  36.800  1.00  0.00     0.078 C 
HETATM   17  C2  UNK     1      17.724  -0.774  35.845  1.00  0.00     0.014 C 
HETATM   18  C4  UNK     1      17.212   0.032  37.058  1.00  0.00     0.002 C 
HETATM   19  C3  UNK     1      17.995  -0.956  37.948  1.00  0.00     0.014 C 
ENDBRANCH  13  16
ENDBRANCH   3  12
BRANCH   9  20
HETATM   20  C14 UNK     1      21.838  -9.917  35.442  1.00  0.00     0.418 C 
HETATM   21  F1  UNK     1      22.885 -10.762  35.386  1.00  0.00    -0.166 F 
HETATM   22  F2  UNK     1      21.654  -9.401  34.210  1.00  0.00    -0.166 F 
HETATM   23  F3  UNK     1      20.742 -10.632  35.760  1.00  0.00    -0.166 F 
ENDBRANCH   9  20
TORSDOF 3
ENDMDL
MODEL 10
REMARK VINA RESULT:      -8.1      8.073     10.477
REMARK  3 active torsions:
REMARK  status: ('A' for Active; 'I' for Inactive)
REMARK       I    between atoms: C5_12  and  N1_7 
REMARK    1  A    between atoms: C6_13  and  N1_7 
REMARK    2  A    between atoms: C1_8  and  C5_12 
REMARK    3  A    between atoms: C12_19  and  C14_21 
ROOT
HETATM    1  O2  UNK     1      18.879  -7.889  37.525  1.00  0.00    -0.275 OA
HETATM    2  O3  UNK     1      18.632 -10.055  38.216  1.00  0.00    -0.260 OA
HETATM    3  C6  UNK     1      19.848  -4.437  36.761  1.00  0.00     0.037 A 
HETATM    4  C7  UNK     1      19.132  -5.629  36.802  1.00  0.00     0.067 A 
HETATM    5  C8  UNK     1      20.863  -6.637  38.204  1.00  0.00     0.013 A 
HETATM    6  C9  UNK     1      19.649  -6.709  37.520  1.00  0.00     0.092 A 
HETATM    7  C10 UNK     1      21.064  -4.336  37.434  1.00  0.00     0.030 A 
HETATM    8  C11 UNK     1      21.569  -5.427  38.151  1.00  0.00     0.017 A 
HETATM    9  C12 UNK     1      21.331  -7.822  38.935  1.00  0.00     0.066 A 
HETATM   10  C13 UNK     1      20.578  -8.931  38.921  1.00  0.00     0.099 A 
HETATM   11  C15 UNK     1      19.294  -9.023  38.206  1.00  0.00     0.289 A 
ENDROOT
BRANCH   3  12
HETATM   12  N1  UNK     1      19.350  -3.345  36.050  1.00  0.00    -0.327 N 
HETATM   13  C5  UNK     1      18.803  -2.159  36.557  1.00  0.00     0.226 C 
HETATM   14  O1  UNK     1      18.652  -1.851  37.736  1.00  0.00    -0.273 OA
HETATM   15  H8  UNK     1      19.393  -3.428  35.037  1.00  0.00     0.169 HD
BRANCH  13  16
HETATM   16  C1  UNK     1      18.367  -1.201  35.424  1.00  0.00     0.078 C 
HETATM   17  C2  UNK     1      18.598   0.307  35.661  1.00  0.00     0.014 C 
HETATM   18  C4  UNK     1      17.273   0.548  34.908  1.00  0.00     0.002 C 
HETATM   19  C3  UNK     1      16.862  -0.878  35.327  1.00  0.00     0.014 C 
ENDBRANCH  13  16
ENDBRANCH   3  12
BRANCH   9  20
HETATM   20  C14 UNK     1      22.633  -7.777  39.680  1.00  0.00     0.418 C 
HETATM   21  F1  UNK     1      22.741  -6.636  40.387  1.00  0.00    -0.166 F 
HETATM   22  F2  UNK     1      23.677  -7.839  38.829  1.00  0.00    -0.166 F 
HETATM   23  F3  UNK     1      22.735  -8.811  40.538  1.00  0.00    -0.166 F 
ENDBRANCH   9  20
TORSDOF 3
ENDMDL
