MODEL 1
REMARK VINA RESULT:      -8.9      0.000      0.000
REMARK  9 active torsions:
REMARK  status: ('A' for Active; 'I' for Inactive)
REMARK    1  A    between atoms: C12_15  and  O1_1 
REMARK    2  A    between atoms: C14_17  and  O1_1 
REMARK    3  A    between atoms: C1_4  and  C2_5 
REMARK    4  A    between atoms: C1_4  and  C5_8 
REMARK    5  A    between atoms: C2_5  and  C7_10 
REMARK    6  A    between atoms: C3_6  and  C4_7 
REMARK    7  A    between atoms: C3_6  and  C6_9 
REMARK    8  A    between atoms: C6_9  and  C9_12 
REMARK    9  A    between atoms: C10_13  and  C12_15 
ROOT
HETATM    1  C7  UNK     1      19.073   0.725  29.383  1.00  0.00    -0.085 C 
HETATM    2  C10 UNK     1      19.830   0.440  30.460  1.00  0.00     0.002 C 
HETATM    3  C11 UNK     1      19.116  -0.162  28.166  1.00  0.00     0.043 C 
ENDROOT
BRANCH   2   4
HETATM    4  C12 UNK     1      20.768  -0.713  30.625  1.00  0.00     0.203 C 
BRANCH   4   5
HETATM    5  O1  UNK     1      20.047  -1.808  31.175  1.00  0.00    -0.347 OA
BRANCH   5   6
HETATM    6  C14 UNK     1      19.609  -1.672  32.466  1.00  0.00     0.071 A 
HETATM    7  C19 UNK     1      18.419  -1.005  32.723  1.00  0.00     0.075 A 
HETATM    8  C18 UNK     1      17.993  -0.880  34.044  1.00  0.00     0.092 A 
HETATM    9  C15 UNK     1      18.729  -1.404  35.103  1.00  0.00    -0.002 A 
HETATM   10  O2  UNK     1      16.782  -0.199  34.279  1.00  0.00    -0.275 OA
HETATM   11  C21 UNK     1      19.924  -2.072  34.829  1.00  0.00     0.017 A 
HETATM   12  C22 UNK     1      18.227  -1.237  36.456  1.00  0.00     0.020 A 
HETATM   13  C20 UNK     1      20.363  -2.207  33.509  1.00  0.00     0.038 A 
HETATM   14  C23 UNK     1      17.078  -0.591  36.671  1.00  0.00     0.083 A 
HETATM   15  C24 UNK     1      16.280  -0.027  35.565  1.00  0.00     0.288 A 
HETATM   16  O3  UNK     1      15.227   0.563  35.779  1.00  0.00    -0.260 OA
ENDBRANCH   5   6
ENDBRANCH   4   5
ENDBRANCH   2   4
BRANCH   1  17
HETATM   17  C2  UNK     1      18.121   1.898  29.290  1.00  0.00     0.037 C 
BRANCH  17  18
HETATM   18  C1  UNK     1      18.771   3.204  29.762  1.00  0.00     0.031 C 
BRANCH  18  19
HETATM   19  C5  UNK     1      18.329   3.561  31.155  1.00  0.00    -0.024 C 
HETATM   20  C4  UNK     1      18.628   4.657  31.879  1.00  0.00    -0.087 C 
HETATM   21  C8  UNK     1      19.520   5.721  31.287  1.00  0.00     0.043 C 
BRANCH  20  22
HETATM   22  C3  UNK     1      18.179   4.912  33.303  1.00  0.00     0.037 C 
BRANCH  22  23
HETATM   23  C6  UNK     1      17.946   6.393  33.632  1.00  0.00     0.031 C 
BRANCH  23  24
HETATM   24  C9  UNK     1      16.489   6.764  33.651  1.00  0.00    -0.024 C 
HETATM   25  C13 UNK     1      15.773   7.381  32.691  1.00  0.00    -0.091 C 
HETATM   26  C16 UNK     1      14.313   7.723  32.777  1.00  0.00     0.042 C 
HETATM   27  C17 UNK     1      16.429   7.797  31.401  1.00  0.00     0.042 C 
ENDBRANCH  23  24
ENDBRANCH  22  23
ENDBRANCH  20  22
ENDBRANCH  18  19
ENDBRANCH  17  18
ENDBRANCH   1  17
TORSDOF 9
ENDMDL
MODEL 2
REMARK VINA RESULT:      -8.9      2.639      6.733
REMARK  9 active torsions:
REMARK  status: ('A' for Active; 'I' for Inactive)
REMARK    1  A    between atoms: C12_15  and  O1_1 
REMARK    2  A    between atoms: C14_17  and  O1_1 
REMARK    3  A    between atoms: C1_4  and  C2_5 
REMARK    4  A    between atoms: C1_4  and  C5_8 
REMARK    5  A    between atoms: C2_5  and  C7_10 
REMARK    6  A    between atoms: C3_6  and  C4_7 
REMARK    7  A    between atoms: C3_6  and  C6_9 
REMARK    8  A    between atoms: C6_9  and  C9_12 
REMARK    9  A    between atoms: C10_13  and  C12_15 
ROOT
HETATM    1  C7  UNK     1      19.419   0.669  29.324  1.00  0.00    -0.085 C 
HETATM    2  C10 UNK     1      19.280   1.651  30.236  1.00  0.00     0.002 C 
HETATM    3  C11 UNK     1      18.412   0.515  28.214  1.00  0.00     0.043 C 
ENDROOT
BRANCH   2   4
HETATM    4  C12 UNK     1      18.194   2.677  30.301  1.00  0.00     0.203 C 
BRANCH   4   5
HETATM    5  O1  UNK     1      18.720   3.922  29.860  1.00  0.00    -0.347 OA
BRANCH   5   6
HETATM    6  C14 UNK     1      19.025   4.841  30.830  1.00  0.00     0.071 A 
HETATM    7  C19 UNK     1      18.061   5.204  31.761  1.00  0.00     0.075 A 
HETATM    8  C18 UNK     1      18.394   6.140  32.739  1.00  0.00     0.092 A 
HETATM    9  C15 UNK     1      19.661   6.713  32.802  1.00  0.00    -0.002 A 
HETATM   10  O2  UNK     1      17.399   6.493  33.673  1.00  0.00    -0.275 OA
HETATM   11  C21 UNK     1      20.620   6.337  31.859  1.00  0.00     0.017 A 
HETATM   12  C22 UNK     1      19.940   7.682  33.848  1.00  0.00     0.020 A 
HETATM   13  C20 UNK     1      20.300   5.400  30.873  1.00  0.00     0.038 A 
HETATM   14  C23 UNK     1      18.993   8.011  34.730  1.00  0.00     0.083 A 
HETATM   15  C24 UNK     1      17.643   7.417  34.683  1.00  0.00     0.288 A 
HETATM   16  O3  UNK     1      16.784   7.729  35.500  1.00  0.00    -0.260 OA
ENDBRANCH   5   6
ENDBRANCH   4   5
ENDBRANCH   2   4
BRANCH   1  17
HETATM   17  C2  UNK     1      20.560  -0.324  29.301  1.00  0.00     0.037 C 
BRANCH  17  18
HETATM   18  C1  UNK     1      20.244  -1.582  30.118  1.00  0.00     0.031 C 
BRANCH  18  19
HETATM   19  C5  UNK     1      19.563  -1.235  31.414  1.00  0.00    -0.024 C 
HETATM   20  C4  UNK     1      19.834  -1.685  32.654  1.00  0.00    -0.087 C 
HETATM   21  C8  UNK     1      20.957  -2.672  32.861  1.00  0.00     0.043 C 
BRANCH  20  22
HETATM   22  C3  UNK     1      19.059  -1.320  33.904  1.00  0.00     0.037 C 
BRANCH  22  23
HETATM   23  C6  UNK     1      18.262  -0.013  33.789  1.00  0.00     0.031 C 
BRANCH  23  24
HETATM   24  C9  UNK     1      17.441   0.279  35.015  1.00  0.00    -0.024 C 
HETATM   25  C13 UNK     1      17.711   1.144  36.011  1.00  0.00    -0.091 C 
HETATM   26  C16 UNK     1      16.843   1.387  37.212  1.00  0.00     0.042 C 
HETATM   27  C17 UNK     1      18.972   1.966  35.986  1.00  0.00     0.042 C 
ENDBRANCH  23  24
ENDBRANCH  22  23
ENDBRANCH  20  22
ENDBRANCH  18  19
ENDBRANCH  17  18
ENDBRANCH   1  17
TORSDOF 9
ENDMDL
MODEL 3
REMARK VINA RESULT:      -8.8      1.464      1.862
REMARK  9 active torsions:
REMARK  status: ('A' for Active; 'I' for Inactive)
REMARK    1  A    between atoms: C12_15  and  O1_1 
REMARK    2  A    between atoms: C14_17  and  O1_1 
REMARK    3  A    between atoms: C1_4  and  C2_5 
REMARK    4  A    between atoms: C1_4  and  C5_8 
REMARK    5  A    between atoms: C2_5  and  C7_10 
REMARK    6  A    between atoms: C3_6  and  C4_7 
REMARK    7  A    between atoms: C3_6  and  C6_9 
REMARK    8  A    between atoms: C6_9  and  C9_12 
REMARK    9  A    between atoms: C10_13  and  C12_15 
ROOT
HETATM    1  C7  UNK     1      19.189   0.760  29.291  1.00  0.00    -0.085 C 
HETATM    2  C10 UNK     1      19.853   0.532  30.440  1.00  0.00     0.002 C 
HETATM    3  C11 UNK     1      19.213  -0.262  28.184  1.00  0.00     0.043 C 
ENDROOT
BRANCH   2   4
HETATM    4  C12 UNK     1      20.662  -0.675  30.793  1.00  0.00     0.203 C 
BRANCH   4   5
HETATM    5  O1  UNK     1      19.787  -1.674  31.301  1.00  0.00    -0.347 OA
BRANCH   5   6
HETATM    6  C14 UNK     1      19.578  -1.680  32.655  1.00  0.00     0.071 A 
HETATM    7  C19 UNK     1      18.550  -0.919  33.197  1.00  0.00     0.075 A 
HETATM    8  C18 UNK     1      18.357  -0.941  34.576  1.00  0.00     0.092 A 
HETATM    9  C15 UNK     1      19.164  -1.702  35.417  1.00  0.00    -0.002 A 
HETATM   10  O2  UNK     1      17.307  -0.160  35.102  1.00  0.00    -0.275 OA
HETATM   11  C21 UNK     1      20.194  -2.462  34.858  1.00  0.00     0.017 A 
HETATM   12  C22 UNK     1      18.907  -1.678  36.847  1.00  0.00     0.020 A 
HETATM   13  C20 UNK     1      20.400  -2.450  33.475  1.00  0.00     0.038 A 
HETATM   14  C23 UNK     1      17.910  -0.938  37.337  1.00  0.00     0.083 A 
HETATM   15  C24 UNK     1      17.041  -0.122  36.467  1.00  0.00     0.288 A 
HETATM   16  O3  UNK     1      16.130   0.552  36.933  1.00  0.00    -0.260 OA
ENDBRANCH   5   6
ENDBRANCH   4   5
ENDBRANCH   2   4
BRANCH   1  17
HETATM   17  C2  UNK     1      18.365   1.997  29.007  1.00  0.00     0.037 C 
BRANCH  17  18
HETATM   18  C1  UNK     1      17.977   2.736  30.293  1.00  0.00     0.031 C 
BRANCH  18  19
HETATM   19  C5  UNK     1      18.802   3.981  30.476  1.00  0.00    -0.024 C 
HETATM   20  C4  UNK     1      18.956   4.734  31.583  1.00  0.00    -0.087 C 
HETATM   21  C8  UNK     1      18.242   4.346  32.854  1.00  0.00     0.043 C 
BRANCH  20  22
HETATM   22  C3  UNK     1      19.769   6.009  31.665  1.00  0.00     0.037 C 
BRANCH  22  23
HETATM   23  C6  UNK     1      19.814   6.637  33.065  1.00  0.00     0.031 C 
BRANCH  23  24
HETATM   24  C9  UNK     1      18.810   7.742  33.241  1.00  0.00    -0.024 C 
HETATM   25  C13 UNK     1      18.966   8.915  33.884  1.00  0.00    -0.091 C 
HETATM   26  C16 UNK     1      17.915   9.979  34.023  1.00  0.00     0.042 C 
HETATM   27  C17 UNK     1      20.275   9.253  34.548  1.00  0.00     0.042 C 
ENDBRANCH  23  24
ENDBRANCH  22  23
ENDBRANCH  20  22
ENDBRANCH  18  19
ENDBRANCH  17  18
ENDBRANCH   1  17
TORSDOF 9
ENDMDL
MODEL 4
REMARK VINA RESULT:      -8.7      4.455      7.211
REMARK  9 active torsions:
REMARK  status: ('A' for Active; 'I' for Inactive)
REMARK    1  A    between atoms: C12_15  and  O1_1 
REMARK    2  A    between atoms: C14_17  and  O1_1 
REMARK    3  A    between atoms: C1_4  and  C2_5 
REMARK    4  A    between atoms: C1_4  and  C5_8 
REMARK    5  A    between atoms: C2_5  and  C7_10 
REMARK    6  A    between atoms: C3_6  and  C4_7 
REMARK    7  A    between atoms: C3_6  and  C6_9 
REMARK    8  A    between atoms: C6_9  and  C9_12 
REMARK    9  A    between atoms: C10_13  and  C12_15 
ROOT
HETATM    1  C7  UNK     1      18.757  -1.271  35.320  1.00  0.00    -0.085 C 
HETATM    2  C10 UNK     1      19.673  -2.251  35.445  1.00  0.00     0.002 C 
HETATM    3  C11 UNK     1      18.012  -0.768  36.529  1.00  0.00     0.043 C 
ENDROOT
BRANCH   2   4
HETATM    4  C12 UNK     1      20.079  -2.952  36.701  1.00  0.00     0.203 C 
BRANCH   4   5
HETATM    5  O1  UNK     1      19.408  -4.204  36.759  1.00  0.00    -0.347 OA
BRANCH   5   6
HETATM    6  C14 UNK     1      20.192  -5.320  36.890  1.00  0.00     0.071 A 
HETATM    7  C19 UNK     1      20.163  -6.301  35.908  1.00  0.00     0.075 A 
HETATM    8  C18 UNK     1      20.969  -7.427  36.062  1.00  0.00     0.092 A 
HETATM    9  C15 UNK     1      21.798  -7.588  37.170  1.00  0.00    -0.002 A 
HETATM   10  O2  UNK     1      20.922  -8.410  35.053  1.00  0.00    -0.275 OA
HETATM   11  C21 UNK     1      21.816  -6.592  38.149  1.00  0.00     0.017 A 
HETATM   12  C22 UNK     1      22.613  -8.787  37.267  1.00  0.00     0.020 A 
HETATM   13  C20 UNK     1      21.013  -5.457  38.007  1.00  0.00     0.038 A 
HETATM   14  C23 UNK     1      22.563  -9.712  36.306  1.00  0.00     0.083 A 
HETATM   15  C24 UNK     1      21.694  -9.565  35.124  1.00  0.00     0.288 A 
HETATM   16  O3  UNK     1      21.660 -10.424  34.250  1.00  0.00    -0.260 OA
ENDBRANCH   5   6
ENDBRANCH   4   5
ENDBRANCH   2   4
BRANCH   1  17
HETATM   17  C2  UNK     1      18.410  -0.583  34.018  1.00  0.00     0.037 C 
BRANCH  17  18
HETATM   18  C1  UNK     1      19.110  -1.234  32.819  1.00  0.00     0.031 C 
BRANCH  18  19
HETATM   19  C5  UNK     1      19.137  -0.308  31.634  1.00  0.00    -0.024 C 
HETATM   20  C4  UNK     1      19.686  -0.510  30.420  1.00  0.00    -0.087 C 
HETATM   21  C8  UNK     1      20.387  -1.813  30.126  1.00  0.00     0.043 C 
BRANCH  20  22
HETATM   22  C3  UNK     1      19.713   0.505  29.296  1.00  0.00     0.037 C 
BRANCH  22  23
HETATM   23  C6  UNK     1      18.463   1.393  29.221  1.00  0.00     0.031 C 
BRANCH  23  24
HETATM   24  C9  UNK     1      18.787   2.860  29.280  1.00  0.00    -0.024 C 
HETATM   25  C13 UNK     1      18.714   3.688  30.340  1.00  0.00    -0.091 C 
HETATM   26  C16 UNK     1      19.054   5.151  30.328  1.00  0.00     0.042 C 
HETATM   27  C17 UNK     1      18.256   3.173  31.679  1.00  0.00     0.042 C 
ENDBRANCH  23  24
ENDBRANCH  22  23
ENDBRANCH  20  22
ENDBRANCH  18  19
ENDBRANCH  17  18
ENDBRANCH   1  17
TORSDOF 9
ENDMDL
MODEL 5
REMARK VINA RESULT:      -8.5      4.935      6.993
REMARK  9 active torsions:
REMARK  status: ('A' for Active; 'I' for Inactive)
REMARK    1  A    between atoms: C12_15  and  O1_1 
REMARK    2  A    between atoms: C14_17  and  O1_1 
REMARK    3  A    between atoms: C1_4  and  C2_5 
REMARK    4  A    between atoms: C1_4  and  C5_8 
REMARK    5  A    between atoms: C2_5  and  C7_10 
REMARK    6  A    between atoms: C3_6  and  C4_7 
REMARK    7  A    between atoms: C3_6  and  C6_9 
REMARK    8  A    between atoms: C6_9  and  C9_12 
REMARK    9  A    between atoms: C10_13  and  C12_15 
ROOT
HETATM    1  C7  UNK     1      18.769  -1.406  35.368  1.00  0.00    -0.085 C 
HETATM    2  C10 UNK     1      19.754  -2.325  35.327  1.00  0.00     0.002 C 
HETATM    3  C11 UNK     1      18.010  -1.164  36.647  1.00  0.00     0.043 C 
ENDROOT
BRANCH   2   4
HETATM    4  C12 UNK     1      20.228  -3.193  36.448  1.00  0.00     0.203 C 
BRANCH   4   5
HETATM    5  O1  UNK     1      20.505  -4.489  35.932  1.00  0.00    -0.347 OA
BRANCH   5   6
HETATM    6  C14 UNK     1      20.364  -5.540  36.799  1.00  0.00     0.071 A 
HETATM    7  C19 UNK     1      20.095  -6.810  36.304  1.00  0.00     0.075 A 
HETATM    8  C18 UNK     1      19.956  -7.864  37.204  1.00  0.00     0.092 A 
HETATM    9  C15 UNK     1      20.079  -7.674  38.578  1.00  0.00    -0.002 A 
HETATM   10  O2  UNK     1      19.684  -9.143  36.678  1.00  0.00    -0.275 OA
HETATM   11  C21 UNK     1      20.349  -6.392  39.061  1.00  0.00     0.017 A 
HETATM   12  C22 UNK     1      19.922  -8.818  39.460  1.00  0.00     0.020 A 
HETATM   13  C20 UNK     1      20.492  -5.325  38.170  1.00  0.00     0.038 A 
HETATM   14  C23 UNK     1      19.666 -10.026  38.954  1.00  0.00     0.083 A 
HETATM   15  C24 UNK     1      19.530 -10.252  37.502  1.00  0.00     0.288 A 
HETATM   16  O3  UNK     1      19.294 -11.368  37.053  1.00  0.00    -0.260 OA
ENDBRANCH   5   6
ENDBRANCH   4   5
ENDBRANCH   2   4
BRANCH   1  17
HETATM   17  C2  UNK     1      18.354  -0.540  34.199  1.00  0.00     0.037 C 
BRANCH  17  18
HETATM   18  C1  UNK     1      19.031  -0.974  32.894  1.00  0.00     0.031 C 
BRANCH  18  19
HETATM   19  C5  UNK     1      18.906   0.087  31.835  1.00  0.00    -0.024 C 
HETATM   20  C4  UNK     1      19.512   0.154  30.634  1.00  0.00    -0.087 C 
HETATM   21  C8  UNK     1      20.458  -0.943  30.213  1.00  0.00     0.043 C 
BRANCH  20  22
HETATM   22  C3  UNK     1      19.367   1.294  29.646  1.00  0.00     0.037 C 
BRANCH  22  23
HETATM   23  C6  UNK     1      18.334   2.353  30.055  1.00  0.00     0.031 C 
BRANCH  23  24
HETATM   24  C9  UNK     1      18.899   3.746  30.061  1.00  0.00    -0.024 C 
HETATM   25  C13 UNK     1      18.862   4.655  31.054  1.00  0.00    -0.091 C 
HETATM   26  C16 UNK     1      19.449   6.036  30.993  1.00  0.00     0.042 C 
HETATM   27  C17 UNK     1      18.187   4.331  32.361  1.00  0.00     0.042 C 
ENDBRANCH  23  24
ENDBRANCH  22  23
ENDBRANCH  20  22
ENDBRANCH  18  19
ENDBRANCH  17  18
ENDBRANCH   1  17
TORSDOF 9
ENDMDL
MODEL 6
REMARK VINA RESULT:      -8.3      5.067     11.199
REMARK  9 active torsions:
REMARK  status: ('A' for Active; 'I' for Inactive)
REMARK    1  A    between atoms: C12_15  and  O1_1 
REMARK    2  A    between atoms: C14_17  and  O1_1 
REMARK    3  A    between atoms: C1_4  and  C2_5 
REMARK    4  A    between atoms: C1_4  and  C5_8 
REMARK    5  A    between atoms: C2_5  and  C7_10 
REMARK    6  A    between atoms: C3_6  and  C4_7 
REMARK    7  A    between atoms: C3_6  and  C6_9 
REMARK    8  A    between atoms: C6_9  and  C9_12 
REMARK    9  A    between atoms: C10_13  and  C12_15 
ROOT
HETATM    1  C7  UNK     1      19.811  -4.007  36.139  1.00  0.00    -0.085 C 
HETATM    2  C10 UNK     1      20.122  -3.772  34.850  1.00  0.00     0.002 C 
HETATM    3  C11 UNK     1      19.792  -2.876  37.135  1.00  0.00     0.043 C 
ENDROOT
BRANCH   2   4
HETATM    4  C12 UNK     1      20.472  -2.458  34.230  1.00  0.00     0.203 C 
BRANCH   4   5
HETATM    5  O1  UNK     1      21.037  -2.698  32.947  1.00  0.00    -0.347 OA
BRANCH   5   6
HETATM    6  C14 UNK     1      20.566  -1.932  31.913  1.00  0.00     0.071 A 
HETATM    7  C19 UNK     1      19.805  -0.803  32.183  1.00  0.00     0.075 A 
HETATM    8  C18 UNK     1      19.337  -0.040  31.115  1.00  0.00     0.092 A 
HETATM    9  C15 UNK     1      19.615  -0.381  29.794  1.00  0.00    -0.002 A 
HETATM   10  O2  UNK     1      18.566   1.102  31.415  1.00  0.00    -0.275 OA
HETATM   11  C21 UNK     1      20.382  -1.520  29.538  1.00  0.00     0.017 A 
HETATM   12  C22 UNK     1      19.095   0.459  28.729  1.00  0.00     0.020 A 
HETATM   13  C20 UNK     1      20.858  -2.295  30.599  1.00  0.00     0.038 A 
HETATM   14  C23 UNK     1      18.367   1.540  29.021  1.00  0.00     0.083 A 
HETATM   15  C24 UNK     1      18.059   1.922  30.412  1.00  0.00     0.288 A 
HETATM   16  O3  UNK     1      17.389   2.917  30.664  1.00  0.00    -0.260 OA
ENDBRANCH   5   6
ENDBRANCH   4   5
ENDBRANCH   2   4
BRANCH   1  17
HETATM   17  C2  UNK     1      19.439  -5.363  36.699  1.00  0.00     0.037 C 
BRANCH  17  18
HETATM   18  C1  UNK     1      19.997  -5.575  38.110  1.00  0.00     0.031 C 
BRANCH  18  19
HETATM   19  C5  UNK     1      19.844  -7.006  38.548  1.00  0.00    -0.024 C 
HETATM   20  C4  UNK     1      20.751  -7.807  39.140  1.00  0.00    -0.087 C 
HETATM   21  C8  UNK     1      22.131  -7.276  39.441  1.00  0.00     0.043 C 
BRANCH  20  22
HETATM   22  C3  UNK     1      20.528  -9.261  39.501  1.00  0.00     0.037 C 
BRANCH  22  23
HETATM   23  C6  UNK     1      19.829 -10.080  38.407  1.00  0.00     0.031 C 
BRANCH  23  24
HETATM   24  C9  UNK     1      20.797 -10.809  37.517  1.00  0.00    -0.024 C 
HETATM   25  C13 UNK     1      21.310 -10.407  36.337  1.00  0.00    -0.091 C 
HETATM   26  C16 UNK     1      22.277 -11.190  35.496  1.00  0.00     0.042 C 
HETATM   27  C17 UNK     1      20.920  -9.076  35.751  1.00  0.00     0.042 C 
ENDBRANCH  23  24
ENDBRANCH  22  23
ENDBRANCH  20  22
ENDBRANCH  18  19
ENDBRANCH  17  18
ENDBRANCH   1  17
TORSDOF 9
ENDMDL
MODEL 7
REMARK VINA RESULT:      -8.2      5.136      6.905
REMARK  9 active torsions:
REMARK  status: ('A' for Active; 'I' for Inactive)
REMARK    1  A    between atoms: C12_15  and  O1_1 
REMARK    2  A    between atoms: C14_17  and  O1_1 
REMARK    3  A    between atoms: C1_4  and  C2_5 
REMARK    4  A    between atoms: C1_4  and  C5_8 
REMARK    5  A    between atoms: C2_5  and  C7_10 
REMARK    6  A    between atoms: C3_6  and  C4_7 
REMARK    7  A    between atoms: C3_6  and  C6_9 
REMARK    8  A    between atoms: C6_9  and  C9_12 
REMARK    9  A    between atoms: C10_13  and  C12_15 
ROOT
HETATM    1  C7  UNK     1      18.977  -1.545  35.349  1.00  0.00    -0.085 C 
HETATM    2  C10 UNK     1      19.985  -2.427  35.489  1.00  0.00     0.002 C 
HETATM    3  C11 UNK     1      17.964  -1.367  36.450  1.00  0.00     0.043 C 
ENDROOT
BRANCH   2   4
HETATM    4  C12 UNK     1      20.256  -3.310  36.664  1.00  0.00     0.203 C 
BRANCH   4   5
HETATM    5  O1  UNK     1      20.763  -4.552  36.191  1.00  0.00    -0.347 OA
BRANCH   5   6
HETATM    6  C14 UNK     1      20.591  -5.639  37.006  1.00  0.00     0.071 A 
HETATM    7  C19 UNK     1      20.246  -6.866  36.454  1.00  0.00     0.075 A 
HETATM    8  C18 UNK     1      20.076  -7.958  37.302  1.00  0.00     0.092 A 
HETATM    9  C15 UNK     1      20.243  -7.848  38.680  1.00  0.00    -0.002 A 
HETATM   10  O2  UNK     1      19.725  -9.192  36.718  1.00  0.00    -0.275 OA
HETATM   11  C21 UNK     1      20.590  -6.608  39.221  1.00  0.00     0.017 A 
HETATM   12  C22 UNK     1      20.050  -9.027  39.506  1.00  0.00     0.020 A 
HETATM   13  C20 UNK     1      20.765  -5.504  38.382  1.00  0.00     0.038 A 
HETATM   14  C23 UNK     1      19.720 -10.193  38.945  1.00  0.00     0.083 A 
HETATM   15  C24 UNK     1      19.536 -10.335  37.488  1.00  0.00     0.288 A 
HETATM   16  O3  UNK     1      19.233 -11.413  36.988  1.00  0.00    -0.260 OA
ENDBRANCH   5   6
ENDBRANCH   4   5
ENDBRANCH   2   4
BRANCH   1  17
HETATM   17  C2  UNK     1      18.774  -0.660  34.139  1.00  0.00     0.037 C 
BRANCH  17  18
HETATM   18  C1  UNK     1      17.550   0.250  34.291  1.00  0.00     0.031 C 
BRANCH  18  19
HETATM   19  C5  UNK     1      17.891   1.681  33.977  1.00  0.00    -0.024 C 
HETATM   20  C4  UNK     1      18.532   2.583  34.746  1.00  0.00    -0.087 C 
HETATM   21  C8  UNK     1      19.007   2.185  36.122  1.00  0.00     0.043 C 
BRANCH  20  22
HETATM   22  C3  UNK     1      18.789   4.027  34.368  1.00  0.00     0.037 C 
BRANCH  22  23
HETATM   23  C6  UNK     1      17.980   4.513  33.157  1.00  0.00     0.031 C 
BRANCH  23  24
HETATM   24  C9  UNK     1      18.801   5.330  32.198  1.00  0.00    -0.024 C 
HETATM   25  C13 UNK     1      19.196   5.005  30.953  1.00  0.00    -0.091 C 
HETATM   26  C16 UNK     1      20.019   5.874  30.045  1.00  0.00     0.042 C 
HETATM   27  C17 UNK     1      18.823   3.672  30.358  1.00  0.00     0.042 C 
ENDBRANCH  23  24
ENDBRANCH  22  23
ENDBRANCH  20  22
ENDBRANCH  18  19
ENDBRANCH  17  18
ENDBRANCH   1  17
TORSDOF 9
ENDMDL
MODEL 8
REMARK VINA RESULT:      -8.2     23.398     25.671
REMARK  9 active torsions:
REMARK  status: ('A' for Active; 'I' for Inactive)
REMARK    1  A    between atoms: C12_15  and  O1_1 
REMARK    2  A    between atoms: C14_17  and  O1_1 
REMARK    3  A    between atoms: C1_4  and  C2_5 
REMARK    4  A    between atoms: C1_4  and  C5_8 
REMARK    5  A    between atoms: C2_5  and  C7_10 
REMARK    6  A    between atoms: C3_6  and  C4_7 
REMARK    7  A    between atoms: C3_6  and  C6_9 
REMARK    8  A    between atoms: C6_9  and  C9_12 
REMARK    9  A    between atoms: C10_13  and  C12_15 
ROOT
HETATM    1  C7  UNK     1      10.395   6.465   7.318  1.00  0.00    -0.085 C 
HETATM    2  C10 UNK     1       9.926   6.949   8.484  1.00  0.00     0.002 C 
HETATM    3  C11 UNK     1       9.448   6.163   6.185  1.00  0.00     0.043 C 
ENDROOT
BRANCH   2   4
HETATM    4  C12 UNK     1       8.504   7.249   8.832  1.00  0.00     0.203 C 
BRANCH   4   5
HETATM    5  O1  UNK     1       8.254   6.789  10.154  1.00  0.00    -0.347 OA
BRANCH   5   6
HETATM    6  C14 UNK     1       7.521   5.637  10.278  1.00  0.00     0.071 A 
HETATM    7  C19 UNK     1       7.441   4.754   9.210  1.00  0.00     0.075 A 
HETATM    8  C18 UNK     1       6.691   3.589   9.359  1.00  0.00     0.092 A 
HETATM    9  C15 UNK     1       6.026   3.294  10.547  1.00  0.00    -0.002 A 
HETATM   10  O2  UNK     1       6.624   2.708   8.261  1.00  0.00    -0.275 OA
HETATM   11  C21 UNK     1       6.116   4.192  11.612  1.00  0.00     0.017 A 
HETATM   12  C22 UNK     1       5.261   2.062  10.634  1.00  0.00     0.020 A 
HETATM   13  C20 UNK     1       6.865   5.364  11.477  1.00  0.00     0.038 A 
HETATM   14  C23 UNK     1       5.204   1.232   9.590  1.00  0.00     0.083 A 
HETATM   15  C24 UNK     1       5.899   1.522   8.321  1.00  0.00     0.288 A 
HETATM   16  O3  UNK     1       5.837   0.750   7.372  1.00  0.00    -0.260 OA
ENDBRANCH   5   6
ENDBRANCH   4   5
ENDBRANCH   2   4
BRANCH   1  17
HETATM   17  C2  UNK     1      11.856   6.207   7.021  1.00  0.00     0.037 C 
BRANCH  17  18
HETATM   18  C1  UNK     1      12.397   5.003   7.799  1.00  0.00     0.031 C 
BRANCH  18  19
HETATM   19  C5  UNK     1      13.807   5.242   8.266  1.00  0.00    -0.024 C 
HETATM   20  C4  UNK     1      14.242   6.042   9.259  1.00  0.00    -0.087 C 
HETATM   21  C8  UNK     1      13.245   6.840  10.063  1.00  0.00     0.043 C 
BRANCH  20  22
HETATM   22  C3  UNK     1      15.694   6.265   9.628  1.00  0.00     0.037 C 
BRANCH  22  23
HETATM   23  C6  UNK     1      15.909   7.322  10.720  1.00  0.00     0.031 C 
BRANCH  23  24
HETATM   24  C9  UNK     1      16.874   8.399  10.307  1.00  0.00    -0.024 C 
HETATM   25  C13 UNK     1      16.632   9.493   9.560  1.00  0.00    -0.091 C 
HETATM   26  C16 UNK     1      17.648  10.533   9.183  1.00  0.00     0.042 C 
HETATM   27  C17 UNK     1      15.251   9.757   9.019  1.00  0.00     0.042 C 
ENDBRANCH  23  24
ENDBRANCH  22  23
ENDBRANCH  20  22
ENDBRANCH  18  19
ENDBRANCH  17  18
ENDBRANCH   1  17
TORSDOF 9
ENDMDL
MODEL 9
REMARK VINA RESULT:      -8.2     11.318     15.215
REMARK  9 active torsions:
REMARK  status: ('A' for Active; 'I' for Inactive)
REMARK    1  A    between atoms: C12_15  and  O1_1 
REMARK    2  A    between atoms: C14_17  and  O1_1 
REMARK    3  A    between atoms: C1_4  and  C2_5 
REMARK    4  A    between atoms: C1_4  and  C5_8 
REMARK    5  A    between atoms: C2_5  and  C7_10 
REMARK    6  A    between atoms: C3_6  and  C4_7 
REMARK    7  A    between atoms: C3_6  and  C6_9 
REMARK    8  A    between atoms: C6_9  and  C9_12 
REMARK    9  A    between atoms: C10_13  and  C12_15 
ROOT
HETATM    1  C7  UNK     1      21.614  -6.957  38.988  1.00  0.00    -0.085 C 
HETATM    2  C10 UNK     1      22.641  -7.813  39.157  1.00  0.00     0.002 C 
HETATM    3  C11 UNK     1      21.811  -5.679  38.216  1.00  0.00     0.043 C 
ENDROOT
BRANCH   2   4
HETATM    4  C12 UNK     1      24.039  -7.659  38.651  1.00  0.00     0.203 C 
BRANCH   4   5
HETATM    5  O1  UNK     1      24.878  -8.568  39.353  1.00  0.00    -0.347 OA
BRANCH   5   6
HETATM    6  C14 UNK     1      26.213  -8.535  39.048  1.00  0.00     0.071 A 
HETATM    7  C19 UNK     1      26.760  -7.396  38.472  1.00  0.00     0.075 A 
HETATM    8  C18 UNK     1      28.121  -7.385  38.172  1.00  0.00     0.092 A 
HETATM    9  C15 UNK     1      28.937  -8.482  38.435  1.00  0.00    -0.002 A 
HETATM   10  O2  UNK     1      28.653  -6.218  37.588  1.00  0.00    -0.275 OA
HETATM   11  C21 UNK     1      28.373  -9.620  39.014  1.00  0.00     0.017 A 
HETATM   12  C22 UNK     1      30.348  -8.403  38.096  1.00  0.00     0.020 A 
HETATM   13  C20 UNK     1      27.009  -9.645  39.321  1.00  0.00     0.038 A 
HETATM   14  C23 UNK     1      30.845  -7.293  37.544  1.00  0.00     0.083 A 
HETATM   15  C24 UNK     1      30.000  -6.118  37.255  1.00  0.00     0.288 A 
HETATM   16  O3  UNK     1      30.471  -5.107  36.748  1.00  0.00    -0.260 OA
ENDBRANCH   5   6
ENDBRANCH   4   5
ENDBRANCH   2   4
BRANCH   1  17
HETATM   17  C2  UNK     1      20.212  -7.187  39.507  1.00  0.00     0.037 C 
BRANCH  17  18
HETATM   18  C1  UNK     1      19.329  -7.906  38.481  1.00  0.00     0.031 C 
BRANCH  18  19
HETATM   19  C5  UNK     1      20.125  -8.324  37.275  1.00  0.00    -0.024 C 
HETATM   20  C4  UNK     1      20.378  -9.568  36.823  1.00  0.00    -0.087 C 
HETATM   21  C8  UNK     1      19.826 -10.759  37.566  1.00  0.00     0.043 C 
BRANCH  20  22
HETATM   22  C3  UNK     1      21.239  -9.901  35.621  1.00  0.00     0.037 C 
BRANCH  22  23
HETATM   23  C6  UNK     1      22.718 -10.142  35.955  1.00  0.00     0.031 C 
BRANCH  23  24
HETATM   24  C9  UNK     1      23.115 -11.587  35.835  1.00  0.00    -0.024 C 
HETATM   25  C13 UNK     1      24.338 -12.130  35.982  1.00  0.00    -0.091 C 
HETATM   26  C16 UNK     1      24.665 -13.590  35.847  1.00  0.00     0.042 C 
HETATM   27  C17 UNK     1      25.525 -11.261  36.304  1.00  0.00     0.042 C 
ENDBRANCH  23  24
ENDBRANCH  22  23
ENDBRANCH  20  22
ENDBRANCH  18  19
ENDBRANCH  17  18
ENDBRANCH   1  17
TORSDOF 9
ENDMDL
MODEL 10
REMARK VINA RESULT:      -8.1     13.601     17.209
REMARK  9 active torsions:
REMARK  status: ('A' for Active; 'I' for Inactive)
REMARK    1  A    between atoms: C12_15  and  O1_1 
REMARK    2  A    between atoms: C14_17  and  O1_1 
REMARK    3  A    between atoms: C1_4  and  C2_5 
REMARK    4  A    between atoms: C1_4  and  C5_8 
REMARK    5  A    between atoms: C2_5  and  C7_10 
REMARK    6  A    between atoms: C3_6  and  C4_7 
REMARK    7  A    between atoms: C3_6  and  C6_9 
REMARK    8  A    between atoms: C6_9  and  C9_12 
REMARK    9  A    between atoms: C10_13  and  C12_15 
ROOT
HETATM    1  C7  UNK     1      28.034  -8.906  30.176  1.00  0.00    -0.085 C 
HETATM    2  C10 UNK     1      28.185  -9.314  28.901  1.00  0.00     0.002 C 
HETATM    3  C11 UNK     1      29.017  -9.335  31.233  1.00  0.00     0.043 C 
ENDROOT
BRANCH   2   4
HETATM    4  C12 UNK     1      29.266 -10.191  28.356  1.00  0.00     0.203 C 
BRANCH   4   5
HETATM    5  O1  UNK     1      30.207  -9.376  27.668  1.00  0.00    -0.347 OA
BRANCH   5   6
HETATM    6  C14 UNK     1      31.222  -8.840  28.416  1.00  0.00     0.071 A 
HETATM    7  C19 UNK     1      32.191  -9.673  28.959  1.00  0.00     0.075 A 
HETATM    8  C18 UNK     1      33.214  -9.105  29.716  1.00  0.00     0.092 A 
HETATM    9  C15 UNK     1      33.284  -7.732  29.938  1.00  0.00    -0.002 A 
HETATM   10  O2  UNK     1      34.186  -9.970  30.257  1.00  0.00    -0.275 OA
HETATM   11  C21 UNK     1      32.302  -6.907  29.386  1.00  0.00     0.017 A 
HETATM   12  C22 UNK     1      34.378  -7.207  30.738  1.00  0.00     0.020 A 
HETATM   13  C20 UNK     1      31.271  -7.463  28.623  1.00  0.00     0.038 A 
HETATM   14  C23 UNK     1      35.296  -8.033  31.246  1.00  0.00     0.083 A 
HETATM   15  C24 UNK     1      35.242  -9.491  31.025  1.00  0.00     0.288 A 
HETATM   16  O3  UNK     1      36.093 -10.236  31.498  1.00  0.00    -0.260 OA
ENDBRANCH   5   6
ENDBRANCH   4   5
ENDBRANCH   2   4
BRANCH   1  17
HETATM   17  C2  UNK     1      26.927  -7.994  30.658  1.00  0.00     0.037 C 
BRANCH  17  18
HETATM   18  C1  UNK     1      27.076  -6.570  30.111  1.00  0.00     0.031 C 
BRANCH  18  19
HETATM   19  C5  UNK     1      28.396  -5.968  30.507  1.00  0.00    -0.024 C 
HETATM   20  C4  UNK     1      28.834  -5.633  31.737  1.00  0.00    -0.087 C 
HETATM   21  C8  UNK     1      27.943  -5.860  32.933  1.00  0.00     0.043 C 
BRANCH  20  22
HETATM   22  C3  UNK     1      30.166  -4.979  32.040  1.00  0.00     0.037 C 
BRANCH  22  23
HETATM   23  C6  UNK     1      30.854  -5.513  33.305  1.00  0.00     0.031 C 
BRANCH  23  24
HETATM   24  C9  UNK     1      31.632  -6.775  33.056  1.00  0.00    -0.024 C 
HETATM   25  C13 UNK     1      31.436  -7.994  33.595  1.00  0.00    -0.091 C 
HETATM   26  C16 UNK     1      32.255  -9.218  33.301  1.00  0.00     0.042 C 
HETATM   27  C17 UNK     1      30.324  -8.220  34.586  1.00  0.00     0.042 C 
ENDBRANCH  23  24
ENDBRANCH  22  23
ENDBRANCH  20  22
ENDBRANCH  18  19
ENDBRANCH  17  18
ENDBRANCH   1  17
TORSDOF 9
ENDMDL
