MODEL 1
REMARK VINA RESULT:      -9.1      0.000      0.000
REMARK  5 active torsions:
REMARK  status: ('A' for Active; 'I' for Inactive)
REMARK    1  A    between atoms: C2_11  and  S1_2 
REMARK    2  A    between atoms: C7_16  and  S1_2 
REMARK       I    between atoms: C11_20  and  N1_8 
REMARK    3  A    between atoms: C12_21  and  N1_8 
REMARK    4  A    between atoms: C4_13  and  N2_9 
REMARK    5  A    between atoms: C11_20  and  C7_16 
ROOT
HETATM    1  O1  UNK     1      17.961  -0.514  33.226  1.00  0.00    -0.273 OA
HETATM    2  O2  UNK     1      19.293  -1.412  31.604  1.00  0.00    -0.257 OA
HETATM    3  C1  UNK     1      18.360  -1.061  35.587  1.00  0.00     0.017 A 
HETATM    4  C2  UNK     1      19.537  -1.860  35.174  1.00  0.00     0.053 A 
HETATM    5  C3  UNK     1      17.622  -0.407  34.591  1.00  0.00     0.091 A 
HETATM    6  C4  UNK     1      19.794  -1.948  33.860  1.00  0.00     0.195 A 
HETATM    7  C5  UNK     1      17.903  -0.910  36.907  1.00  0.00     0.016 A 
HETATM    8  C6  UNK     1      16.498   0.377  34.874  1.00  0.00     0.038 A 
HETATM    9  C8  UNK     1      19.023  -1.293  32.793  1.00  0.00     0.323 A 
HETATM   10  C9  UNK     1      16.778  -0.130  37.205  1.00  0.00     0.001 A 
HETATM   11  C10 UNK     1      16.079   0.517  36.190  1.00  0.00     0.003 A 
ENDROOT
BRANCH   4  12
HETATM   12  S1  UNK     1      20.482  -2.631  36.418  1.00  0.00    -0.117 SA
BRANCH  12  13
HETATM   13  C7  UNK     1      19.436  -4.070  36.726  1.00  0.00     0.182 C 
BRANCH  13  14
HETATM   14  C11 UNK     1      20.306  -5.308  36.753  1.00  0.00     0.231 C 
HETATM   15  O3  UNK     1      21.469  -5.244  37.143  1.00  0.00    -0.272 OA
HETATM   16  N1  UNK     1      19.620  -6.436  36.317  1.00  0.00    -0.326 N 
HETATM   17  H7  UNK     1      18.647  -6.317  36.043  1.00  0.00     0.169 HD
BRANCH  16  18
HETATM   18  C12 UNK     1      20.115  -7.758  36.211  1.00  0.00     0.036 A 
HETATM   19  C13 UNK     1      19.666  -8.724  37.096  1.00  0.00     0.053 A 
HETATM   20  C15 UNK     1      20.155 -10.026  36.990  1.00  0.00     0.036 A 
HETATM   21  C17 UNK     1      21.086 -10.344  36.001  1.00  0.00     0.024 A 
HETATM   22 Cl1  UNK     1      19.610 -11.242  38.080  1.00  0.00    -0.084 Cl
HETATM   23  C16 UNK     1      21.528  -9.359  35.117  1.00  0.00     0.004 A 
HETATM   24  C14 UNK     1      21.039  -8.057  35.223  1.00  0.00     0.029 A 
ENDBRANCH  16  18
ENDBRANCH  13  14
ENDBRANCH  12  13
ENDBRANCH   4  12
BRANCH   6  25
HETATM   25  N2  UNK     1      20.938  -2.692  33.440  1.00  0.00    -0.108 N 
HETATM   26  O4  UNK     1      22.010  -2.081  33.369  1.00  0.00    -0.532 OA
HETATM   27  O5  UNK     1      20.765  -3.888  33.180  1.00  0.00    -0.532 OA
ENDBRANCH   6  25
TORSDOF 5
ENDMDL
MODEL 2
REMARK VINA RESULT:      -9.0      5.598      9.945
REMARK  5 active torsions:
REMARK  status: ('A' for Active; 'I' for Inactive)
REMARK    1  A    between atoms: C2_11  and  S1_2 
REMARK    2  A    between atoms: C7_16  and  S1_2 
REMARK       I    between atoms: C11_20  and  N1_8 
REMARK    3  A    between atoms: C12_21  and  N1_8 
REMARK    4  A    between atoms: C4_13  and  N2_9 
REMARK    5  A    between atoms: C11_20  and  C7_16 
ROOT
HETATM    1  O1  UNK     1      20.594  -2.940  35.065  1.00  0.00    -0.273 OA
HETATM    2  O2  UNK     1      20.221  -3.228  37.298  1.00  0.00    -0.257 OA
HETATM    3  C1  UNK     1      19.200  -1.381  33.776  1.00  0.00     0.017 A 
HETATM    4  C2  UNK     1      18.499  -1.017  35.029  1.00  0.00     0.053 A 
HETATM    5  C3  UNK     1      20.233  -2.325  33.847  1.00  0.00     0.091 A 
HETATM    6  C4  UNK     1      18.866  -1.655  36.151  1.00  0.00     0.195 A 
HETATM    7  C5  UNK     1      18.908  -0.867  32.501  1.00  0.00     0.016 A 
HETATM    8  C6  UNK     1      20.964  -2.734  32.725  1.00  0.00     0.038 A 
HETATM    9  C8  UNK     1      19.928  -2.667  36.249  1.00  0.00     0.323 A 
HETATM   10  C9  UNK     1      19.629  -1.268  31.369  1.00  0.00     0.001 A 
HETATM   11  C10 UNK     1      20.659  -2.197  31.482  1.00  0.00     0.003 A 
ENDROOT
BRANCH   4  12
HETATM   12  S1  UNK     1      17.248   0.193  34.946  1.00  0.00    -0.117 SA
BRANCH  12  13
HETATM   13  C7  UNK     1      18.263   1.673  35.154  1.00  0.00     0.182 C 
BRANCH  13  14
HETATM   14  C11 UNK     1      18.056   2.578  33.958  1.00  0.00     0.231 C 
HETATM   15  O3  UNK     1      17.637   2.122  32.897  1.00  0.00    -0.272 OA
HETATM   16  N1  UNK     1      18.373   3.900  34.245  1.00  0.00    -0.326 N 
HETATM   17  H7  UNK     1      18.693   4.113  35.188  1.00  0.00     0.169 HD
BRANCH  16  18
HETATM   18  C12 UNK     1      18.301   5.012  33.372  1.00  0.00     0.036 A 
HETATM   19  C13 UNK     1      19.010   4.989  32.183  1.00  0.00     0.053 A 
HETATM   20  C15 UNK     1      18.938   6.086  31.324  1.00  0.00     0.036 A 
HETATM   21  C17 UNK     1      18.157   7.190  31.666  1.00  0.00     0.024 A 
HETATM   22 Cl1  UNK     1      19.812   6.077  29.842  1.00  0.00    -0.084 Cl
HETATM   23  C16 UNK     1      17.448   7.197  32.868  1.00  0.00     0.004 A 
HETATM   24  C14 UNK     1      17.520   6.100  33.727  1.00  0.00     0.029 A 
ENDBRANCH  16  18
ENDBRANCH  13  14
ENDBRANCH  12  13
ENDBRANCH   4  12
BRANCH   6  25
HETATM   25  N2  UNK     1      18.221  -1.303  37.375  1.00  0.00    -0.108 N 
HETATM   26  O4  UNK     1      17.229  -1.966  37.697  1.00  0.00    -0.532 OA
HETATM   27  O5  UNK     1      18.706  -0.363  38.015  1.00  0.00    -0.532 OA
ENDBRANCH   6  25
TORSDOF 5
ENDMDL
MODEL 3
REMARK VINA RESULT:      -8.9      2.324      3.805
REMARK  5 active torsions:
REMARK  status: ('A' for Active; 'I' for Inactive)
REMARK    1  A    between atoms: C2_11  and  S1_2 
REMARK    2  A    between atoms: C7_16  and  S1_2 
REMARK       I    between atoms: C11_20  and  N1_8 
REMARK    3  A    between atoms: C12_21  and  N1_8 
REMARK    4  A    between atoms: C4_13  and  N2_9 
REMARK    5  A    between atoms: C11_20  and  C7_16 
ROOT
HETATM    1  O1  UNK     1      18.277  -0.062  32.772  1.00  0.00    -0.273 OA
HETATM    2  O2  UNK     1      17.099   1.286  34.189  1.00  0.00    -0.257 OA
HETATM    3  C1  UNK     1      19.772  -1.787  33.675  1.00  0.00     0.017 A 
HETATM    4  C2  UNK     1      19.339  -1.408  35.040  1.00  0.00     0.053 A 
HETATM    5  C3  UNK     1      19.212  -1.102  32.589  1.00  0.00     0.091 A 
HETATM    6  C4  UNK     1      18.469  -0.393  35.153  1.00  0.00     0.195 A 
HETATM    7  C5  UNK     1      20.721  -2.778  33.369  1.00  0.00     0.016 A 
HETATM    8  C6  UNK     1      19.546  -1.387  31.260  1.00  0.00     0.038 A 
HETATM    9  C8  UNK     1      17.885   0.359  34.033  1.00  0.00     0.323 A 
HETATM   10  C9  UNK     1      21.067  -3.073  32.044  1.00  0.00     0.001 A 
HETATM   11  C10 UNK     1      20.477  -2.380  30.991  1.00  0.00     0.003 A 
ENDROOT
BRANCH   4  12
HETATM   12  S1  UNK     1      20.001  -2.295  36.386  1.00  0.00    -0.117 SA
BRANCH  12  13
HETATM   13  C7  UNK     1      18.826  -3.666  36.436  1.00  0.00     0.182 C 
BRANCH  13  14
HETATM   14  C11 UNK     1      19.592  -4.959  36.606  1.00  0.00     0.231 C 
HETATM   15  O3  UNK     1      20.172  -5.471  35.650  1.00  0.00    -0.272 OA
HETATM   16  N1  UNK     1      19.551  -5.421  37.916  1.00  0.00    -0.326 N 
HETATM   17  H7  UNK     1      19.037  -4.863  38.594  1.00  0.00     0.169 HD
BRANCH  16  18
HETATM   18  C12 UNK     1      20.153  -6.592  38.436  1.00  0.00     0.036 A 
HETATM   19  C13 UNK     1      19.499  -7.806  38.308  1.00  0.00     0.053 A 
HETATM   20  C15 UNK     1      20.093  -8.959  38.821  1.00  0.00     0.036 A 
HETATM   21  C17 UNK     1      21.333  -8.881  39.456  1.00  0.00     0.024 A 
HETATM   22 Cl1  UNK     1      19.297 -10.477  38.672  1.00  0.00    -0.084 Cl
HETATM   23  C16 UNK     1      21.979  -7.650  39.577  1.00  0.00     0.004 A 
HETATM   24  C14 UNK     1      21.385  -6.498  39.063  1.00  0.00     0.029 A 
ENDBRANCH  16  18
ENDBRANCH  13  14
ENDBRANCH  12  13
ENDBRANCH   4  12
BRANCH   6  25
HETATM   25  N2  UNK     1      18.019  -0.026  36.457  1.00  0.00    -0.108 N 
HETATM   26  O4  UNK     1      18.595   0.920  37.005  1.00  0.00    -0.532 OA
HETATM   27  O5  UNK     1      17.087  -0.684  36.935  1.00  0.00    -0.532 OA
ENDBRANCH   6  25
TORSDOF 5
ENDMDL
MODEL 4
REMARK VINA RESULT:      -8.0     17.991     20.907
REMARK  5 active torsions:
REMARK  status: ('A' for Active; 'I' for Inactive)
REMARK    1  A    between atoms: C2_11  and  S1_2 
REMARK    2  A    between atoms: C7_16  and  S1_2 
REMARK       I    between atoms: C11_20  and  N1_8 
REMARK    3  A    between atoms: C12_21  and  N1_8 
REMARK    4  A    between atoms: C4_13  and  N2_9 
REMARK    5  A    between atoms: C11_20  and  C7_16 
ROOT
HETATM    1  O1  UNK     1      16.837  -7.147  13.293  1.00  0.00    -0.273 OA
HETATM    2  O2  UNK     1      18.315  -7.191  11.554  1.00  0.00    -0.257 OA
HETATM    3  C1  UNK     1      17.273  -5.719  15.242  1.00  0.00     0.017 A 
HETATM    4  C2  UNK     1      18.490  -5.215  14.565  1.00  0.00     0.053 A 
HETATM    5  C3  UNK     1      16.485  -6.662  14.570  1.00  0.00     0.091 A 
HETATM    6  C4  UNK     1      18.789  -5.733  13.365  1.00  0.00     0.195 A 
HETATM    7  C5  UNK     1      16.840  -5.340  16.525  1.00  0.00     0.016 A 
HETATM    8  C6  UNK     1      15.312  -7.197  15.116  1.00  0.00     0.038 A 
HETATM    9  C8  UNK     1      17.995  -6.742  12.648  1.00  0.00     0.323 A 
HETATM   10  C9  UNK     1      15.669  -5.868  17.086  1.00  0.00     0.001 A 
HETATM   11  C10 UNK     1      14.905  -6.793  16.380  1.00  0.00     0.003 A 
ENDROOT
BRANCH   4  12
HETATM   12  S1  UNK     1      19.441  -4.006  15.383  1.00  0.00    -0.117 SA
BRANCH  12  13
HETATM   13  C7  UNK     1      18.522  -2.531  14.890  1.00  0.00     0.182 C 
BRANCH  13  14
HETATM   14  C11 UNK     1      18.213  -1.714  16.125  1.00  0.00     0.231 C 
HETATM   15  O3  UNK     1      17.248  -1.994  16.833  1.00  0.00    -0.272 OA
HETATM   16  N1  UNK     1      19.136  -0.693  16.319  1.00  0.00    -0.326 N 
HETATM   17  H7  UNK     1      19.893  -0.609  15.643  1.00  0.00     0.169 HD
BRANCH  16  18
HETATM   18  C12 UNK     1      19.160   0.261  17.365  1.00  0.00     0.036 A 
HETATM   19  C13 UNK     1      19.305  -0.170  18.673  1.00  0.00     0.053 A 
HETATM   20  C15 UNK     1      19.327   0.771  19.702  1.00  0.00     0.036 A 
HETATM   21  C17 UNK     1      19.206   2.129  19.409  1.00  0.00     0.024 A 
HETATM   22 Cl1  UNK     1      19.506   0.257  21.335  1.00  0.00    -0.084 Cl
HETATM   23  C16 UNK     1      19.062   2.546  18.086  1.00  0.00     0.004 A 
HETATM   24  C14 UNK     1      19.039   1.606  17.056  1.00  0.00     0.029 A 
ENDBRANCH  16  18
ENDBRANCH  13  14
ENDBRANCH  12  13
ENDBRANCH   4  12
BRANCH   6  25
HETATM   25  N2  UNK     1      19.945  -5.245  12.682  1.00  0.00    -0.108 N 
HETATM   26  O4  UNK     1      19.789  -4.263  11.949  1.00  0.00    -0.532 OA
HETATM   27  O5  UNK     1      21.008  -5.844  12.880  1.00  0.00    -0.532 OA
ENDBRANCH   6  25
TORSDOF 5
ENDMDL
MODEL 5
REMARK VINA RESULT:      -8.0      9.298     11.215
REMARK  5 active torsions:
REMARK  status: ('A' for Active; 'I' for Inactive)
REMARK    1  A    between atoms: C2_11  and  S1_2 
REMARK    2  A    between atoms: C7_16  and  S1_2 
REMARK       I    between atoms: C11_20  and  N1_8 
REMARK    3  A    between atoms: C12_21  and  N1_8 
REMARK    4  A    between atoms: C4_13  and  N2_9 
REMARK    5  A    between atoms: C11_20  and  C7_16 
ROOT
HETATM    1  O1  UNK     1      28.023  -4.872  38.680  1.00  0.00    -0.273 OA
HETATM    2  O2  UNK     1      25.784  -5.286  38.845  1.00  0.00    -0.257 OA
HETATM    3  C1  UNK     1      29.602  -6.735  38.412  1.00  0.00     0.017 A 
HETATM    4  C2  UNK     1      28.451  -7.667  38.372  1.00  0.00     0.053 A 
HETATM    5  C3  UNK     1      29.339  -5.366  38.554  1.00  0.00     0.091 A 
HETATM    6  C4  UNK     1      27.226  -7.143  38.525  1.00  0.00     0.195 A 
HETATM    7  C5  UNK     1      30.954  -7.109  38.333  1.00  0.00     0.016 A 
HETATM    8  C6  UNK     1      30.352  -4.401  38.595  1.00  0.00     0.038 A 
HETATM    9  C8  UNK     1      26.923  -5.715  38.700  1.00  0.00     0.323 A 
HETATM   10  C9  UNK     1      31.979  -6.154  38.376  1.00  0.00     0.001 A 
HETATM   11  C10 UNK     1      31.677  -4.801  38.502  1.00  0.00     0.003 A 
ENDROOT
BRANCH   4  12
HETATM   12  S1  UNK     1      28.779  -9.363  38.146  1.00  0.00    -0.117 SA
BRANCH  12  13
HETATM   13  C7  UNK     1      29.697  -9.277  36.593  1.00  0.00     0.182 C 
BRANCH  13  14
HETATM   14  C11 UNK     1      28.718  -9.059  35.459  1.00  0.00     0.231 C 
HETATM   15  O3  UNK     1      27.620  -9.611  35.470  1.00  0.00    -0.272 OA
HETATM   16  N1  UNK     1      29.219  -8.190  34.498  1.00  0.00    -0.326 N 
HETATM   17  H7  UNK     1      30.148  -7.804  34.652  1.00  0.00     0.169 HD
BRANCH  16  18
HETATM   18  C12 UNK     1      28.582  -7.761  33.308  1.00  0.00     0.036 A 
HETATM   19  C13 UNK     1      28.554  -8.605  32.211  1.00  0.00     0.053 A 
HETATM   20  C15 UNK     1      27.927  -8.181  31.040  1.00  0.00     0.036 A 
HETATM   21  C17 UNK     1      27.336  -6.919  30.983  1.00  0.00     0.024 A 
HETATM   22 Cl1  UNK     1      27.881  -9.215  29.665  1.00  0.00    -0.084 Cl
HETATM   23  C16 UNK     1      27.373  -6.080  32.097  1.00  0.00     0.004 A 
HETATM   24  C14 UNK     1      28.000  -6.505  33.268  1.00  0.00     0.029 A 
ENDBRANCH  16  18
ENDBRANCH  13  14
ENDBRANCH  12  13
ENDBRANCH   4  12
BRANCH   6  25
HETATM   25  N2  UNK     1      26.100  -8.019  38.465  1.00  0.00    -0.108 N 
HETATM   26  O4  UNK     1      25.540  -8.140  37.370  1.00  0.00    -0.532 OA
HETATM   27  O5  UNK     1      25.775  -8.588  39.514  1.00  0.00    -0.532 OA
ENDBRANCH   6  25
TORSDOF 5
ENDMDL
MODEL 6
REMARK VINA RESULT:      -8.0      8.491     10.663
REMARK  5 active torsions:
REMARK  status: ('A' for Active; 'I' for Inactive)
REMARK    1  A    between atoms: C2_11  and  S1_2 
REMARK    2  A    between atoms: C7_16  and  S1_2 
REMARK       I    between atoms: C11_20  and  N1_8 
REMARK    3  A    between atoms: C12_21  and  N1_8 
REMARK    4  A    between atoms: C4_13  and  N2_9 
REMARK    5  A    between atoms: C11_20  and  C7_16 
ROOT
HETATM    1  O1  UNK     1      30.890  -3.962  38.210  1.00  0.00    -0.273 OA
HETATM    2  O2  UNK     1      29.510  -3.661  40.004  1.00  0.00    -0.257 OA
HETATM    3  C1  UNK     1      30.368  -5.677  36.531  1.00  0.00     0.017 A 
HETATM    4  C2  UNK     1      29.121  -5.981  37.270  1.00  0.00     0.053 A 
HETATM    5  C3  UNK     1      31.202  -4.667  37.028  1.00  0.00     0.091 A 
HETATM    6  C4  UNK     1      28.891  -5.298  38.402  1.00  0.00     0.195 A 
HETATM    7  C5  UNK     1      30.803  -6.333  35.367  1.00  0.00     0.016 A 
HETATM    8  C6  UNK     1      32.398  -4.297  36.403  1.00  0.00     0.038 A 
HETATM    9  C8  UNK     1      29.760  -4.251  38.960  1.00  0.00     0.323 A 
HETATM   10  C9  UNK     1      32.000  -5.975  34.732  1.00  0.00     0.001 A 
HETATM   11  C10 UNK     1      32.794  -4.955  35.247  1.00  0.00     0.003 A 
ENDROOT
BRANCH   4  12
HETATM   12  S1  UNK     1      28.062  -7.204  36.623  1.00  0.00    -0.117 SA
BRANCH  12  13
HETATM   13  C7  UNK     1      28.555  -8.594  37.665  1.00  0.00     0.182 C 
BRANCH  13  14
HETATM   14  C11 UNK     1      27.395  -9.561  37.769  1.00  0.00     0.231 C 
HETATM   15  O3  UNK     1      27.272 -10.284  38.755  1.00  0.00    -0.272 OA
HETATM   16  N1  UNK     1      26.553  -9.484  36.666  1.00  0.00    -0.326 N 
HETATM   17  H7  UNK     1      26.791  -8.813  35.939  1.00  0.00     0.169 HD
BRANCH  16  18
HETATM   18  C12 UNK     1      25.377 -10.235  36.426  1.00  0.00     0.036 A 
HETATM   19  C13 UNK     1      24.145  -9.605  36.484  1.00  0.00     0.053 A 
HETATM   20  C15 UNK     1      22.988 -10.346  36.247  1.00  0.00     0.036 A 
HETATM   21  C17 UNK     1      23.078 -11.707  35.955  1.00  0.00     0.024 A 
HETATM   22 Cl1  UNK     1      21.447  -9.582  36.315  1.00  0.00    -0.084 Cl
HETATM   23  C16 UNK     1      24.327 -12.327  35.900  1.00  0.00     0.004 A 
HETATM   24  C14 UNK     1      25.484 -11.586  36.137  1.00  0.00     0.029 A 
ENDBRANCH  16  18
ENDBRANCH  13  14
ENDBRANCH  12  13
ENDBRANCH   4  12
BRANCH   6  25
HETATM   25  N2  UNK     1      27.683  -5.556  39.119  1.00  0.00    -0.108 N 
HETATM   26  O4  UNK     1      27.707  -6.473  39.947  1.00  0.00    -0.532 OA
HETATM   27  O5  UNK     1      26.710  -4.842  38.852  1.00  0.00    -0.532 OA
ENDBRANCH   6  25
TORSDOF 5
ENDMDL
MODEL 7
REMARK VINA RESULT:      -7.9     10.257     12.038
REMARK  5 active torsions:
REMARK  status: ('A' for Active; 'I' for Inactive)
REMARK    1  A    between atoms: C2_11  and  S1_2 
REMARK    2  A    between atoms: C7_16  and  S1_2 
REMARK       I    between atoms: C11_20  and  N1_8 
REMARK    3  A    between atoms: C12_21  and  N1_8 
REMARK    4  A    between atoms: C4_13  and  N2_9 
REMARK    5  A    between atoms: C11_20  and  C7_16 
ROOT
HETATM    1  O1  UNK     1      30.362  -3.737  37.951  1.00  0.00    -0.273 OA
HETATM    2  O2  UNK     1      28.695  -3.792  39.510  1.00  0.00    -0.257 OA
HETATM    3  C1  UNK     1      30.778  -5.694  36.527  1.00  0.00     0.017 A 
HETATM    4  C2  UNK     1      29.624  -6.369  37.165  1.00  0.00     0.053 A 
HETATM    5  C3  UNK     1      31.096  -4.394  36.941  1.00  0.00     0.091 A 
HETATM    6  C4  UNK     1      28.982  -5.706  38.139  1.00  0.00     0.195 A 
HETATM    7  C5  UNK     1      31.605  -6.257  35.540  1.00  0.00     0.016 A 
HETATM    8  C6  UNK     1      32.160  -3.665  36.398  1.00  0.00     0.038 A 
HETATM    9  C8  UNK     1      29.308  -4.352  38.610  1.00  0.00     0.323 A 
HETATM   10  C9  UNK     1      32.676  -5.541  34.989  1.00  0.00     0.001 A 
HETATM   11  C10 UNK     1      32.951  -4.245  35.416  1.00  0.00     0.003 A 
ENDROOT
BRANCH   4  12
HETATM   12  S1  UNK     1      29.202  -7.967  36.614  1.00  0.00    -0.117 SA
BRANCH  12  13
HETATM   13  C7  UNK     1      28.185  -7.523  35.189  1.00  0.00     0.182 C 
BRANCH  13  14
HETATM   14  C11 UNK     1      28.819  -8.097  33.940  1.00  0.00     0.231 C 
HETATM   15  O3  UNK     1      29.498  -9.119  33.999  1.00  0.00    -0.272 OA
HETATM   16  N1  UNK     1      28.513  -7.348  32.810  1.00  0.00    -0.326 N 
HETATM   17  H7  UNK     1      27.918  -6.531  32.934  1.00  0.00     0.169 HD
BRANCH  16  18
HETATM   18  C12 UNK     1      28.931  -7.587  31.479  1.00  0.00     0.036 A 
HETATM   19  C13 UNK     1      28.273  -8.543  30.723  1.00  0.00     0.053 A 
HETATM   20  C15 UNK     1      28.686  -8.778  29.411  1.00  0.00     0.036 A 
HETATM   21  C17 UNK     1      29.750  -8.054  28.874  1.00  0.00     0.024 A 
HETATM   22 Cl1  UNK     1      27.882  -9.962  28.455  1.00  0.00    -0.084 Cl
HETATM   23  C16 UNK     1      30.402  -7.094  29.649  1.00  0.00     0.004 A 
HETATM   24  C14 UNK     1      29.989  -6.859  30.961  1.00  0.00     0.029 A 
ENDBRANCH  16  18
ENDBRANCH  13  14
ENDBRANCH  12  13
ENDBRANCH   4  12
BRANCH   6  25
HETATM   25  N2  UNK     1      27.851  -6.327  38.751  1.00  0.00    -0.108 N 
HETATM   26  O4  UNK     1      28.066  -7.030  39.744  1.00  0.00    -0.532 OA
HETATM   27  O5  UNK     1      26.747  -6.111  38.238  1.00  0.00    -0.532 OA
ENDBRANCH   6  25
TORSDOF 5
ENDMDL
MODEL 8
REMARK VINA RESULT:      -7.9     10.950     12.605
REMARK  5 active torsions:
REMARK  status: ('A' for Active; 'I' for Inactive)
REMARK    1  A    between atoms: C2_11  and  S1_2 
REMARK    2  A    between atoms: C7_16  and  S1_2 
REMARK       I    between atoms: C11_20  and  N1_8 
REMARK    3  A    between atoms: C12_21  and  N1_8 
REMARK    4  A    between atoms: C4_13  and  N2_9 
REMARK    5  A    between atoms: C11_20  and  C7_16 
ROOT
HETATM    1  O1  UNK     1      32.258  -3.461  36.341  1.00  0.00    -0.273 OA
HETATM    2  O2  UNK     1      34.067  -3.316  34.955  1.00  0.00    -0.257 OA
HETATM    3  C1  UNK     1      31.733  -5.583  37.460  1.00  0.00     0.017 A 
HETATM    4  C2  UNK     1      32.952  -6.171  36.856  1.00  0.00     0.053 A 
HETATM    5  C3  UNK     1      31.439  -4.241  37.185  1.00  0.00     0.091 A 
HETATM    6  C4  UNK     1      33.675  -5.389  36.040  1.00  0.00     0.195 A 
HETATM    7  C5  UNK     1      30.823  -6.268  38.284  1.00  0.00     0.016 A 
HETATM    8  C6  UNK     1      30.318  -3.589  37.709  1.00  0.00     0.038 A 
HETATM    9  C8  UNK     1      33.378  -3.986  35.715  1.00  0.00     0.323 A 
HETATM   10  C9  UNK     1      29.695  -5.629  38.814  1.00  0.00     0.001 A 
HETATM   11  C10 UNK     1      29.446  -4.289  38.530  1.00  0.00     0.003 A 
ENDROOT
BRANCH   4  12
HETATM   12  S1  UNK     1      33.341  -7.825  37.239  1.00  0.00    -0.117 SA
BRANCH  12  13
HETATM   13  C7  UNK     1      32.608  -8.635  35.801  1.00  0.00     0.182 C 
BRANCH  13  14
HETATM   14  C11 UNK     1      31.444  -9.486  36.261  1.00  0.00     0.231 C 
HETATM   15  O3  UNK     1      31.605 -10.677  36.517  1.00  0.00    -0.272 OA
HETATM   16  N1  UNK     1      30.268  -8.752  36.356  1.00  0.00    -0.326 N 
HETATM   17  H7  UNK     1      30.311  -7.762  36.121  1.00  0.00     0.169 HD
BRANCH  16  18
HETATM   18  C12 UNK     1      28.991  -9.218  36.752  1.00  0.00     0.036 A 
HETATM   19  C13 UNK     1      28.705  -9.350  38.101  1.00  0.00     0.053 A 
HETATM   20  C15 UNK     1      27.447  -9.809  38.490  1.00  0.00     0.036 A 
HETATM   21  C17 UNK     1      26.492 -10.129  37.525  1.00  0.00     0.024 A 
HETATM   22 Cl1  UNK     1      27.072  -9.981  40.161  1.00  0.00    -0.084 Cl
HETATM   23  C16 UNK     1      26.796  -9.990  36.171  1.00  0.00     0.004 A 
HETATM   24  C14 UNK     1      28.054  -9.530  35.782  1.00  0.00     0.029 A 
ENDBRANCH  16  18
ENDBRANCH  13  14
ENDBRANCH  12  13
ENDBRANCH   4  12
BRANCH   6  25
HETATM   25  N2  UNK     1      34.868  -5.926  35.467  1.00  0.00    -0.108 N 
HETATM   26  O4  UNK     1      34.783  -6.384  34.322  1.00  0.00    -0.532 OA
HETATM   27  O5  UNK     1      35.890  -5.889  36.161  1.00  0.00    -0.532 OA
ENDBRANCH   6  25
TORSDOF 5
ENDMDL
MODEL 9
REMARK VINA RESULT:      -7.8     28.137     29.791
REMARK  5 active torsions:
REMARK  status: ('A' for Active; 'I' for Inactive)
REMARK    1  A    between atoms: C2_11  and  S1_2 
REMARK    2  A    between atoms: C7_16  and  S1_2 
REMARK       I    between atoms: C11_20  and  N1_8 
REMARK    3  A    between atoms: C12_21  and  N1_8 
REMARK    4  A    between atoms: C4_13  and  N2_9 
REMARK    5  A    between atoms: C11_20  and  C7_16 
ROOT
HETATM    1  O1  UNK     1      16.247   6.324   9.881  1.00  0.00    -0.273 OA
HETATM    2  O2  UNK     1      15.280   4.258   9.796  1.00  0.00    -0.257 OA
HETATM    3  C1  UNK     1      14.869   8.339   9.607  1.00  0.00     0.017 A 
HETATM    4  C2  UNK     1      13.669   7.473   9.525  1.00  0.00     0.053 A 
HETATM    5  C3  UNK     1      16.115   7.726   9.794  1.00  0.00     0.091 A 
HETATM    6  C4  UNK     1      13.860   6.146   9.585  1.00  0.00     0.195 A 
HETATM    7  C5  UNK     1      14.869   9.740   9.499  1.00  0.00     0.016 A 
HETATM    8  C6  UNK     1      17.308   8.452   9.893  1.00  0.00     0.038 A 
HETATM    9  C8  UNK     1      15.158   5.476   9.755  1.00  0.00     0.323 A 
HETATM   10  C9  UNK     1      16.055  10.479   9.593  1.00  0.00     0.001 A 
HETATM   11  C10 UNK     1      17.273   9.835   9.794  1.00  0.00     0.003 A 
ENDROOT
BRANCH   4  12
HETATM   12  S1  UNK     1      12.116   8.240   9.342  1.00  0.00    -0.117 SA
BRANCH  12  13
HETATM   13  C7  UNK     1      11.659   7.586   7.721  1.00  0.00     0.182 C 
BRANCH  13  14
HETATM   14  C11 UNK     1      10.234   7.081   7.784  1.00  0.00     0.231 C 
HETATM   15  O3  UNK     1       9.668   6.684   6.767  1.00  0.00    -0.272 OA
HETATM   16  N1  UNK     1       9.723   7.120   9.076  1.00  0.00    -0.326 N 
HETATM   17  H7  UNK     1      10.336   7.465   9.813  1.00  0.00     0.169 HD
BRANCH  16  18
HETATM   18  C12 UNK     1       8.433   6.727   9.505  1.00  0.00     0.036 A 
HETATM   19  C13 UNK     1       8.138   5.379   9.623  1.00  0.00     0.053 A 
HETATM   20  C15 UNK     1       6.866   4.994  10.045  1.00  0.00     0.036 A 
HETATM   21  C17 UNK     1       5.907   5.962  10.344  1.00  0.00     0.024 A 
HETATM   22 Cl1  UNK     1       6.479   3.324  10.199  1.00  0.00    -0.084 Cl
HETATM   23  C16 UNK     1       6.220   7.315  10.219  1.00  0.00     0.004 A 
HETATM   24  C14 UNK     1       7.492   7.701   9.797  1.00  0.00     0.029 A 
ENDBRANCH  16  18
ENDBRANCH  13  14
ENDBRANCH  12  13
ENDBRANCH   4  12
BRANCH   6  25
HETATM   25  N2  UNK     1      12.716   5.293   9.532  1.00  0.00    -0.108 N 
HETATM   26  O4  UNK     1      12.583   4.595   8.520  1.00  0.00    -0.532 OA
HETATM   27  O5  UNK     1      11.950   5.320  10.502  1.00  0.00    -0.532 OA
ENDBRANCH   6  25
TORSDOF 5
ENDMDL
MODEL 10
REMARK VINA RESULT:      -7.8     10.446     12.129
REMARK  5 active torsions:
REMARK  status: ('A' for Active; 'I' for Inactive)
REMARK    1  A    between atoms: C2_11  and  S1_2 
REMARK    2  A    between atoms: C7_16  and  S1_2 
REMARK       I    between atoms: C11_20  and  N1_8 
REMARK    3  A    between atoms: C12_21  and  N1_8 
REMARK    4  A    between atoms: C4_13  and  N2_9 
REMARK    5  A    between atoms: C11_20  and  C7_16 
ROOT
HETATM    1  O1  UNK     1      30.436  -3.726  37.964  1.00  0.00    -0.273 OA
HETATM    2  O2  UNK     1      28.770  -3.921  39.514  1.00  0.00    -0.257 OA
HETATM    3  C1  UNK     1      30.812  -5.521  36.330  1.00  0.00     0.017 A 
HETATM    4  C2  UNK     1      29.645  -6.239  36.893  1.00  0.00     0.053 A 
HETATM    5  C3  UNK     1      31.156  -4.281  36.885  1.00  0.00     0.091 A 
HETATM    6  C4  UNK     1      29.017  -5.677  37.937  1.00  0.00     0.195 A 
HETATM    7  C5  UNK     1      31.626  -5.987  35.284  1.00  0.00     0.016 A 
HETATM    8  C6  UNK     1      32.234  -3.518  36.423  1.00  0.00     0.038 A 
HETATM    9  C8  UNK     1      29.371  -4.390  38.554  1.00  0.00     0.323 A 
HETATM   10  C9  UNK     1      32.711  -5.235  34.812  1.00  0.00     0.001 A 
HETATM   11  C10 UNK     1      33.011  -4.000  35.379  1.00  0.00     0.003 A 
ENDROOT
BRANCH   4  12
HETATM   12  S1  UNK     1      29.191  -7.758  36.169  1.00  0.00    -0.117 SA
BRANCH  12  13
HETATM   13  C7  UNK     1      28.353  -7.137  34.695  1.00  0.00     0.182 C 
BRANCH  13  14
HETATM   14  C11 UNK     1      28.566  -8.119  33.563  1.00  0.00     0.231 C 
HETATM   15  O3  UNK     1      28.687  -9.320  33.795  1.00  0.00    -0.272 OA
HETATM   16  N1  UNK     1      28.581  -7.491  32.323  1.00  0.00    -0.326 N 
HETATM   17  H7  UNK     1      28.449  -6.482  32.307  1.00  0.00     0.169 HD
BRANCH  16  18
HETATM   18  C12 UNK     1      28.756  -8.094  31.054  1.00  0.00     0.036 A 
HETATM   19  C13 UNK     1      29.993  -8.026  30.436  1.00  0.00     0.053 A 
HETATM   20  C15 UNK     1      30.163  -8.619  29.185  1.00  0.00     0.036 A 
HETATM   21  C17 UNK     1      29.094  -9.272  28.571  1.00  0.00     0.024 A 
HETATM   22 Cl1  UNK     1      31.693  -8.547  28.399  1.00  0.00    -0.084 Cl
HETATM   23  C16 UNK     1      27.854  -9.331  29.208  1.00  0.00     0.004 A 
HETATM   24  C14 UNK     1      27.684  -8.738  30.458  1.00  0.00     0.029 A 
ENDBRANCH  16  18
ENDBRANCH  13  14
ENDBRANCH  12  13
ENDBRANCH   4  12
BRANCH   6  25
HETATM   25  N2  UNK     1      27.875  -6.339  38.480  1.00  0.00    -0.108 N 
HETATM   26  O4  UNK     1      28.071  -7.116  39.421  1.00  0.00    -0.532 OA
HETATM   27  O5  UNK     1      26.780  -6.082  37.966  1.00  0.00    -0.532 OA
ENDBRANCH   6  25
TORSDOF 5
ENDMDL
