MODEL 1
REMARK VINA RESULT:      -7.4      0.000      0.000
REMARK  11 active torsions:
REMARK  status: ('A' for Active; 'I' for Inactive)
REMARK    1  A    between atoms: C2_9  and  O1_2 
REMARK    2  A    between atoms: C7_14  and  O1_2 
REMARK    3  A    between atoms: C17_24  and  O2_3 
REMARK    4  A    between atoms: C3_10  and  O2_3 
REMARK    5  A    between atoms: C11_18  and  O3_4 
REMARK    6  A    between atoms: C16_23  and  O3_4 
REMARK    7  A    between atoms: C14_21  and  O4_5 
REMARK    8  A    between atoms: C15_22  and  O5_6 
REMARK    9  A    between atoms: C1_8  and  C8_15 
REMARK   10  A    between atoms: C11_18  and  C7_14 
REMARK   11  A    between atoms: C10_17  and  C9_16 
ROOT
HETATM    1  N1  UNK     1      30.154  -2.487  30.765  1.00  0.00    -0.191 NA
HETATM    2  C8  UNK     1      30.435  -5.007  33.102  1.00  0.00     0.035 C 
HETATM    3  C10 UNK     1      30.134  -4.880  31.781  1.00  0.00     0.055 C 
HETATM    4  C26 UNK     1      30.147  -3.551  31.228  1.00  0.00     0.100 C 
ENDROOT
BRANCH   3   5
HETATM    5  C9  UNK     1      29.810  -6.001  30.913  1.00  0.00    -0.013 A 
HETATM    6  C12 UNK     1      30.747  -6.460  29.987  1.00  0.00     0.052 A 
HETATM    7  C14 UNK     1      30.437  -7.535  29.155  1.00  0.00     0.102 A 
HETATM    8  C15 UNK     1      29.189  -8.152  29.249  1.00  0.00     0.101 A 
HETATM    9  C18 UNK     1      28.253  -7.694  30.175  1.00  0.00     0.040 A 
HETATM   10  C13 UNK     1      28.563  -6.619  31.008  1.00  0.00     0.016 A 
BRANCH   7  11
HETATM   11  O4  UNK     1      31.359  -7.973  28.253  1.00  0.00    -0.353 OA
HETATM   12  C27 UNK     1      32.607  -8.427  28.771  1.00  0.00     0.210 C 
ENDBRANCH   7  11
BRANCH   8  13
HETATM   13  O5  UNK     1      28.875  -9.205  28.443  1.00  0.00    -0.353 OA
HETATM   14  C28 UNK     1      29.302 -10.497  28.870  1.00  0.00     0.210 C 
ENDBRANCH   8  13
ENDBRANCH   3   5
BRANCH   2  15
HETATM   15  C1  UNK     1      30.454  -6.268  33.858  1.00  0.00    -0.031 A 
HETATM   16  C4  UNK     1      29.389  -6.593  34.698  1.00  0.00     0.051 A 
HETATM   17  C3  UNK     1      29.408  -7.788  35.417  1.00  0.00     0.104 A 
HETATM   18  C2  UNK     1      30.490  -8.659  35.294  1.00  0.00     0.119 A 
HETATM   19  C6  UNK     1      31.554  -8.335  34.452  1.00  0.00     0.048 A 
HETATM   20 Br1  UNK     1      33.043  -9.494  34.260  1.00  0.00    -0.048 Br
HETATM   21  C5  UNK     1      31.536  -7.140  33.735  1.00  0.00     0.033 A 
BRANCH  17  22
HETATM   22  O2  UNK     1      28.360  -8.092  36.235  1.00  0.00    -0.349 OA
BRANCH  22  23
HETATM   23  C17 UNK     1      27.830  -7.033  37.029  1.00  0.00     0.171 C 
HETATM   24  C24 UNK     1      27.684  -7.513  38.457  1.00  0.00     0.034 C 
ENDBRANCH  22  23
ENDBRANCH  17  22
BRANCH  18  25
HETATM   25  O1  UNK     1      30.488  -9.824  36.005  1.00  0.00    -0.345 OA
BRANCH  25  26
HETATM   26  C7  UNK     1      31.497  -9.976  36.999  1.00  0.00     0.202 C 
BRANCH  26  27
HETATM   27  C11 UNK     1      31.097  -9.192  38.234  1.00  0.00     0.202 C 
BRANCH  27  28
HETATM   28  O3  UNK     1      32.170  -8.334  38.606  1.00  0.00    -0.349 OA
BRANCH  28  29
HETATM   29  C16 UNK     1      32.185  -7.085  38.044  1.00  0.00     0.068 A 
HETATM   30  C20 UNK     1      33.250  -6.699  37.230  1.00  0.00     0.037 A 
HETATM   31  C22 UNK     1      33.265  -5.427  36.657  1.00  0.00     0.009 A 
HETATM   32  C19 UNK     1      32.215  -4.541  36.897  1.00  0.00    -0.062 A 
HETATM   33  C23 UNK     1      31.150  -4.928  37.711  1.00  0.00     0.009 A 
HETATM   34  C25 UNK     1      32.231  -3.182  36.285  1.00  0.00     0.048 C 
HETATM   35  C21 UNK     1      31.135  -6.199  38.285  1.00  0.00     0.037 A 
ENDBRANCH  28  29
ENDBRANCH  27  28
ENDBRANCH  26  27
ENDBRANCH  25  26
ENDBRANCH  18  25
ENDBRANCH   2  15
TORSDOF 11
ENDMDL
MODEL 2
REMARK VINA RESULT:      -7.3      1.342      2.455
REMARK  11 active torsions:
REMARK  status: ('A' for Active; 'I' for Inactive)
REMARK    1  A    between atoms: C2_9  and  O1_2 
REMARK    2  A    between atoms: C7_14  and  O1_2 
REMARK    3  A    between atoms: C17_24  and  O2_3 
REMARK    4  A    between atoms: C3_10  and  O2_3 
REMARK    5  A    between atoms: C11_18  and  O3_4 
REMARK    6  A    between atoms: C16_23  and  O3_4 
REMARK    7  A    between atoms: C14_21  and  O4_5 
REMARK    8  A    between atoms: C15_22  and  O5_6 
REMARK    9  A    between atoms: C1_8  and  C8_15 
REMARK   10  A    between atoms: C11_18  and  C7_14 
REMARK   11  A    between atoms: C10_17  and  C9_16 
ROOT
HETATM    1  N1  UNK     1      30.190  -2.567  30.666  1.00  0.00    -0.191 NA
HETATM    2  C8  UNK     1      30.433  -5.075  33.020  1.00  0.00     0.035 C 
HETATM    3  C10 UNK     1      30.186  -4.958  31.688  1.00  0.00     0.055 C 
HETATM    4  C26 UNK     1      30.190  -3.630  31.131  1.00  0.00     0.100 C 
ENDROOT
BRANCH   3   5
HETATM    5  C9  UNK     1      29.928  -6.089  30.810  1.00  0.00    -0.013 A 
HETATM    6  C12 UNK     1      30.939  -6.574  29.981  1.00  0.00     0.052 A 
HETATM    7  C14 UNK     1      30.691  -7.658  29.140  1.00  0.00     0.102 A 
HETATM    8  C15 UNK     1      29.432  -8.258  29.127  1.00  0.00     0.101 A 
HETATM    9  C18 UNK     1      28.420  -7.773  29.956  1.00  0.00     0.040 A 
HETATM   10  C13 UNK     1      28.668  -6.689  30.798  1.00  0.00     0.016 A 
BRANCH   7  11
HETATM   11  O4  UNK     1      31.686  -8.122  28.333  1.00  0.00    -0.353 OA
HETATM   12  C27 UNK     1      32.982  -8.251  28.912  1.00  0.00     0.210 C 
ENDBRANCH   7  11
BRANCH   8  13
HETATM   13  O5  UNK     1      29.178  -9.319  28.311  1.00  0.00    -0.353 OA
HETATM   14  C28 UNK     1      27.931  -9.988  28.487  1.00  0.00     0.210 C 
ENDBRANCH   8  13
ENDBRANCH   3   5
BRANCH   2  15
HETATM   15  C1  UNK     1      30.450  -6.333  33.780  1.00  0.00    -0.031 A 
HETATM   16  C4  UNK     1      31.590  -7.137  33.772  1.00  0.00     0.051 A 
HETATM   17  C3  UNK     1      31.606  -8.331  34.493  1.00  0.00     0.104 A 
HETATM   18  C2  UNK     1      30.483  -8.721  35.223  1.00  0.00     0.119 A 
HETATM   19  C6  UNK     1      29.344  -7.916  35.233  1.00  0.00     0.048 A 
HETATM   20 Br1  UNK     1      27.799  -8.414  36.213  1.00  0.00    -0.048 Br
HETATM   21  C5  UNK     1      29.327  -6.723  34.512  1.00  0.00     0.033 A 
BRANCH  17  22
HETATM   22  O2  UNK     1      32.727  -9.107  34.475  1.00  0.00    -0.349 OA
BRANCH  22  23
HETATM   23  C17 UNK     1      33.954  -8.464  34.136  1.00  0.00     0.171 C 
HETATM   24  C24 UNK     1      34.835  -9.443  33.392  1.00  0.00     0.034 C 
ENDBRANCH  22  23
ENDBRANCH  17  22
BRANCH  18  25
HETATM   25  O1  UNK     1      30.521  -9.892  35.922  1.00  0.00    -0.345 OA
BRANCH  25  26
HETATM   26  C7  UNK     1      31.522 -10.012  36.929  1.00  0.00     0.202 C 
BRANCH  26  27
HETATM   27  C11 UNK     1      31.037  -9.330  38.193  1.00  0.00     0.202 C 
BRANCH  27  28
HETATM   28  O3  UNK     1      32.047  -8.442  38.658  1.00  0.00    -0.349 OA
BRANCH  28  29
HETATM   29  C16 UNK     1      32.095  -7.203  38.075  1.00  0.00     0.068 A 
HETATM   30  C20 UNK     1      33.255  -6.783  37.424  1.00  0.00     0.037 A 
HETATM   31  C22 UNK     1      33.304  -5.523  36.831  1.00  0.00     0.009 A 
HETATM   32  C19 UNK     1      32.194  -4.681  36.888  1.00  0.00    -0.062 A 
HETATM   33  C23 UNK     1      31.034  -5.101  37.540  1.00  0.00     0.009 A 
HETATM   34  C25 UNK     1      32.246  -3.332  36.254  1.00  0.00     0.048 C 
HETATM   35  C21 UNK     1      30.985  -6.361  38.134  1.00  0.00     0.037 A 
ENDBRANCH  28  29
ENDBRANCH  27  28
ENDBRANCH  26  27
ENDBRANCH  25  26
ENDBRANCH  18  25
ENDBRANCH   2  15
TORSDOF 11
ENDMDL
MODEL 3
REMARK VINA RESULT:      -7.3      1.475      3.030
REMARK  11 active torsions:
REMARK  status: ('A' for Active; 'I' for Inactive)
REMARK    1  A    between atoms: C2_9  and  O1_2 
REMARK    2  A    between atoms: C7_14  and  O1_2 
REMARK    3  A    between atoms: C17_24  and  O2_3 
REMARK    4  A    between atoms: C3_10  and  O2_3 
REMARK    5  A    between atoms: C11_18  and  O3_4 
REMARK    6  A    between atoms: C16_23  and  O3_4 
REMARK    7  A    between atoms: C14_21  and  O4_5 
REMARK    8  A    between atoms: C15_22  and  O5_6 
REMARK    9  A    between atoms: C1_8  and  C8_15 
REMARK   10  A    between atoms: C11_18  and  C7_14 
REMARK   11  A    between atoms: C10_17  and  C9_16 
ROOT
HETATM    1  N1  UNK     1      30.254  -2.332  30.938  1.00  0.00    -0.191 NA
HETATM    2  C8  UNK     1      30.608  -4.908  33.203  1.00  0.00     0.035 C 
HETATM    3  C10 UNK     1      30.275  -4.750  31.894  1.00  0.00     0.055 C 
HETATM    4  C26 UNK     1      30.266  -3.408  31.374  1.00  0.00     0.100 C 
ENDROOT
BRANCH   3   5
HETATM    5  C9  UNK     1      29.938  -5.851  31.006  1.00  0.00    -0.013 A 
HETATM    6  C12 UNK     1      28.615  -6.278  30.894  1.00  0.00     0.052 A 
HETATM    7  C14 UNK     1      28.292  -7.334  30.042  1.00  0.00     0.102 A 
HETATM    8  C15 UNK     1      29.293  -7.964  29.301  1.00  0.00     0.101 A 
HETATM    9  C18 UNK     1      30.616  -7.537  29.414  1.00  0.00     0.040 A 
HETATM   10  C13 UNK     1      30.939  -6.481  30.265  1.00  0.00     0.016 A 
BRANCH   7  11
HETATM   11  O4  UNK     1      26.997  -7.743  29.942  1.00  0.00    -0.353 OA
HETATM   12  C27 UNK     1      25.988  -6.773  30.215  1.00  0.00     0.210 C 
ENDBRANCH   7  11
BRANCH   8  13
HETATM   13  O5  UNK     1      28.990  -8.995  28.464  1.00  0.00    -0.353 OA
HETATM   14  C28 UNK     1      30.076  -9.798  28.007  1.00  0.00     0.210 C 
ENDBRANCH   8  13
ENDBRANCH   3   5
BRANCH   2  15
HETATM   15  C1  UNK     1      30.653  -6.186  33.927  1.00  0.00    -0.031 A 
HETATM   16  C4  UNK     1      31.832  -6.930  33.956  1.00  0.00     0.051 A 
HETATM   17  C3  UNK     1      31.876  -8.143  34.642  1.00  0.00     0.104 A 
HETATM   18  C2  UNK     1      30.739  -8.613  35.301  1.00  0.00     0.119 A 
HETATM   19  C6  UNK     1      29.560  -7.869  35.274  1.00  0.00     0.048 A 
HETATM   20 Br1  UNK     1      27.996  -8.475  36.157  1.00  0.00    -0.048 Br
HETATM   21  C5  UNK     1      29.517  -6.656  34.587  1.00  0.00     0.033 A 
BRANCH  17  22
HETATM   22  O2  UNK     1      33.035  -8.860  34.660  1.00  0.00    -0.349 OA
BRANCH  22  23
HETATM   23  C17 UNK     1      34.066  -8.447  33.765  1.00  0.00     0.171 C 
HETATM   24  C24 UNK     1      35.193  -7.827  34.561  1.00  0.00     0.034 C 
ENDBRANCH  22  23
ENDBRANCH  17  22
BRANCH  18  25
HETATM   25  O1  UNK     1      30.803  -9.802  35.967  1.00  0.00    -0.345 OA
BRANCH  25  26
HETATM   26  C7  UNK     1      31.689  -9.872  37.081  1.00  0.00     0.202 C 
BRANCH  26  27
HETATM   27  C11 UNK     1      31.113  -9.059  38.224  1.00  0.00     0.202 C 
BRANCH  27  28
HETATM   28  O3  UNK     1      32.100  -8.146  38.687  1.00  0.00    -0.349 OA
BRANCH  28  29
HETATM   29  C16 UNK     1      32.109  -6.902  38.112  1.00  0.00     0.068 A 
HETATM   30  C20 UNK     1      30.969  -6.099  38.169  1.00  0.00     0.037 A 
HETATM   31  C22 UNK     1      30.978  -4.833  37.584  1.00  0.00     0.009 A 
HETATM   32  C19 UNK     1      32.126  -4.370  36.942  1.00  0.00    -0.062 A 
HETATM   33  C23 UNK     1      33.266  -5.174  36.884  1.00  0.00     0.009 A 
HETATM   34  C25 UNK     1      32.136  -3.016  36.315  1.00  0.00     0.048 C 
HETATM   35  C21 UNK     1      33.257  -6.439  37.469  1.00  0.00     0.037 A 
ENDBRANCH  28  29
ENDBRANCH  27  28
ENDBRANCH  26  27
ENDBRANCH  25  26
ENDBRANCH  18  25
ENDBRANCH   2  15
TORSDOF 11
ENDMDL
MODEL 4
REMARK VINA RESULT:      -7.2      2.606      7.029
REMARK  11 active torsions:
REMARK  status: ('A' for Active; 'I' for Inactive)
REMARK    1  A    between atoms: C2_9  and  O1_2 
REMARK    2  A    between atoms: C7_14  and  O1_2 
REMARK    3  A    between atoms: C17_24  and  O2_3 
REMARK    4  A    between atoms: C3_10  and  O2_3 
REMARK    5  A    between atoms: C11_18  and  O3_4 
REMARK    6  A    between atoms: C16_23  and  O3_4 
REMARK    7  A    between atoms: C14_21  and  O4_5 
REMARK    8  A    between atoms: C15_22  and  O5_6 
REMARK    9  A    between atoms: C1_8  and  C8_15 
REMARK   10  A    between atoms: C11_18  and  C7_14 
REMARK   11  A    between atoms: C10_17  and  C9_16 
ROOT
HETATM    1  N1  UNK     1      29.443  -3.538  39.965  1.00  0.00    -0.191 NA
HETATM    2  C8  UNK     1      31.159  -4.535  37.145  1.00  0.00     0.035 C 
HETATM    3  C10 UNK     1      30.179  -5.017  37.957  1.00  0.00     0.055 C 
HETATM    4  C26 UNK     1      29.779  -4.192  39.066  1.00  0.00     0.100 C 
ENDROOT
BRANCH   3   5
HETATM    5  C9  UNK     1      29.523  -6.300  37.761  1.00  0.00    -0.013 A 
HETATM    6  C12 UNK     1      30.099  -7.463  38.272  1.00  0.00     0.052 A 
HETATM    7  C14 UNK     1      29.470  -8.693  38.084  1.00  0.00     0.102 A 
HETATM    8  C15 UNK     1      28.264  -8.761  37.386  1.00  0.00     0.101 A 
HETATM    9  C18 UNK     1      27.688  -7.598  36.875  1.00  0.00     0.040 A 
HETATM   10  C13 UNK     1      28.317  -6.367  37.063  1.00  0.00     0.016 A 
BRANCH   7  11
HETATM   11  O4  UNK     1      30.042  -9.823  38.586  1.00  0.00    -0.353 OA
HETATM   12  C27 UNK     1      31.235 -10.281  37.953  1.00  0.00     0.210 C 
ENDBRANCH   7  11
BRANCH   8  13
HETATM   13  O5  UNK     1      27.638  -9.956  37.198  1.00  0.00    -0.353 OA
HETATM   14  C28 UNK     1      26.329  -9.921  36.633  1.00  0.00     0.210 C 
ENDBRANCH   8  13
ENDBRANCH   3   5
BRANCH   2  15
HETATM   15  C1  UNK     1      31.723  -5.230  35.979  1.00  0.00    -0.031 A 
HETATM   16  C4  UNK     1      30.983  -5.328  34.801  1.00  0.00     0.051 A 
HETATM   17  C3  UNK     1      31.518  -5.988  33.694  1.00  0.00     0.104 A 
HETATM   18  C2  UNK     1      32.793  -6.549  33.766  1.00  0.00     0.119 A 
HETATM   19  C6  UNK     1      33.533  -6.450  34.943  1.00  0.00     0.048 A 
HETATM   20 Br1  UNK     1      35.269  -7.201  35.078  1.00  0.00    -0.048 Br
HETATM   21  C5  UNK     1      32.999  -5.791  36.050  1.00  0.00     0.033 A 
BRANCH  17  22
HETATM   22  O2  UNK     1      30.783  -6.076  32.550  1.00  0.00    -0.349 OA
BRANCH  22  23
HETATM   23  C17 UNK     1      29.689  -5.171  32.410  1.00  0.00     0.171 C 
HETATM   24  C24 UNK     1      29.828  -4.428  31.100  1.00  0.00     0.034 C 
ENDBRANCH  22  23
ENDBRANCH  17  22
BRANCH  18  25
HETATM   25  O1  UNK     1      33.297  -7.189  32.672  1.00  0.00    -0.345 OA
BRANCH  25  26
HETATM   26  C7  UNK     1      32.980  -8.571  32.528  1.00  0.00     0.202 C 
BRANCH  26  27
HETATM   27  C11 UNK     1      32.681  -8.862  31.070  1.00  0.00     0.202 C 
BRANCH  27  28
HETATM   28  O3  UNK     1      31.518  -9.677  30.988  1.00  0.00    -0.349 OA
BRANCH  28  29
HETATM   29  C16 UNK     1      30.321  -9.030  30.828  1.00  0.00     0.068 A 
HETATM   30  C20 UNK     1      29.319  -9.170  31.789  1.00  0.00     0.037 A 
HETATM   31  C22 UNK     1      28.101  -8.511  31.627  1.00  0.00     0.009 A 
HETATM   32  C19 UNK     1      27.884  -7.712  30.504  1.00  0.00    -0.062 A 
HETATM   33  C23 UNK     1      28.886  -7.573  29.543  1.00  0.00     0.009 A 
HETATM   34  C25 UNK     1      26.581  -7.008  30.330  1.00  0.00     0.048 C 
HETATM   35  C21 UNK     1      30.104  -8.232  29.705  1.00  0.00     0.037 A 
ENDBRANCH  28  29
ENDBRANCH  27  28
ENDBRANCH  26  27
ENDBRANCH  25  26
ENDBRANCH  18  25
ENDBRANCH   2  15
TORSDOF 11
ENDMDL
MODEL 5
REMARK VINA RESULT:      -7.1      2.064      3.235
REMARK  11 active torsions:
REMARK  status: ('A' for Active; 'I' for Inactive)
REMARK    1  A    between atoms: C2_9  and  O1_2 
REMARK    2  A    between atoms: C7_14  and  O1_2 
REMARK    3  A    between atoms: C17_24  and  O2_3 
REMARK    4  A    between atoms: C3_10  and  O2_3 
REMARK    5  A    between atoms: C11_18  and  O3_4 
REMARK    6  A    between atoms: C16_23  and  O3_4 
REMARK    7  A    between atoms: C14_21  and  O4_5 
REMARK    8  A    between atoms: C15_22  and  O5_6 
REMARK    9  A    between atoms: C1_8  and  C8_15 
REMARK   10  A    between atoms: C11_18  and  C7_14 
REMARK   11  A    between atoms: C10_17  and  C9_16 
ROOT
HETATM    1  N1  UNK     1      35.598  -6.577  29.648  1.00  0.00    -0.191 NA
HETATM    2  C8  UNK     1      33.376  -7.104  32.231  1.00  0.00     0.035 C 
HETATM    3  C10 UNK     1      33.446  -7.339  30.894  1.00  0.00     0.055 C 
HETATM    4  C26 UNK     1      34.641  -6.913  30.213  1.00  0.00     0.100 C 
ENDROOT
BRANCH   3   5
HETATM    5  C9  UNK     1      32.395  -7.992  30.129  1.00  0.00    -0.013 A 
HETATM    6  C12 UNK     1      32.358  -9.383  30.042  1.00  0.00     0.052 A 
HETATM    7  C14 UNK     1      31.350 -10.009  29.310  1.00  0.00     0.102 A 
HETATM    8  C15 UNK     1      30.378  -9.243  28.665  1.00  0.00     0.101 A 
HETATM    9  C18 UNK     1      30.415  -7.852  28.752  1.00  0.00     0.040 A 
HETATM   10  C13 UNK     1      31.423  -7.226  29.485  1.00  0.00     0.016 A 
BRANCH   7  11
HETATM   11  O4  UNK     1      31.324 -11.369  29.230  1.00  0.00    -0.353 OA
HETATM   12  C27 UNK     1      30.877 -12.077  30.383  1.00  0.00     0.210 C 
ENDBRANCH   7  11
BRANCH   8  13
HETATM   13  O5  UNK     1      29.386  -9.843  27.948  1.00  0.00    -0.353 OA
HETATM   14  C28 UNK     1      28.110  -9.954  28.575  1.00  0.00     0.210 C 
ENDBRANCH   8  13
ENDBRANCH   3   5
BRANCH   2  15
HETATM   15  C1  UNK     1      32.238  -7.439  33.101  1.00  0.00    -0.031 A 
HETATM   16  C4  UNK     1      31.073  -6.676  33.048  1.00  0.00     0.051 A 
HETATM   17  C3  UNK     1      29.994  -6.993  33.873  1.00  0.00     0.104 A 
HETATM   18  C2  UNK     1      30.081  -8.074  34.750  1.00  0.00     0.119 A 
HETATM   19  C6  UNK     1      31.246  -8.838  34.802  1.00  0.00     0.048 A 
HETATM   20 Br1  UNK     1      31.401 -10.315  35.982  1.00  0.00    -0.048 Br
HETATM   21  C5  UNK     1      32.325  -8.521  33.978  1.00  0.00     0.033 A 
BRANCH  17  22
HETATM   22  O2  UNK     1      28.861  -6.237  33.812  1.00  0.00    -0.349 OA
BRANCH  22  23
HETATM   23  C17 UNK     1      28.541  -5.651  32.552  1.00  0.00     0.171 C 
HETATM   24  C24 UNK     1      27.629  -6.587  31.789  1.00  0.00     0.034 C 
ENDBRANCH  22  23
ENDBRANCH  17  22
BRANCH  18  25
HETATM   25  O1  UNK     1      29.013  -8.368  35.548  1.00  0.00    -0.345 OA
BRANCH  25  26
HETATM   26  C7  UNK     1      28.663  -7.405  36.539  1.00  0.00     0.202 C 
BRANCH  26  27
HETATM   27  C11 UNK     1      29.411  -7.719  37.821  1.00  0.00     0.202 C 
BRANCH  27  28
HETATM   28  O3  UNK     1      30.158  -6.574  38.215  1.00  0.00    -0.349 OA
BRANCH  28  29
HETATM   29  C16 UNK     1      31.389  -6.412  37.636  1.00  0.00     0.068 A 
HETATM   30  C20 UNK     1      32.425  -7.295  37.941  1.00  0.00     0.037 A 
HETATM   31  C22 UNK     1      33.678  -7.130  37.352  1.00  0.00     0.009 A 
HETATM   32  C19 UNK     1      33.896  -6.082  36.458  1.00  0.00    -0.062 A 
HETATM   33  C23 UNK     1      32.860  -5.198  36.154  1.00  0.00     0.009 A 
HETATM   34  C25 UNK     1      35.237  -5.905  35.828  1.00  0.00     0.048 C 
HETATM   35  C21 UNK     1      31.607  -5.363  36.743  1.00  0.00     0.037 A 
ENDBRANCH  28  29
ENDBRANCH  27  28
ENDBRANCH  26  27
ENDBRANCH  25  26
ENDBRANCH  18  25
ENDBRANCH   2  15
TORSDOF 11
ENDMDL
MODEL 6
REMARK VINA RESULT:      -7.1      2.493      7.457
REMARK  11 active torsions:
REMARK  status: ('A' for Active; 'I' for Inactive)
REMARK    1  A    between atoms: C2_9  and  O1_2 
REMARK    2  A    between atoms: C7_14  and  O1_2 
REMARK    3  A    between atoms: C17_24  and  O2_3 
REMARK    4  A    between atoms: C3_10  and  O2_3 
REMARK    5  A    between atoms: C11_18  and  O3_4 
REMARK    6  A    between atoms: C16_23  and  O3_4 
REMARK    7  A    between atoms: C14_21  and  O4_5 
REMARK    8  A    between atoms: C15_22  and  O5_6 
REMARK    9  A    between atoms: C1_8  and  C8_15 
REMARK   10  A    between atoms: C11_18  and  C7_14 
REMARK   11  A    between atoms: C10_17  and  C9_16 
ROOT
HETATM    1  N1  UNK     1      35.368  -5.505  36.620  1.00  0.00    -0.191 NA
HETATM    2  C8  UNK     1      32.836  -6.285  34.413  1.00  0.00     0.035 C 
HETATM    3  C10 UNK     1      32.963  -5.887  35.708  1.00  0.00     0.055 C 
HETATM    4  C26 UNK     1      34.299  -5.678  36.204  1.00  0.00     0.100 C 
ENDROOT
BRANCH   3   5
HETATM    5  C9  UNK     1      31.837  -5.661  36.600  1.00  0.00    -0.013 A 
HETATM    6  C12 UNK     1      31.240  -6.737  37.257  1.00  0.00     0.052 A 
HETATM    7  C14 UNK     1      30.161  -6.519  38.112  1.00  0.00     0.102 A 
HETATM    8  C15 UNK     1      29.678  -5.226  38.311  1.00  0.00     0.101 A 
HETATM    9  C18 UNK     1      30.275  -4.150  37.655  1.00  0.00     0.040 A 
HETATM   10  C13 UNK     1      31.355  -4.367  36.799  1.00  0.00     0.016 A 
BRANCH   7  11
HETATM   11  O4  UNK     1      29.584  -7.578  38.747  1.00  0.00    -0.353 OA
HETATM   12  C27 UNK     1      28.975  -8.572  37.926  1.00  0.00     0.210 C 
ENDBRANCH   7  11
BRANCH   8  13
HETATM   13  O5  UNK     1      28.625  -5.000  39.147  1.00  0.00    -0.353 OA
HETATM   14  C28 UNK     1      27.318  -5.173  38.603  1.00  0.00     0.210 C 
ENDBRANCH   8  13
ENDBRANCH   3   5
BRANCH   2  15
HETATM   15  C1  UNK     1      31.568  -6.573  33.727  1.00  0.00    -0.031 A 
HETATM   16  C4  UNK     1      30.938  -5.577  32.981  1.00  0.00     0.051 A 
HETATM   17  C3  UNK     1      29.735  -5.850  32.330  1.00  0.00     0.104 A 
HETATM   18  C2  UNK     1      29.163  -7.118  32.424  1.00  0.00     0.119 A 
HETATM   19  C6  UNK     1      29.794  -8.114  33.169  1.00  0.00     0.048 A 
HETATM   20 Br1  UNK     1      29.045  -9.850  33.321  1.00  0.00    -0.048 Br
HETATM   21  C5  UNK     1      30.996  -7.842  33.821  1.00  0.00     0.033 A 
BRANCH  17  22
HETATM   22  O2  UNK     1      29.130  -4.867  31.605  1.00  0.00    -0.349 OA
BRANCH  22  23
HETATM   23  C17 UNK     1      29.953  -4.124  30.707  1.00  0.00     0.171 C 
HETATM   24  C24 UNK     1      29.956  -2.671  31.128  1.00  0.00     0.034 C 
ENDBRANCH  22  23
ENDBRANCH  17  22
BRANCH  18  25
HETATM   25  O1  UNK     1      27.986  -7.364  31.779  1.00  0.00    -0.345 OA
BRANCH  25  26
HETATM   26  C7  UNK     1      28.004  -7.302  30.356  1.00  0.00     0.202 C 
BRANCH  26  27
HETATM   27  C11 UNK     1      28.340  -8.674  29.804  1.00  0.00     0.202 C 
BRANCH  27  28
HETATM   28  O3  UNK     1      29.413  -8.552  28.878  1.00  0.00    -0.349 OA
BRANCH  28  29
HETATM   29  C16 UNK     1      30.655  -8.306  29.401  1.00  0.00     0.068 A 
HETATM   30  C20 UNK     1      31.297  -7.096  29.135  1.00  0.00     0.037 A 
HETATM   31  C22 UNK     1      32.561  -6.846  29.668  1.00  0.00     0.009 A 
HETATM   32  C19 UNK     1      33.184  -7.805  30.466  1.00  0.00    -0.062 A 
HETATM   33  C23 UNK     1      32.542  -9.016  30.731  1.00  0.00     0.009 A 
HETATM   34  C25 UNK     1      34.536  -7.538  31.036  1.00  0.00     0.048 C 
HETATM   35  C21 UNK     1      31.278  -9.266  30.198  1.00  0.00     0.037 A 
ENDBRANCH  28  29
ENDBRANCH  27  28
ENDBRANCH  26  27
ENDBRANCH  25  26
ENDBRANCH  18  25
ENDBRANCH   2  15
TORSDOF 11
ENDMDL
MODEL 7
REMARK VINA RESULT:      -7.0      2.670      7.463
REMARK  11 active torsions:
REMARK  status: ('A' for Active; 'I' for Inactive)
REMARK    1  A    between atoms: C2_9  and  O1_2 
REMARK    2  A    between atoms: C7_14  and  O1_2 
REMARK    3  A    between atoms: C17_24  and  O2_3 
REMARK    4  A    between atoms: C3_10  and  O2_3 
REMARK    5  A    between atoms: C11_18  and  O3_4 
REMARK    6  A    between atoms: C16_23  and  O3_4 
REMARK    7  A    between atoms: C14_21  and  O4_5 
REMARK    8  A    between atoms: C15_22  and  O5_6 
REMARK    9  A    between atoms: C1_8  and  C8_15 
REMARK   10  A    between atoms: C11_18  and  C7_14 
REMARK   11  A    between atoms: C10_17  and  C9_16 
ROOT
HETATM    1  N1  UNK     1      37.076  -7.351  34.617  1.00  0.00    -0.191 NA
HETATM    2  C8  UNK     1      34.054  -8.170  33.173  1.00  0.00     0.035 C 
HETATM    3  C10 UNK     1      34.513  -7.716  34.370  1.00  0.00     0.055 C 
HETATM    4  C26 UNK     1      35.933  -7.518  34.497  1.00  0.00     0.100 C 
ENDROOT
BRANCH   3   5
HETATM    5  C9  UNK     1      33.656  -7.420  35.507  1.00  0.00    -0.013 A 
HETATM    6  C12 UNK     1      33.476  -6.100  35.920  1.00  0.00     0.052 A 
HETATM    7  C14 UNK     1      32.654  -5.817  37.010  1.00  0.00     0.102 A 
HETATM    8  C15 UNK     1      32.011  -6.854  37.687  1.00  0.00     0.101 A 
HETATM    9  C18 UNK     1      32.190  -8.173  37.274  1.00  0.00     0.040 A 
HETATM   10  C13 UNK     1      33.012  -8.457  36.183  1.00  0.00     0.016 A 
BRANCH   7  11
HETATM   11  O4  UNK     1      32.487  -4.524  37.406  1.00  0.00    -0.353 OA
HETATM   12  C27 UNK     1      32.103  -3.584  36.406  1.00  0.00     0.210 C 
ENDBRANCH   7  11
BRANCH   8  13
HETATM   13  O5  UNK     1      31.203  -6.589  38.752  1.00  0.00    -0.353 OA
HETATM   14  C28 UNK     1      29.798  -6.555  38.507  1.00  0.00     0.210 C 
ENDBRANCH   8  13
ENDBRANCH   3   5
BRANCH   2  15
HETATM   15  C1  UNK     1      32.649  -8.458  32.848  1.00  0.00    -0.031 A 
HETATM   16  C4  UNK     1      31.738  -7.412  32.704  1.00  0.00     0.051 A 
HETATM   17  C3  UNK     1      30.406  -7.685  32.397  1.00  0.00     0.104 A 
HETATM   18  C2  UNK     1      29.983  -9.004  32.233  1.00  0.00     0.119 A 
HETATM   19  C6  UNK     1      30.894 -10.051  32.376  1.00  0.00     0.048 A 
HETATM   20 Br1  UNK     1      30.357 -11.857  32.162  1.00  0.00    -0.048 Br
HETATM   21  C5  UNK     1      32.226  -9.778  32.684  1.00  0.00     0.033 A 
BRANCH  17  22
HETATM   22  O2  UNK     1      29.527  -6.652  32.259  1.00  0.00    -0.349 OA
BRANCH  22  23
HETATM   23  C17 UNK     1      30.023  -5.340  32.517  1.00  0.00     0.171 C 
HETATM   24  C24 UNK     1      29.730  -4.458  31.323  1.00  0.00     0.034 C 
ENDBRANCH  22  23
ENDBRANCH  17  22
BRANCH  18  25
HETATM   25  O1  UNK     1      28.675  -9.250  31.932  1.00  0.00    -0.345 OA
BRANCH  25  26
HETATM   26  C7  UNK     1      28.195  -8.753  30.686  1.00  0.00     0.202 C 
BRANCH  26  27
HETATM   27  C11 UNK     1      28.751  -9.609  29.564  1.00  0.00     0.202 C 
BRANCH  27  28
HETATM   28  O3  UNK     1      29.334  -8.763  28.580  1.00  0.00    -0.349 OA
BRANCH  28  29
HETATM   29  C16 UNK     1      30.617  -8.339  28.812  1.00  0.00     0.068 A 
HETATM   30  C20 UNK     1      30.888  -6.978  28.952  1.00  0.00     0.037 A 
HETATM   31  C22 UNK     1      32.193  -6.548  29.189  1.00  0.00     0.009 A 
HETATM   32  C19 UNK     1      33.228  -7.478  29.284  1.00  0.00    -0.062 A 
HETATM   33  C23 UNK     1      32.957  -8.839  29.142  1.00  0.00     0.009 A 
HETATM   34  C25 UNK     1      34.624  -7.018  29.536  1.00  0.00     0.048 C 
HETATM   35  C21 UNK     1      31.652  -9.270  28.906  1.00  0.00     0.037 A 
ENDBRANCH  28  29
ENDBRANCH  27  28
ENDBRANCH  26  27
ENDBRANCH  25  26
ENDBRANCH  18  25
ENDBRANCH   2  15
TORSDOF 11
ENDMDL
MODEL 8
REMARK VINA RESULT:      -7.0      3.188      8.353
REMARK  11 active torsions:
REMARK  status: ('A' for Active; 'I' for Inactive)
REMARK    1  A    between atoms: C2_9  and  O1_2 
REMARK    2  A    between atoms: C7_14  and  O1_2 
REMARK    3  A    between atoms: C17_24  and  O2_3 
REMARK    4  A    between atoms: C3_10  and  O2_3 
REMARK    5  A    between atoms: C11_18  and  O3_4 
REMARK    6  A    between atoms: C16_23  and  O3_4 
REMARK    7  A    between atoms: C14_21  and  O4_5 
REMARK    8  A    between atoms: C15_22  and  O5_6 
REMARK    9  A    between atoms: C1_8  and  C8_15 
REMARK   10  A    between atoms: C11_18  and  C7_14 
REMARK   11  A    between atoms: C10_17  and  C9_16 
ROOT
HETATM    1  N1  UNK     1      30.218 -11.685  41.043  1.00  0.00    -0.191 NA
HETATM    2  C8  UNK     1      30.907 -10.058  38.082  1.00  0.00     0.035 C 
HETATM    3  C10 UNK     1      29.906 -10.105  39.002  1.00  0.00     0.055 C 
HETATM    4  C26 UNK     1      30.088 -10.983  40.128  1.00  0.00     0.100 C 
ENDROOT
BRANCH   3   5
HETATM    5  C9  UNK     1      28.684  -9.321  38.910  1.00  0.00    -0.013 A 
HETATM    6  C12 UNK     1      28.738  -7.931  39.005  1.00  0.00     0.052 A 
HETATM    7  C14 UNK     1      27.566  -7.180  38.917  1.00  0.00     0.102 A 
HETATM    8  C15 UNK     1      26.340  -7.819  38.732  1.00  0.00     0.101 A 
HETATM    9  C18 UNK     1      26.286  -9.210  38.637  1.00  0.00     0.040 A 
HETATM   10  C13 UNK     1      27.458  -9.961  38.725  1.00  0.00     0.016 A 
BRANCH   7  11
HETATM   11  O4  UNK     1      27.630  -5.823  39.013  1.00  0.00    -0.353 OA
HETATM   12  C27 UNK     1      28.930  -5.237  39.061  1.00  0.00     0.210 C 
ENDBRANCH   7  11
BRANCH   8  13
HETATM   13  O5  UNK     1      25.189  -7.097  38.642  1.00  0.00    -0.353 OA
HETATM   14  C28 UNK     1      23.963  -7.807  38.809  1.00  0.00     0.210 C 
ENDBRANCH   8  13
ENDBRANCH   3   5
BRANCH   2  15
HETATM   15  C1  UNK     1      30.905  -9.247  36.856  1.00  0.00    -0.031 A 
HETATM   16  C4  UNK     1      31.623  -8.053  36.808  1.00  0.00     0.051 A 
HETATM   17  C3  UNK     1      31.621  -7.283  35.645  1.00  0.00     0.104 A 
HETATM   18  C2  UNK     1      30.901  -7.709  34.529  1.00  0.00     0.119 A 
HETATM   19  C6  UNK     1      30.183  -8.904  34.575  1.00  0.00     0.048 A 
HETATM   20 Br1  UNK     1      29.193  -9.513  33.078  1.00  0.00    -0.048 Br
HETATM   21  C5  UNK     1      30.185  -9.673  35.738  1.00  0.00     0.033 A 
BRANCH  17  22
HETATM   22  O2  UNK     1      32.328  -6.118  35.614  1.00  0.00    -0.349 OA
BRANCH  22  23
HETATM   23  C17 UNK     1      32.178  -5.239  36.727  1.00  0.00     0.171 C 
HETATM   24  C24 UNK     1      32.191  -3.810  36.233  1.00  0.00     0.034 C 
ENDBRANCH  22  23
ENDBRANCH  17  22
BRANCH  18  25
HETATM   25  O1  UNK     1      30.913  -6.941  33.400  1.00  0.00    -0.345 OA
BRANCH  25  26
HETATM   26  C7  UNK     1      29.905  -5.940  33.289  1.00  0.00     0.202 C 
BRANCH  26  27
HETATM   27  C11 UNK     1      30.030  -5.259  31.941  1.00  0.00     0.202 C 
BRANCH  27  28
HETATM   28  O3  UNK     1      28.827  -5.457  31.207  1.00  0.00    -0.349 OA
BRANCH  28  29
HETATM   29  C16 UNK     1      28.716  -6.631  30.510  1.00  0.00     0.068 A 
HETATM   30  C20 UNK     1      27.533  -7.367  30.567  1.00  0.00     0.037 A 
HETATM   31  C22 UNK     1      27.419  -8.562  29.857  1.00  0.00     0.009 A 
HETATM   32  C19 UNK     1      28.489  -9.022  29.089  1.00  0.00    -0.062 A 
HETATM   33  C23 UNK     1      29.673  -8.285  29.032  1.00  0.00     0.009 A 
HETATM   34  C25 UNK     1      28.369 -10.299  28.330  1.00  0.00     0.048 C 
HETATM   35  C21 UNK     1      29.787  -7.091  29.742  1.00  0.00     0.037 A 
ENDBRANCH  28  29
ENDBRANCH  27  28
ENDBRANCH  26  27
ENDBRANCH  25  26
ENDBRANCH  18  25
ENDBRANCH   2  15
TORSDOF 11
ENDMDL
MODEL 9
REMARK VINA RESULT:      -6.9      2.515      6.529
REMARK  11 active torsions:
REMARK  status: ('A' for Active; 'I' for Inactive)
REMARK    1  A    between atoms: C2_9  and  O1_2 
REMARK    2  A    between atoms: C7_14  and  O1_2 
REMARK    3  A    between atoms: C17_24  and  O2_3 
REMARK    4  A    between atoms: C3_10  and  O2_3 
REMARK    5  A    between atoms: C11_18  and  O3_4 
REMARK    6  A    between atoms: C16_23  and  O3_4 
REMARK    7  A    between atoms: C14_21  and  O4_5 
REMARK    8  A    between atoms: C15_22  and  O5_6 
REMARK    9  A    between atoms: C1_8  and  C8_15 
REMARK   10  A    between atoms: C11_18  and  C7_14 
REMARK   11  A    between atoms: C10_17  and  C9_16 
ROOT
HETATM    1  N1  UNK     1      29.956  -1.902  31.215  1.00  0.00    -0.191 NA
HETATM    2  C8  UNK     1      30.525  -5.010  29.834  1.00  0.00     0.035 C 
HETATM    3  C10 UNK     1      30.107  -4.490  31.019  1.00  0.00     0.055 C 
HETATM    4  C26 UNK     1      30.027  -3.056  31.118  1.00  0.00     0.100 C 
ENDROOT
BRANCH   3   5
HETATM    5  C9  UNK     1      29.738  -5.297  32.171  1.00  0.00    -0.013 A 
HETATM    6  C12 UNK     1      30.706  -5.660  33.108  1.00  0.00     0.052 A 
HETATM    7  C14 UNK     1      30.351  -6.433  34.213  1.00  0.00     0.102 A 
HETATM    8  C15 UNK     1      29.029  -6.845  34.382  1.00  0.00     0.101 A 
HETATM    9  C18 UNK     1      28.061  -6.482  33.445  1.00  0.00     0.040 A 
HETATM   10  C13 UNK     1      28.415  -5.708  32.340  1.00  0.00     0.016 A 
BRANCH   7  11
HETATM   11  O4  UNK     1      31.305  -6.784  35.120  1.00  0.00    -0.353 OA
HETATM   12  C27 UNK     1      31.674  -5.800  36.085  1.00  0.00     0.210 C 
ENDBRANCH   7  11
BRANCH   8  13
HETATM   13  O5  UNK     1      28.670  -7.598  35.458  1.00  0.00    -0.353 OA
HETATM   14  C28 UNK     1      27.943  -6.942  36.495  1.00  0.00     0.210 C 
ENDBRANCH   8  13
ENDBRANCH   3   5
BRANCH   2  15
HETATM   15  C1  UNK     1      30.695  -6.440  29.538  1.00  0.00    -0.031 A 
HETATM   16  C4  UNK     1      31.974  -6.994  29.487  1.00  0.00     0.051 A 
HETATM   17  C3  UNK     1      32.136  -8.350  29.205  1.00  0.00     0.104 A 
HETATM   18  C2  UNK     1      31.019  -9.153  28.976  1.00  0.00     0.119 A 
HETATM   19  C6  UNK     1      29.740  -8.600  29.028  1.00  0.00     0.048 A 
HETATM   20 Br1  UNK     1      28.198  -9.660  28.721  1.00  0.00    -0.048 Br
HETATM   21  C5  UNK     1      29.578  -7.244  29.309  1.00  0.00     0.033 A 
BRANCH  17  22
HETATM   22  O2  UNK     1      33.392  -8.877  29.158  1.00  0.00    -0.349 OA
BRANCH  22  23
HETATM   23  C17 UNK     1      34.196  -8.743  30.329  1.00  0.00     0.171 C 
HETATM   24  C24 UNK     1      35.328  -7.781  30.043  1.00  0.00     0.034 C 
ENDBRANCH  22  23
ENDBRANCH  17  22
BRANCH  18  25
HETATM   25  O1  UNK     1      31.199 -10.478  28.703  1.00  0.00    -0.345 OA
BRANCH  25  26
HETATM   26  C7  UNK     1      31.487 -11.332  29.807  1.00  0.00     0.202 C 
BRANCH  26  27
HETATM   27  C11 UNK     1      30.257 -12.159  30.127  1.00  0.00     0.202 C 
BRANCH  27  28
HETATM   28  O3  UNK     1      30.505 -12.927  31.298  1.00  0.00    -0.349 OA
BRANCH  28  29
HETATM   29  C16 UNK     1      30.638 -12.236  32.474  1.00  0.00     0.068 A 
HETATM   30  C20 UNK     1      31.530 -12.682  33.449  1.00  0.00     0.037 A 
HETATM   31  C22 UNK     1      31.665 -11.978  34.645  1.00  0.00     0.009 A 
HETATM   32  C19 UNK     1      30.907 -10.828  34.867  1.00  0.00    -0.062 A 
HETATM   33  C23 UNK     1      30.014 -10.382  33.892  1.00  0.00     0.009 A 
HETATM   34  C25 UNK     1      31.050 -10.075  36.146  1.00  0.00     0.048 C 
HETATM   35  C21 UNK     1      29.879 -11.086  32.695  1.00  0.00     0.037 A 
ENDBRANCH  28  29
ENDBRANCH  27  28
ENDBRANCH  26  27
ENDBRANCH  25  26
ENDBRANCH  18  25
ENDBRANCH   2  15
TORSDOF 11
ENDMDL
MODEL 10
REMARK VINA RESULT:      -6.9      2.627      7.428
REMARK  11 active torsions:
REMARK  status: ('A' for Active; 'I' for Inactive)
REMARK    1  A    between atoms: C2_9  and  O1_2 
REMARK    2  A    between atoms: C7_14  and  O1_2 
REMARK    3  A    between atoms: C17_24  and  O2_3 
REMARK    4  A    between atoms: C3_10  and  O2_3 
REMARK    5  A    between atoms: C11_18  and  O3_4 
REMARK    6  A    between atoms: C16_23  and  O3_4 
REMARK    7  A    between atoms: C14_21  and  O4_5 
REMARK    8  A    between atoms: C15_22  and  O5_6 
REMARK    9  A    between atoms: C1_8  and  C8_15 
REMARK   10  A    between atoms: C11_18  and  C7_14 
REMARK   11  A    between atoms: C10_17  and  C9_16 
ROOT
HETATM    1  N1  UNK     1      36.873  -6.969  34.948  1.00  0.00    -0.191 NA
HETATM    2  C8  UNK     1      33.796  -7.375  33.444  1.00  0.00     0.035 C 
HETATM    3  C10 UNK     1      34.296  -6.881  34.609  1.00  0.00     0.055 C 
HETATM    4  C26 UNK     1      35.723  -6.935  34.788  1.00  0.00     0.100 C 
ENDROOT
BRANCH   3   5
HETATM    5  C9  UNK     1      33.475  -6.308  35.663  1.00  0.00    -0.013 A 
HETATM    6  C12 UNK     1      32.852  -7.140  36.593  1.00  0.00     0.052 A 
HETATM    7  C14 UNK     1      32.065  -6.589  37.604  1.00  0.00     0.102 A 
HETATM    8  C15 UNK     1      31.902  -5.206  37.686  1.00  0.00     0.101 A 
HETATM    9  C18 UNK     1      32.525  -4.374  36.756  1.00  0.00     0.040 A 
HETATM   10  C13 UNK     1      33.312  -4.924  35.745  1.00  0.00     0.016 A 
BRANCH   7  11
HETATM   11  O4  UNK     1      31.460  -7.411  38.506  1.00  0.00    -0.353 OA
HETATM   12  C27 UNK     1      30.304  -8.119  38.063  1.00  0.00     0.210 C 
ENDBRANCH   7  11
BRANCH   8  13
HETATM   13  O5  UNK     1      31.137  -4.656  38.671  1.00  0.00    -0.353 OA
HETATM   14  C28 UNK     1      29.824  -4.234  38.312  1.00  0.00     0.210 C 
ENDBRANCH   8  13
ENDBRANCH   3   5
BRANCH   2  15
HETATM   15  C1  UNK     1      32.373  -7.433  33.079  1.00  0.00    -0.031 A 
HETATM   16  C4  UNK     1      31.651  -8.609  33.278  1.00  0.00     0.051 A 
HETATM   17  C3  UNK     1      30.301  -8.665  32.932  1.00  0.00     0.104 A 
HETATM   18  C2  UNK     1      29.673  -7.545  32.388  1.00  0.00     0.119 A 
HETATM   19  C6  UNK     1      30.395  -6.368  32.190  1.00  0.00     0.048 A 
HETATM   20 Br1  UNK     1      29.576  -4.825  31.452  1.00  0.00    -0.048 Br
HETATM   21  C5  UNK     1      31.745  -6.312  32.535  1.00  0.00     0.033 A 
BRANCH  17  22
HETATM   22  O2  UNK     1      29.607  -9.822  33.131  1.00  0.00    -0.349 OA
BRANCH  22  23
HETATM   23  C17 UNK     1      29.521 -10.303  34.471  1.00  0.00     0.171 C 
HETATM   24  C24 UNK     1      28.381  -9.601  35.175  1.00  0.00     0.034 C 
ENDBRANCH  22  23
ENDBRANCH  17  22
BRANCH  18  25
HETATM   25  O1  UNK     1      28.352  -7.621  32.056  1.00  0.00    -0.345 OA
BRANCH  25  26
HETATM   26  C7  UNK     1      27.998  -8.525  31.014  1.00  0.00     0.202 C 
BRANCH  26  27
HETATM   27  C11 UNK     1      28.385  -7.919  29.679  1.00  0.00     0.202 C 
BRANCH  27  28
HETATM   28  O3  UNK     1      29.269  -8.806  29.005  1.00  0.00    -0.349 OA
BRANCH  28  29
HETATM   29  C16 UNK     1      30.611  -8.595  29.185  1.00  0.00     0.068 A 
HETATM   30  C20 UNK     1      31.430  -9.639  29.616  1.00  0.00     0.037 A 
HETATM   31  C22 UNK     1      32.796  -9.424  29.798  1.00  0.00     0.009 A 
HETATM   32  C19 UNK     1      33.343  -8.165  29.550  1.00  0.00    -0.062 A 
HETATM   33  C23 UNK     1      32.523  -7.121  29.119  1.00  0.00     0.009 A 
HETATM   34  C25 UNK     1      34.804  -7.934  29.745  1.00  0.00     0.048 C 
HETATM   35  C21 UNK     1      31.158  -7.336  28.937  1.00  0.00     0.037 A 
ENDBRANCH  28  29
ENDBRANCH  27  28
ENDBRANCH  26  27
ENDBRANCH  25  26
ENDBRANCH  18  25
ENDBRANCH   2  15
TORSDOF 11
ENDMDL
