MODEL 1
REMARK VINA RESULT:      -9.0      0.000      0.000
REMARK  6 active torsions:
REMARK  status: ('A' for Active; 'I' for Inactive)
REMARK    1  A    between atoms: C13_21  and  N1_6 
REMARK    2  A    between atoms: C4_12  and  N1_6 
REMARK    3  A    between atoms: C13_21  and  N2_7 
REMARK    4  A    between atoms: N2_7  and  N3_8 
REMARK       I    between atoms: C14_22  and  N3_8 
REMARK    5  A    between atoms: C11_19  and  C12_20 
REMARK    6  A    between atoms: C11_19  and  C14_22 
ROOT
HETATM    1  N1  UNK     1      19.048   4.028  29.828  1.00  0.00    -0.332 N 
HETATM    2  H8  UNK     1      19.232   4.437  28.916  1.00  0.00     0.168 HD
ENDROOT
BRANCH   1   3
HETATM    3  C13 UNK     1      18.830   2.640  29.782  1.00  0.00     0.191 C 
HETATM    4  S2  UNK     1      17.922   1.764  28.676  1.00  0.00    -0.039 SA
BRANCH   3   5
HETATM    5  N2  UNK     1      19.429   1.929  30.816  1.00  0.00    -0.274 N 
HETATM    6  H12 UNK     1      20.256   2.278  31.291  1.00  0.00     0.189 HD
BRANCH   5   7
HETATM    7  N3  UNK     1      18.916   0.734  31.263  1.00  0.00    -0.268 N 
HETATM    8  C14 UNK     1      19.775  -0.332  31.452  1.00  0.00     0.240 C 
HETATM    9  O3  UNK     1      20.988  -0.313  31.251  1.00  0.00    -0.271 OA
HETATM   10  H13 UNK     1      17.942   0.722  31.544  1.00  0.00     0.190 HD
BRANCH   8  11
HETATM   11  C11 UNK     1      19.072  -1.563  31.985  1.00  0.00     0.150 C 
BRANCH  11  12
HETATM   12  C12 UNK     1      19.359  -1.683  33.455  1.00  0.00    -0.009 A 
HETATM   13  S1  UNK     1      18.431  -0.767  34.548  1.00  0.00    -0.106 SA
HETATM   14  C17 UNK     1      19.298  -1.410  35.876  1.00  0.00     0.050 A 
HETATM   15  C16 UNK     1      20.270  -2.301  35.476  1.00  0.00     0.008 A 
HETATM   16  C15 UNK     1      20.302  -2.458  34.060  1.00  0.00     0.015 A 
ENDBRANCH  11  12
ENDBRANCH   8  11
ENDBRANCH   5   7
ENDBRANCH   3   5
ENDBRANCH   1   3
BRANCH   1  17
HETATM   17  C4  UNK     1      18.994   4.972  30.853  1.00  0.00     0.037 A 
HETATM   18  C6  UNK     1      17.782   5.268  31.468  1.00  0.00     0.067 A 
HETATM   19  C2  UNK     1      17.752   6.216  32.492  1.00  0.00     0.092 A 
HETATM   20  C1  UNK     1      18.899   6.882  32.926  1.00  0.00     0.004 A 
HETATM   21  O1  UNK     1      16.496   6.472  33.076  1.00  0.00    -0.275 OA
HETATM   22  C3  UNK     1      18.775   7.864  34.011  1.00  0.00    -0.043 A 
HETATM   23  C5  UNK     1      20.110   6.570  32.294  1.00  0.00     0.017 A 
HETATM   24  C8  UNK     1      17.566   8.089  34.548  1.00  0.00     0.090 A 
HETATM   25  C9  UNK     1      19.989   8.598  34.500  1.00  0.00     0.049 C 
HETATM   26  C10 UNK     1      16.347   7.394  34.102  1.00  0.00     0.288 A 
HETATM   27  O2  UNK     1      15.259   7.626  34.616  1.00  0.00    -0.260 OA
HETATM   28  C7  UNK     1      20.157   5.621  31.266  1.00  0.00     0.030 A 
ENDBRANCH   1  17
TORSDOF 6
ENDMDL
MODEL 2
REMARK VINA RESULT:      -8.9      2.525      4.030
REMARK  6 active torsions:
REMARK  status: ('A' for Active; 'I' for Inactive)
REMARK    1  A    between atoms: C13_21  and  N1_6 
REMARK    2  A    between atoms: C4_12  and  N1_6 
REMARK    3  A    between atoms: C13_21  and  N2_7 
REMARK    4  A    between atoms: N2_7  and  N3_8 
REMARK       I    between atoms: C14_22  and  N3_8 
REMARK    5  A    between atoms: C11_19  and  C12_20 
REMARK    6  A    between atoms: C11_19  and  C14_22 
ROOT
HETATM    1  N1  UNK     1      18.685  -0.348  31.816  1.00  0.00    -0.332 N 
HETATM    2  H8  UNK     1      17.796  -0.707  32.154  1.00  0.00     0.168 HD
ENDROOT
BRANCH   1   3
HETATM    3  C13 UNK     1      19.686  -1.331  31.726  1.00  0.00     0.191 C 
HETATM    4  S2  UNK     1      20.349  -2.019  30.347  1.00  0.00    -0.039 SA
BRANCH   3   5
HETATM    5  N2  UNK     1      20.144  -1.798  32.953  1.00  0.00    -0.274 N 
HETATM    6  H12 UNK     1      21.132  -1.938  33.133  1.00  0.00     0.189 HD
BRANCH   5   7
HETATM    7  N3  UNK     1      19.282  -2.067  33.991  1.00  0.00    -0.268 N 
HETATM    8  C14 UNK     1      19.702  -1.829  35.286  1.00  0.00     0.240 C 
HETATM    9  O3  UNK     1      20.804  -1.388  35.607  1.00  0.00    -0.271 OA
HETATM   10  H13 UNK     1      18.331  -2.323  33.751  1.00  0.00     0.190 HD
BRANCH   8  11
HETATM   11  C11 UNK     1      18.632  -2.134  36.314  1.00  0.00     0.150 C 
BRANCH  11  12
HETATM   12  C12 UNK     1      17.589  -1.053  36.258  1.00  0.00    -0.009 A 
HETATM   13  S1  UNK     1      17.604   0.162  37.448  1.00  0.00    -0.106 SA
HETATM   14  C17 UNK     1      16.240   0.918  36.742  1.00  0.00     0.050 A 
HETATM   15  C16 UNK     1      15.796   0.244  35.624  1.00  0.00     0.008 A 
HETATM   16  C15 UNK     1      16.588  -0.907  35.345  1.00  0.00     0.015 A 
ENDBRANCH  11  12
ENDBRANCH   8  11
ENDBRANCH   5   7
ENDBRANCH   3   5
ENDBRANCH   1   3
BRANCH   1  17
HETATM   17  C4  UNK     1      18.677   1.032  31.606  1.00  0.00     0.037 A 
HETATM   18  C6  UNK     1      18.290   1.891  32.628  1.00  0.00     0.067 A 
HETATM   19  C2  UNK     1      18.290   3.268  32.397  1.00  0.00     0.092 A 
HETATM   20  C1  UNK     1      18.666   3.818  31.171  1.00  0.00     0.004 A 
HETATM   21  O1  UNK     1      17.890   4.088  33.471  1.00  0.00    -0.275 OA
HETATM   22  C3  UNK     1      18.637   5.278  31.015  1.00  0.00    -0.043 A 
HETATM   23  C5  UNK     1      19.052   2.935  30.153  1.00  0.00     0.017 A 
HETATM   24  C8  UNK     1      18.250   6.034  32.054  1.00  0.00     0.090 A 
HETATM   25  C9  UNK     1      19.034   5.901  29.708  1.00  0.00     0.049 C 
HETATM   26  C10 UNK     1      17.851   5.469  33.354  1.00  0.00     0.288 A 
HETATM   27  O2  UNK     1      17.504   6.191  34.281  1.00  0.00    -0.260 OA
HETATM   28  C7  UNK     1      19.057   1.552  30.370  1.00  0.00     0.030 A 
ENDBRANCH   1  17
TORSDOF 6
ENDMDL
MODEL 3
REMARK VINA RESULT:      -8.9      6.023     11.516
REMARK  6 active torsions:
REMARK  status: ('A' for Active; 'I' for Inactive)
REMARK    1  A    between atoms: C13_21  and  N1_6 
REMARK    2  A    between atoms: C4_12  and  N1_6 
REMARK    3  A    between atoms: C13_21  and  N2_7 
REMARK    4  A    between atoms: N2_7  and  N3_8 
REMARK       I    between atoms: C14_22  and  N3_8 
REMARK    5  A    between atoms: C11_19  and  C12_20 
REMARK    6  A    between atoms: C11_19  and  C14_22 
ROOT
HETATM    1  N1  UNK     1      18.849  -3.901  36.454  1.00  0.00    -0.332 N 
HETATM    2  H8  UNK     1      17.875  -4.188  36.402  1.00  0.00     0.168 HD
ENDROOT
BRANCH   1   3
HETATM    3  C13 UNK     1      19.039  -2.530  36.207  1.00  0.00     0.191 C 
HETATM    4  S2  UNK     1      18.215  -1.228  36.872  1.00  0.00    -0.039 SA
BRANCH   3   5
HETATM    5  N2  UNK     1      20.020  -2.247  35.264  1.00  0.00    -0.274 N 
HETATM    6  H12 UNK     1      20.903  -1.821  35.527  1.00  0.00     0.189 HD
BRANCH   5   7
HETATM    7  N3  UNK     1      19.854  -2.555  33.934  1.00  0.00    -0.268 N 
HETATM    8  C14 UNK     1      20.928  -2.412  33.076  1.00  0.00     0.240 C 
HETATM    9  O3  UNK     1      22.050  -2.026  33.399  1.00  0.00    -0.271 OA
HETATM   10  H13 UNK     1      18.975  -2.982  33.662  1.00  0.00     0.190 HD
BRANCH   8  11
HETATM   11  C11 UNK     1      20.603  -2.827  31.656  1.00  0.00     0.150 C 
BRANCH  11  12
HETATM   12  C12 UNK     1      20.321  -1.593  30.846  1.00  0.00    -0.009 A 
HETATM   13  S1  UNK     1      19.425  -0.334  31.556  1.00  0.00    -0.106 SA
HETATM   14  C17 UNK     1      19.536   0.598  30.125  1.00  0.00     0.050 A 
HETATM   15  C16 UNK     1      20.244  -0.053  29.138  1.00  0.00     0.008 A 
HETATM   16  C15 UNK     1      20.701  -1.333  29.564  1.00  0.00     0.015 A 
ENDBRANCH  11  12
ENDBRANCH   8  11
ENDBRANCH   5   7
ENDBRANCH   3   5
ENDBRANCH   1   3
BRANCH   1  17
HETATM   17  C4  UNK     1      19.724  -4.963  36.684  1.00  0.00     0.037 A 
HETATM   18  C6  UNK     1      19.813  -6.005  35.769  1.00  0.00     0.067 A 
HETATM   19  C2  UNK     1      20.696  -7.057  36.019  1.00  0.00     0.092 A 
HETATM   20  C1  UNK     1      21.497  -7.103  37.160  1.00  0.00     0.004 A 
HETATM   21  O1  UNK     1      20.743  -8.084  35.054  1.00  0.00    -0.275 OA
HETATM   22  C3  UNK     1      22.399  -8.248  37.343  1.00  0.00    -0.043 A 
HETATM   23  C5  UNK     1      21.393  -6.043  38.071  1.00  0.00     0.017 A 
HETATM   24  C8  UNK     1      22.422  -9.211  36.410  1.00  0.00     0.090 A 
HETATM   25  C9  UNK     1      23.273  -8.327  38.560  1.00  0.00     0.049 C 
HETATM   26  C10 UNK     1      21.583  -9.178  35.200  1.00  0.00     0.288 A 
HETATM   27  O2  UNK     1      21.631 -10.076  34.367  1.00  0.00    -0.260 OA
HETATM   28  C7  UNK     1      20.512  -4.981  37.834  1.00  0.00     0.030 A 
ENDBRANCH   1  17
TORSDOF 6
ENDMDL
MODEL 4
REMARK VINA RESULT:      -8.8      2.037      2.336
REMARK  6 active torsions:
REMARK  status: ('A' for Active; 'I' for Inactive)
REMARK    1  A    between atoms: C13_21  and  N1_6 
REMARK    2  A    between atoms: C4_12  and  N1_6 
REMARK    3  A    between atoms: C13_21  and  N2_7 
REMARK    4  A    between atoms: N2_7  and  N3_8 
REMARK       I    between atoms: C14_22  and  N3_8 
REMARK    5  A    between atoms: C11_19  and  C12_20 
REMARK    6  A    between atoms: C11_19  and  C14_22 
ROOT
HETATM    1  N1  UNK     1      18.723   3.948  30.571  1.00  0.00    -0.332 N 
HETATM    2  H8  UNK     1      18.760   4.199  29.586  1.00  0.00     0.168 HD
ENDROOT
BRANCH   1   3
HETATM    3  C13 UNK     1      18.571   2.568  30.789  1.00  0.00     0.191 C 
HETATM    4  S2  UNK     1      19.103   1.297  29.831  1.00  0.00    -0.039 SA
BRANCH   3   5
HETATM    5  N2  UNK     1      17.858   2.243  31.937  1.00  0.00    -0.274 N 
HETATM    6  H12 UNK     1      16.870   2.012  31.902  1.00  0.00     0.189 HD
BRANCH   5   7
HETATM    7  N3  UNK     1      18.461   2.193  33.172  1.00  0.00    -0.268 N 
HETATM    8  C14 UNK     1      17.801   1.565  34.213  1.00  0.00     0.240 C 
HETATM    9  O3  UNK     1      16.695   1.034  34.136  1.00  0.00    -0.271 OA
HETATM   10  H13 UNK     1      19.418   2.522  33.236  1.00  0.00     0.190 HD
BRANCH   8  11
HETATM   11  C11 UNK     1      18.607   1.555  35.495  1.00  0.00     0.150 C 
BRANCH  11  12
HETATM   12  C12 UNK     1      18.414   0.228  36.174  1.00  0.00    -0.009 A 
HETATM   13  S1  UNK     1      19.047  -1.169  35.438  1.00  0.00    -0.106 SA
HETATM   14  C17 UNK     1      18.458  -2.148  36.713  1.00  0.00     0.050 A 
HETATM   15  C16 UNK     1      17.796  -1.409  37.669  1.00  0.00     0.008 A 
HETATM   16  C15 UNK     1      17.773  -0.021  37.350  1.00  0.00     0.015 A 
ENDBRANCH  11  12
ENDBRANCH   8  11
ENDBRANCH   5   7
ENDBRANCH   3   5
ENDBRANCH   1   3
BRANCH   1  17
HETATM   17  C4  UNK     1      18.762   5.053  31.421  1.00  0.00     0.037 A 
HETATM   18  C6  UNK     1      17.581   5.608  31.901  1.00  0.00     0.067 A 
HETATM   19  C2  UNK     1      17.643   6.713  32.751  1.00  0.00     0.092 A 
HETATM   20  C1  UNK     1      18.855   7.287  33.140  1.00  0.00     0.004 A 
HETATM   21  O1  UNK     1      16.413   7.230  33.205  1.00  0.00    -0.275 OA
HETATM   22  C3  UNK     1      18.827   8.449  34.039  1.00  0.00    -0.043 A 
HETATM   23  C5  UNK     1      20.034   6.714  32.646  1.00  0.00     0.017 A 
HETATM   24  C8  UNK     1      17.642   8.920  34.454  1.00  0.00     0.090 A 
HETATM   25  C9  UNK     1      20.112   9.089  34.475  1.00  0.00     0.049 C 
HETATM   26  C10 UNK     1      16.356   8.326  34.053  1.00  0.00     0.288 A 
HETATM   27  O2  UNK     1      15.291   8.783  34.453  1.00  0.00    -0.260 OA
HETATM   28  C7  UNK     1      19.988   5.605  31.793  1.00  0.00     0.030 A 
ENDBRANCH   1  17
TORSDOF 6
ENDMDL
MODEL 5
REMARK VINA RESULT:      -8.7      6.010     11.535
REMARK  6 active torsions:
REMARK  status: ('A' for Active; 'I' for Inactive)
REMARK    1  A    between atoms: C13_21  and  N1_6 
REMARK    2  A    between atoms: C4_12  and  N1_6 
REMARK    3  A    between atoms: C13_21  and  N2_7 
REMARK    4  A    between atoms: N2_7  and  N3_8 
REMARK       I    between atoms: C14_22  and  N3_8 
REMARK    5  A    between atoms: C11_19  and  C12_20 
REMARK    6  A    between atoms: C11_19  and  C14_22 
ROOT
HETATM    1  N1  UNK     1      19.134  -3.804  36.074  1.00  0.00    -0.332 N 
HETATM    2  H8  UNK     1      18.622  -4.159  35.271  1.00  0.00     0.168 HD
ENDROOT
BRANCH   1   3
HETATM    3  C13 UNK     1      19.164  -2.400  36.139  1.00  0.00     0.191 C 
HETATM    4  S2  UNK     1      18.419  -1.393  37.255  1.00  0.00    -0.039 SA
BRANCH   3   5
HETATM    5  N2  UNK     1      19.885  -1.792  35.117  1.00  0.00    -0.274 N 
HETATM    6  H12 UNK     1      20.551  -1.051  35.304  1.00  0.00     0.189 HD
BRANCH   5   7
HETATM    7  N3  UNK     1      19.749  -2.185  33.806  1.00  0.00    -0.268 N 
HETATM    8  C14 UNK     1      20.879  -2.272  33.014  1.00  0.00     0.240 C 
HETATM    9  O3  UNK     1      22.026  -2.023  33.382  1.00  0.00    -0.271 OA
HETATM   10  H13 UNK     1      18.834  -2.504  33.508  1.00  0.00     0.190 HD
BRANCH   8  11
HETATM   11  C11 UNK     1      20.576  -2.755  31.611  1.00  0.00     0.150 C 
BRANCH  11  12
HETATM   12  C12 UNK     1      20.300  -1.562  30.740  1.00  0.00    -0.009 A 
HETATM   13  S1  UNK     1      19.512  -0.217  31.419  1.00  0.00    -0.106 SA
HETATM   14  C17 UNK     1      19.572   0.616  29.924  1.00  0.00     0.050 A 
HETATM   15  C16 UNK     1      20.184  -0.132  28.941  1.00  0.00     0.008 A 
HETATM   16  C15 UNK     1      20.607  -1.404  29.422  1.00  0.00     0.015 A 
ENDBRANCH  11  12
ENDBRANCH   8  11
ENDBRANCH   5   7
ENDBRANCH   3   5
ENDBRANCH   1   3
BRANCH   1  17
HETATM   17  C4  UNK     1      19.722  -4.810  36.840  1.00  0.00     0.037 A 
HETATM   18  C6  UNK     1      19.114  -6.056  36.943  1.00  0.00     0.067 A 
HETATM   19  C2  UNK     1      19.720  -7.049  37.714  1.00  0.00     0.092 A 
HETATM   20  C1  UNK     1      20.922  -6.837  38.392  1.00  0.00     0.004 A 
HETATM   21  O1  UNK     1      19.057  -8.290  37.779  1.00  0.00    -0.275 OA
HETATM   22  C3  UNK     1      21.489  -7.939  39.181  1.00  0.00    -0.043 A 
HETATM   23  C5  UNK     1      21.519  -5.574  38.277  1.00  0.00     0.017 A 
HETATM   24  C8  UNK     1      20.835  -9.109  39.226  1.00  0.00     0.090 A 
HETATM   25  C9  UNK     1      22.780  -7.742  39.922  1.00  0.00     0.049 C 
HETATM   26  C10 UNK     1      19.567  -9.348  38.516  1.00  0.00     0.288 A 
HETATM   27  O2  UNK     1      18.998 -10.432  38.580  1.00  0.00    -0.260 OA
HETATM   28  C7  UNK     1      20.923  -4.569  37.506  1.00  0.00     0.030 A 
ENDBRANCH   1  17
TORSDOF 6
ENDMDL
MODEL 6
REMARK VINA RESULT:      -8.6      5.048      7.679
REMARK  6 active torsions:
REMARK  status: ('A' for Active; 'I' for Inactive)
REMARK    1  A    between atoms: C13_21  and  N1_6 
REMARK    2  A    between atoms: C4_12  and  N1_6 
REMARK    3  A    between atoms: C13_21  and  N2_7 
REMARK    4  A    between atoms: N2_7  and  N3_8 
REMARK       I    between atoms: C14_22  and  N3_8 
REMARK    5  A    between atoms: C11_19  and  C12_20 
REMARK    6  A    between atoms: C11_19  and  C14_22 
ROOT
HETATM    1  N1  UNK     1      19.023  -1.901  34.967  1.00  0.00    -0.332 N 
HETATM    2  H8  UNK     1      19.617  -2.710  34.810  1.00  0.00     0.168 HD
ENDROOT
BRANCH   1   3
HETATM    3  C13 UNK     1      18.356  -1.932  36.204  1.00  0.00     0.191 C 
HETATM    4  S2  UNK     1      17.691  -0.652  37.062  1.00  0.00    -0.039 SA
BRANCH   3   5
HETATM    5  N2  UNK     1      18.279  -3.194  36.784  1.00  0.00    -0.274 N 
HETATM    6  H12 UNK     1      17.453  -3.774  36.687  1.00  0.00     0.189 HD
BRANCH   5   7
HETATM    7  N3  UNK     1      19.330  -3.727  37.494  1.00  0.00    -0.268 N 
HETATM    8  C14 UNK     1      20.234  -4.542  36.837  1.00  0.00     0.240 C 
HETATM    9  O3  UNK     1      20.185  -4.843  35.646  1.00  0.00    -0.271 OA
HETATM   10  H13 UNK     1      19.458  -3.406  38.447  1.00  0.00     0.190 HD
BRANCH   8  11
HETATM   11  C11 UNK     1      21.354  -5.019  37.738  1.00  0.00     0.150 C 
BRANCH  11  12
HETATM   12  C12 UNK     1      21.021  -6.399  38.232  1.00  0.00    -0.009 A 
HETATM   13  S1  UNK     1      21.692  -7.740  37.429  1.00  0.00    -0.106 SA
HETATM   14  C17 UNK     1      20.901  -8.818  38.498  1.00  0.00     0.050 A 
HETATM   15  C16 UNK     1      20.145  -8.152  39.438  1.00  0.00     0.008 A 
HETATM   16  C15 UNK     1      20.218  -6.738  39.279  1.00  0.00     0.015 A 
ENDBRANCH  11  12
ENDBRANCH   8  11
ENDBRANCH   5   7
ENDBRANCH   3   5
ENDBRANCH   1   3
BRANCH   1  17
HETATM   17  C4  UNK     1      18.984  -1.027  33.881  1.00  0.00     0.037 A 
HETATM   18  C6  UNK     1      19.448  -1.439  32.636  1.00  0.00     0.067 A 
HETATM   19  C2  UNK     1      19.400  -0.548  31.563  1.00  0.00     0.092 A 
HETATM   20  C1  UNK     1      18.899   0.748  31.691  1.00  0.00     0.004 A 
HETATM   21  O1  UNK     1      19.883  -1.023  30.327  1.00  0.00    -0.275 OA
HETATM   22  C3  UNK     1      18.885   1.619  30.508  1.00  0.00    -0.043 A 
HETATM   23  C5  UNK     1      18.437   1.145  32.953  1.00  0.00     0.017 A 
HETATM   24  C8  UNK     1      19.353   1.141  29.345  1.00  0.00     0.090 A 
HETATM   25  C9  UNK     1      18.355   3.019  30.613  1.00  0.00     0.049 C 
HETATM   26  C10 UNK     1      19.884  -0.225  29.193  1.00  0.00     0.288 A 
HETATM   27  O2  UNK     1      20.303  -0.627  28.114  1.00  0.00    -0.260 OA
HETATM   28  C7  UNK     1      18.479   0.263  34.040  1.00  0.00     0.030 A 
ENDBRANCH   1  17
TORSDOF 6
ENDMDL
MODEL 7
REMARK VINA RESULT:      -8.6      2.781      3.940
REMARK  6 active torsions:
REMARK  status: ('A' for Active; 'I' for Inactive)
REMARK    1  A    between atoms: C13_21  and  N1_6 
REMARK    2  A    between atoms: C4_12  and  N1_6 
REMARK    3  A    between atoms: C13_21  and  N2_7 
REMARK    4  A    between atoms: N2_7  and  N3_8 
REMARK       I    between atoms: C14_22  and  N3_8 
REMARK    5  A    between atoms: C11_19  and  C12_20 
REMARK    6  A    between atoms: C11_19  and  C14_22 
ROOT
HETATM    1  N1  UNK     1      18.862   4.979  34.102  1.00  0.00    -0.332 N 
HETATM    2  H8  UNK     1      19.742   4.773  34.567  1.00  0.00     0.168 HD
ENDROOT
BRANCH   1   3
HETATM    3  C13 UNK     1      18.262   3.849  33.519  1.00  0.00     0.191 C 
HETATM    4  S2  UNK     1      18.080   2.314  34.171  1.00  0.00    -0.039 SA
BRANCH   3   5
HETATM    5  N2  UNK     1      17.796   4.050  32.225  1.00  0.00    -0.274 N 
HETATM    6  H12 UNK     1      17.623   4.981  31.860  1.00  0.00     0.189 HD
BRANCH   5   7
HETATM    7  N3  UNK     1      17.573   2.998  31.367  1.00  0.00    -0.268 N 
HETATM    8  C14 UNK     1      18.276   2.946  30.177  1.00  0.00     0.240 C 
HETATM    9  O3  UNK     1      19.104   3.775  29.803  1.00  0.00    -0.271 OA
HETATM   10  H13 UNK     1      16.981   2.244  31.699  1.00  0.00     0.190 HD
BRANCH   8  11
HETATM   11  C11 UNK     1      17.953   1.712  29.360  1.00  0.00     0.150 C 
BRANCH  11  12
HETATM   12  C12 UNK     1      19.049   0.703  29.559  1.00  0.00    -0.009 A 
HETATM   13  S1  UNK     1      19.580   0.371  31.140  1.00  0.00    -0.106 SA
HETATM   14  C17 UNK     1      20.722  -0.762  30.554  1.00  0.00     0.050 A 
HETATM   15  C16 UNK     1      20.684  -0.872  29.181  1.00  0.00     0.008 A 
HETATM   16  C15 UNK     1      19.705  -0.013  28.603  1.00  0.00     0.015 A 
ENDBRANCH  11  12
ENDBRANCH   8  11
ENDBRANCH   5   7
ENDBRANCH   3   5
ENDBRANCH   1   3
BRANCH   1  17
HETATM   17  C4  UNK     1      18.538   6.336  34.114  1.00  0.00     0.037 A 
HETATM   18  C6  UNK     1      17.214   6.737  34.253  1.00  0.00     0.067 A 
HETATM   19  C2  UNK     1      16.913   8.100  34.264  1.00  0.00     0.092 A 
HETATM   20  C1  UNK     1      17.896   9.082  34.139  1.00  0.00     0.004 A 
HETATM   21  O1  UNK     1      15.554   8.444  34.409  1.00  0.00    -0.275 OA
HETATM   22  C3  UNK     1      17.489  10.493  34.161  1.00  0.00    -0.043 A 
HETATM   23  C5  UNK     1      19.225   8.657  33.999  1.00  0.00     0.017 A 
HETATM   24  C8  UNK     1      16.189  10.792  34.299  1.00  0.00     0.090 A 
HETATM   25  C9  UNK     1      18.523  11.573  34.028  1.00  0.00     0.049 C 
HETATM   26  C10 UNK     1      15.140   9.767  34.432  1.00  0.00     0.288 A 
HETATM   27  O2  UNK     1      13.960  10.078  34.557  1.00  0.00    -0.260 OA
HETATM   28  C7  UNK     1      19.542   7.294  33.988  1.00  0.00     0.030 A 
ENDBRANCH   1  17
TORSDOF 6
ENDMDL
MODEL 8
REMARK VINA RESULT:      -8.6      5.056      7.880
REMARK  6 active torsions:
REMARK  status: ('A' for Active; 'I' for Inactive)
REMARK    1  A    between atoms: C13_21  and  N1_6 
REMARK    2  A    between atoms: C4_12  and  N1_6 
REMARK    3  A    between atoms: C13_21  and  N2_7 
REMARK    4  A    between atoms: N2_7  and  N3_8 
REMARK       I    between atoms: C14_22  and  N3_8 
REMARK    5  A    between atoms: C11_19  and  C12_20 
REMARK    6  A    between atoms: C11_19  and  C14_22 
ROOT
HETATM    1  N1  UNK     1      19.786  -2.566  35.052  1.00  0.00    -0.332 N 
HETATM    2  H8  UNK     1      20.564  -3.202  35.209  1.00  0.00     0.168 HD
ENDROOT
BRANCH   1   3
HETATM    3  C13 UNK     1      18.864  -2.543  36.113  1.00  0.00     0.191 C 
HETATM    4  S2  UNK     1      17.660  -1.415  36.423  1.00  0.00    -0.039 SA
BRANCH   3   5
HETATM    5  N2  UNK     1      19.011  -3.582  37.025  1.00  0.00    -0.274 N 
HETATM    6  H12 UNK     1      19.461  -3.441  37.924  1.00  0.00     0.189 HD
BRANCH   5   7
HETATM    7  N3  UNK     1      18.530  -4.844  36.765  1.00  0.00    -0.268 N 
HETATM    8  C14 UNK     1      19.365  -5.767  36.164  1.00  0.00     0.240 C 
HETATM    9  O3  UNK     1      20.531  -5.559  35.830  1.00  0.00    -0.271 OA
HETATM   10  H13 UNK     1      17.613  -5.077  37.132  1.00  0.00     0.190 HD
BRANCH   8  11
HETATM   11  C11 UNK     1      18.709  -7.119  35.981  1.00  0.00     0.150 C 
BRANCH  11  12
HETATM   12  C12 UNK     1      19.303  -8.081  36.971  1.00  0.00    -0.009 A 
HETATM   13  S1  UNK     1      20.487  -9.179  36.437  1.00  0.00    -0.106 SA
HETATM   14  C17 UNK     1      20.627  -9.845  38.007  1.00  0.00     0.050 A 
HETATM   15  C16 UNK     1      19.782  -9.231  38.906  1.00  0.00     0.008 A 
HETATM   16  C15 UNK     1      19.009  -8.201  38.296  1.00  0.00     0.015 A 
ENDBRANCH  11  12
ENDBRANCH   8  11
ENDBRANCH   5   7
ENDBRANCH   3   5
ENDBRANCH   1   3
BRANCH   1  17
HETATM   17  C4  UNK     1      19.819  -1.954  33.799  1.00  0.00     0.037 A 
HETATM   18  C6  UNK     1      19.087  -0.795  33.568  1.00  0.00     0.067 A 
HETATM   19  C2  UNK     1      19.136  -0.199  32.307  1.00  0.00     0.092 A 
HETATM   20  C1  UNK     1      19.897  -0.725  31.262  1.00  0.00     0.004 A 
HETATM   21  O1  UNK     1      18.373   0.973  32.133  1.00  0.00    -0.275 OA
HETATM   22  C3  UNK     1      19.891  -0.032  29.967  1.00  0.00    -0.043 A 
HETATM   23  C5  UNK     1      20.628  -1.894  31.515  1.00  0.00     0.017 A 
HETATM   24  C8  UNK     1      19.155   1.081  29.830  1.00  0.00     0.090 A 
HETATM   25  C9  UNK     1      20.699  -0.573  28.823  1.00  0.00     0.049 C 
HETATM   26  C10 UNK     1      18.347   1.649  30.923  1.00  0.00     0.288 A 
HETATM   27  O2  UNK     1      17.687   2.669  30.761  1.00  0.00    -0.260 OA
HETATM   28  C7  UNK     1      20.589  -2.503  32.775  1.00  0.00     0.030 A 
ENDBRANCH   1  17
TORSDOF 6
ENDMDL
MODEL 9
REMARK VINA RESULT:      -8.5      2.597      8.261
REMARK  6 active torsions:
REMARK  status: ('A' for Active; 'I' for Inactive)
REMARK    1  A    between atoms: C13_21  and  N1_6 
REMARK    2  A    between atoms: C4_12  and  N1_6 
REMARK    3  A    between atoms: C13_21  and  N2_7 
REMARK    4  A    between atoms: N2_7  and  N3_8 
REMARK       I    between atoms: C14_22  and  N3_8 
REMARK    5  A    between atoms: C11_19  and  C12_20 
REMARK    6  A    between atoms: C11_19  and  C14_22 
ROOT
HETATM    1  N1  UNK     1      18.895  -0.993  31.437  1.00  0.00    -0.332 N 
HETATM    2  H8  UNK     1      18.643  -1.824  30.908  1.00  0.00     0.168 HD
ENDROOT
BRANCH   1   3
HETATM    3  C13 UNK     1      19.250   0.098  30.625  1.00  0.00     0.191 C 
HETATM    4  S2  UNK     1      20.402   0.158  29.406  1.00  0.00    -0.039 SA
BRANCH   3   5
HETATM    5  N2  UNK     1      18.564   1.273  30.910  1.00  0.00    -0.274 N 
HETATM    6  H12 UNK     1      17.706   1.271  31.452  1.00  0.00     0.189 HD
BRANCH   5   7
HETATM    7  N3  UNK     1      19.029   2.499  30.494  1.00  0.00    -0.268 N 
HETATM    8  C14 UNK     1      18.513   3.642  31.077  1.00  0.00     0.240 C 
HETATM    9  O3  UNK     1      17.654   3.666  31.956  1.00  0.00    -0.271 OA
HETATM   10  H13 UNK     1      19.816   2.506  29.854  1.00  0.00     0.190 HD
BRANCH   8  11
HETATM   11  C11 UNK     1      19.151   4.909  30.547  1.00  0.00     0.150 C 
BRANCH  11  12
HETATM   12  C12 UNK     1      19.136   5.948  31.633  1.00  0.00    -0.009 A 
HETATM   13  S1  UNK     1      17.781   6.966  31.773  1.00  0.00    -0.106 SA
HETATM   14  C17 UNK     1      18.484   7.773  33.110  1.00  0.00     0.050 A 
HETATM   15  C16 UNK     1      19.724   7.263  33.427  1.00  0.00     0.008 A 
HETATM   16  C15 UNK     1      20.101   6.196  32.562  1.00  0.00     0.015 A 
ENDBRANCH  11  12
ENDBRANCH   8  11
ENDBRANCH   5   7
ENDBRANCH   3   5
ENDBRANCH   1   3
BRANCH   1  17
HETATM   17  C4  UNK     1      18.885  -1.196  32.817  1.00  0.00     0.037 A 
HETATM   18  C6  UNK     1      19.727  -2.142  33.391  1.00  0.00     0.067 A 
HETATM   19  C2  UNK     1      19.701  -2.327  34.774  1.00  0.00     0.092 A 
HETATM   20  C1  UNK     1      18.856  -1.595  35.609  1.00  0.00     0.004 A 
HETATM   21  O1  UNK     1      20.578  -3.299  35.296  1.00  0.00    -0.275 OA
HETATM   22  C3  UNK     1      18.895  -1.855  37.054  1.00  0.00    -0.043 A 
HETATM   23  C5  UNK     1      18.014  -0.646  35.012  1.00  0.00     0.017 A 
HETATM   24  C8  UNK     1      19.738  -2.787  37.523  1.00  0.00     0.090 A 
HETATM   25  C9  UNK     1      17.998  -1.085  37.979  1.00  0.00     0.049 C 
HETATM   26  C10 UNK     1      20.636  -3.568  36.656  1.00  0.00     0.288 A 
HETATM   27  O2  UNK     1      21.394  -4.411  37.120  1.00  0.00    -0.260 OA
HETATM   28  C7  UNK     1      18.030  -0.448  33.626  1.00  0.00     0.030 A 
ENDBRANCH   1  17
TORSDOF 6
ENDMDL
MODEL 10
REMARK VINA RESULT:      -8.5      6.115     12.259
REMARK  6 active torsions:
REMARK  status: ('A' for Active; 'I' for Inactive)
REMARK    1  A    between atoms: C13_21  and  N1_6 
REMARK    2  A    between atoms: C4_12  and  N1_6 
REMARK    3  A    between atoms: C13_21  and  N2_7 
REMARK    4  A    between atoms: N2_7  and  N3_8 
REMARK       I    between atoms: C14_22  and  N3_8 
REMARK    5  A    between atoms: C11_19  and  C12_20 
REMARK    6  A    between atoms: C11_19  and  C14_22 
ROOT
HETATM    1  N1  UNK     1      18.472  -4.736  36.459  1.00  0.00    -0.332 N 
HETATM    2  H8  UNK     1      17.456  -4.755  36.432  1.00  0.00     0.168 HD
ENDROOT
BRANCH   1   3
HETATM    3  C13 UNK     1      19.002  -3.435  36.515  1.00  0.00     0.191 C 
HETATM    4  S2  UNK     1      20.483  -2.940  37.130  1.00  0.00    -0.039 SA
BRANCH   3   5
HETATM    5  N2  UNK     1      18.157  -2.448  36.020  1.00  0.00    -0.274 N 
HETATM    6  H12 UNK     1      17.171  -2.425  36.257  1.00  0.00     0.189 HD
BRANCH   5   7
HETATM    7  N3  UNK     1      18.622  -1.441  35.206  1.00  0.00    -0.268 N 
HETATM    8  C14 UNK     1      17.754  -0.859  34.301  1.00  0.00     0.240 C 
HETATM    9  O3  UNK     1      16.573  -1.165  34.151  1.00  0.00    -0.271 OA
HETATM   10  H13 UNK     1      19.557  -1.093  35.386  1.00  0.00     0.190 HD
BRANCH   8  11
HETATM   11  C11 UNK     1      18.398   0.258  33.508  1.00  0.00     0.150 C 
BRANCH  11  12
HETATM   12  C12 UNK     1      19.081  -0.335  32.307  1.00  0.00    -0.009 A 
HETATM   13  S1  UNK     1      19.449   0.677  30.991  1.00  0.00    -0.106 SA
HETATM   14  C17 UNK     1      20.139  -0.634  30.133  1.00  0.00     0.050 A 
HETATM   15  C16 UNK     1      20.081  -1.809  30.850  1.00  0.00     0.008 A 
HETATM   16  C15 UNK     1      19.461  -1.630  32.120  1.00  0.00     0.015 A 
ENDBRANCH  11  12
ENDBRANCH   8  11
ENDBRANCH   5   7
ENDBRANCH   3   5
ENDBRANCH   1   3
BRANCH   1  17
HETATM   17  C4  UNK     1      19.049  -6.002  36.360  1.00  0.00     0.037 A 
HETATM   18  C6  UNK     1      18.711  -6.996  37.271  1.00  0.00     0.067 A 
HETATM   19  C2  UNK     1      19.301  -8.256  37.153  1.00  0.00     0.092 A 
HETATM   20  C1  UNK     1      20.222  -8.557  36.149  1.00  0.00     0.004 A 
HETATM   21  O1  UNK     1      18.918  -9.223  38.104  1.00  0.00    -0.275 OA
HETATM   22  C3  UNK     1      20.793  -9.910  36.099  1.00  0.00    -0.043 A 
HETATM   23  C5  UNK     1      20.550  -7.541  35.241  1.00  0.00     0.017 A 
HETATM   24  C8  UNK     1      20.411 -10.810  37.018  1.00  0.00     0.090 A 
HETATM   25  C9  UNK     1      21.787 -10.266  35.032  1.00  0.00     0.049 C 
HETATM   26  C10 UNK     1      19.440 -10.508  38.083  1.00  0.00     0.288 A 
HETATM   27  O2  UNK     1      19.115 -11.356  38.906  1.00  0.00    -0.260 OA
HETATM   28  C7  UNK     1      19.967  -6.273  35.347  1.00  0.00     0.030 A 
ENDBRANCH   1  17
TORSDOF 6
ENDMDL
