MODEL 1
REMARK VINA RESULT:      -8.4      0.000      0.000
REMARK  8 active torsions:
REMARK  status: ('A' for Active; 'I' for Inactive)
REMARK    1  A    between atoms: C18_24  and  S2_2 
REMARK    2  A    between atoms: C11_17  and  O1_3 
REMARK    3  A    between atoms: C16_22  and  O1_3 
REMARK    4  A    between atoms: C17_23  and  O3_5 
REMARK    5  A    between atoms: C19_25  and  O3_5 
REMARK    6  A    between atoms: C5_11  and  C6_12 
REMARK    7  A    between atoms: C16_22  and  C19_25 
REMARK    8  A    between atoms: C17_23  and  C18_24 
ROOT
HETATM    1  C5  UNK     1      18.904   6.090  32.609  1.00  0.00    -0.035 A 
HETATM    2  C9  UNK     1      18.427   5.060  33.401  1.00  0.00     0.014 A 
HETATM    3  C10 UNK     1      19.075   5.932  31.244  1.00  0.00     0.014 A 
HETATM    4  C11 UNK     1      18.277   3.660  31.437  1.00  0.00     0.069 A 
HETATM    5  C14 UNK     1      18.111   3.836  32.811  1.00  0.00     0.037 A 
HETATM    6  C15 UNK     1      18.759   4.709  30.654  1.00  0.00     0.037 A 
ENDROOT
BRANCH   1   7
HETATM    7  C6  UNK     1      19.238   7.384  33.233  1.00  0.00     0.034 C 
HETATM    8  C3  UNK     1      18.392   8.394  33.438  1.00  0.00     0.057 A 
HETATM    9  S1  UNK     1      18.808   9.908  34.174  1.00  0.00    -0.086 SA
HETATM   10  C4  UNK     1      16.958   8.332  33.047  1.00  0.00     0.200 A 
HETATM   11  C2  UNK     1      17.147  10.505  34.000  1.00  0.00     0.020 A 
HETATM   12  C1  UNK     1      16.287   9.590  33.398  1.00  0.00     0.032 A 
HETATM   13  C8  UNK     1      16.674  11.748  34.396  1.00  0.00     0.020 A 
HETATM   14  C7  UNK     1      14.949   9.877  33.175  1.00  0.00     0.017 A 
HETATM   15  C12 UNK     1      14.471  11.126  33.572  1.00  0.00     0.001 A 
HETATM   16  C13 UNK     1      15.328  12.055  34.179  1.00  0.00     0.001 A 
HETATM   17  O2  UNK     1      16.404   7.388  32.514  1.00  0.00    -0.286 OA
ENDBRANCH   1   7
BRANCH   4  18
HETATM   18  O1  UNK     1      17.969   2.467  30.860  1.00  0.00    -0.342 OA
BRANCH  18  19
HETATM   19  C16 UNK     1      19.045   1.723  30.290  1.00  0.00     0.286 C 
BRANCH  19  20
HETATM   20  C19 UNK     1      18.705   1.395  28.860  1.00  0.00     0.283 C 
HETATM   21  O4  UNK     1      17.957   2.051  28.149  1.00  0.00    -0.263 OA
BRANCH  20  22
HETATM   22  O3  UNK     1      19.368   0.258  28.497  1.00  0.00    -0.319 OA
BRANCH  22  23
HETATM   23  C17 UNK     1      20.387  -0.177  29.404  1.00  0.00     0.189 C 
BRANCH  23  24
HETATM   24  C18 UNK     1      20.244  -1.667  29.673  1.00  0.00     0.100 C 
BRANCH  24  25
HETATM   25  S2  UNK     1      20.604  -2.066  31.411  1.00  0.00    -0.171 SA
HETATM   26  C20 UNK     1      19.112  -1.365  32.151  1.00  0.00     0.089 C 
ENDBRANCH  24  25
ENDBRANCH  23  24
ENDBRANCH  22  23
ENDBRANCH  20  22
ENDBRANCH  19  20
ENDBRANCH  18  19
ENDBRANCH   4  18
TORSDOF 8
ENDMDL
MODEL 2
REMARK VINA RESULT:      -8.2      1.748      2.248
REMARK  8 active torsions:
REMARK  status: ('A' for Active; 'I' for Inactive)
REMARK    1  A    between atoms: C18_24  and  S2_2 
REMARK    2  A    between atoms: C11_17  and  O1_3 
REMARK    3  A    between atoms: C16_22  and  O1_3 
REMARK    4  A    between atoms: C17_23  and  O3_5 
REMARK    5  A    between atoms: C19_25  and  O3_5 
REMARK    6  A    between atoms: C5_11  and  C6_12 
REMARK    7  A    between atoms: C16_22  and  C19_25 
REMARK    8  A    between atoms: C17_23  and  C18_24 
ROOT
HETATM    1  C5  UNK     1      18.815   5.451  32.217  1.00  0.00    -0.035 A 
HETATM    2  C9  UNK     1      18.291   4.394  32.942  1.00  0.00     0.014 A 
HETATM    3  C10 UNK     1      19.100   5.330  30.867  1.00  0.00     0.014 A 
HETATM    4  C11 UNK     1      18.328   3.042  30.940  1.00  0.00     0.069 A 
HETATM    5  C14 UNK     1      18.046   3.180  32.300  1.00  0.00     0.037 A 
HETATM    6  C15 UNK     1      18.855   4.117  30.225  1.00  0.00     0.037 A 
ENDROOT
BRANCH   1   7
HETATM    7  C6  UNK     1      19.074   6.734  32.898  1.00  0.00     0.034 C 
HETATM    8  C3  UNK     1      18.169   7.681  33.149  1.00  0.00     0.057 A 
HETATM    9  S1  UNK     1      18.498   9.183  33.951  1.00  0.00    -0.086 SA
HETATM   10  C4  UNK     1      16.740   7.550  32.760  1.00  0.00     0.200 A 
HETATM   11  C2  UNK     1      16.803   9.687  33.807  1.00  0.00     0.020 A 
HETATM   12  C1  UNK     1      15.997   8.749  33.168  1.00  0.00     0.032 A 
HETATM   13  C8  UNK     1      16.259  10.880  34.259  1.00  0.00     0.020 A 
HETATM   14  C7  UNK     1      14.642   8.964  32.961  1.00  0.00     0.017 A 
HETATM   15  C12 UNK     1      14.092  10.164  33.414  1.00  0.00     0.001 A 
HETATM   16  C13 UNK     1      14.895  11.115  34.060  1.00  0.00     0.001 A 
HETATM   17  O2  UNK     1      16.240   6.599  32.187  1.00  0.00    -0.286 OA
ENDBRANCH   1   7
BRANCH   4  18
HETATM   18  O1  UNK     1      18.089   1.859  30.312  1.00  0.00    -0.342 OA
BRANCH  18  19
HETATM   19  C16 UNK     1      19.223   1.138  29.830  1.00  0.00     0.286 C 
BRANCH  19  20
HETATM   20  C19 UNK     1      19.723   0.232  30.924  1.00  0.00     0.283 C 
HETATM   21  O4  UNK     1      20.901  -0.003  31.156  1.00  0.00    -0.263 OA
BRANCH  20  22
HETATM   22  O3  UNK     1      18.653  -0.272  31.606  1.00  0.00    -0.319 OA
BRANCH  22  23
HETATM   23  C17 UNK     1      18.973  -1.138  32.700  1.00  0.00     0.189 C 
BRANCH  23  24
HETATM   24  C18 UNK     1      18.282  -0.655  33.966  1.00  0.00     0.100 C 
BRANCH  24  25
HETATM   25  S2  UNK     1      19.095  -1.307  35.457  1.00  0.00    -0.171 SA
HETATM   26  C20 UNK     1      17.744  -1.038  36.626  1.00  0.00     0.089 C 
ENDBRANCH  24  25
ENDBRANCH  23  24
ENDBRANCH  22  23
ENDBRANCH  20  22
ENDBRANCH  19  20
ENDBRANCH  18  19
ENDBRANCH   4  18
TORSDOF 8
ENDMDL
MODEL 3
REMARK VINA RESULT:      -7.6      6.354     12.639
REMARK  8 active torsions:
REMARK  status: ('A' for Active; 'I' for Inactive)
REMARK    1  A    between atoms: C18_24  and  S2_2 
REMARK    2  A    between atoms: C11_17  and  O1_3 
REMARK    3  A    between atoms: C16_22  and  O1_3 
REMARK    4  A    between atoms: C17_23  and  O3_5 
REMARK    5  A    between atoms: C19_25  and  O3_5 
REMARK    6  A    between atoms: C5_11  and  C6_12 
REMARK    7  A    between atoms: C16_22  and  C19_25 
REMARK    8  A    between atoms: C17_23  and  C18_24 
ROOT
HETATM    1  C5  UNK     1      20.164  -3.103  36.798  1.00  0.00    -0.035 A 
HETATM    2  C9  UNK     1      20.467  -2.900  35.462  1.00  0.00     0.014 A 
HETATM    3  C10 UNK     1      19.102  -2.453  37.404  1.00  0.00     0.014 A 
HETATM    4  C11 UNK     1      18.612  -1.359  35.306  1.00  0.00     0.069 A 
HETATM    5  C14 UNK     1      19.686  -2.022  34.710  1.00  0.00     0.037 A 
HETATM    6  C15 UNK     1      18.321  -1.576  36.653  1.00  0.00     0.037 A 
ENDROOT
BRANCH   1   7
HETATM    7  C6  UNK     1      20.991  -4.031  37.591  1.00  0.00     0.034 C 
HETATM    8  C3  UNK     1      20.777  -5.340  37.735  1.00  0.00     0.057 A 
HETATM    9  S1  UNK     1      21.763  -6.412  38.676  1.00  0.00    -0.086 SA
HETATM   10  C4  UNK     1      19.637  -6.043  37.089  1.00  0.00     0.200 A 
HETATM   11  C2  UNK     1      20.735  -7.797  38.263  1.00  0.00     0.020 A 
HETATM   12  C1  UNK     1      19.666  -7.469  37.434  1.00  0.00     0.032 A 
HETATM   13  C8  UNK     1      20.912  -9.107  38.685  1.00  0.00     0.020 A 
HETATM   14  C7  UNK     1      18.751  -8.419  37.004  1.00  0.00     0.017 A 
HETATM   15  C12 UNK     1      18.926  -9.737  37.428  1.00  0.00     0.001 A 
HETATM   16  C13 UNK     1      20.000 -10.079  38.262  1.00  0.00     0.001 A 
HETATM   17  O2  UNK     1      18.794  -5.529  36.375  1.00  0.00    -0.286 OA
ENDBRANCH   1   7
BRANCH   4  18
HETATM   18  O1  UNK     1      17.849  -0.503  34.574  1.00  0.00    -0.342 OA
BRANCH  18  19
HETATM   19  C16 UNK     1      18.240   0.870  34.565  1.00  0.00     0.286 C 
BRANCH  19  20
HETATM   20  C19 UNK     1      18.271   1.356  33.139  1.00  0.00     0.283 C 
HETATM   21  O4  UNK     1      17.837   2.433  32.756  1.00  0.00    -0.263 OA
BRANCH  20  22
HETATM   22  O3  UNK     1      18.861   0.403  32.359  1.00  0.00    -0.319 OA
BRANCH  22  23
HETATM   23  C17 UNK     1      19.072   0.770  30.992  1.00  0.00     0.189 C 
BRANCH  23  24
HETATM   24  C18 UNK     1      20.458   0.337  30.543  1.00  0.00     0.100 C 
BRANCH  24  25
HETATM   25  S2  UNK     1      20.380  -1.112  29.447  1.00  0.00    -0.171 SA
HETATM   26  C20 UNK     1      20.424  -2.398  30.716  1.00  0.00     0.089 C 
ENDBRANCH  24  25
ENDBRANCH  23  24
ENDBRANCH  22  23
ENDBRANCH  20  22
ENDBRANCH  19  20
ENDBRANCH  18  19
ENDBRANCH   4  18
TORSDOF 8
ENDMDL
MODEL 4
REMARK VINA RESULT:      -7.6      6.301     12.809
REMARK  8 active torsions:
REMARK  status: ('A' for Active; 'I' for Inactive)
REMARK    1  A    between atoms: C18_24  and  S2_2 
REMARK    2  A    between atoms: C11_17  and  O1_3 
REMARK    3  A    between atoms: C16_22  and  O1_3 
REMARK    4  A    between atoms: C17_23  and  O3_5 
REMARK    5  A    between atoms: C19_25  and  O3_5 
REMARK    6  A    between atoms: C5_11  and  C6_12 
REMARK    7  A    between atoms: C16_22  and  C19_25 
REMARK    8  A    between atoms: C17_23  and  C18_24 
ROOT
HETATM    1  C5  UNK     1      20.154  -3.079  36.999  1.00  0.00    -0.035 A 
HETATM    2  C9  UNK     1      19.096  -2.515  37.691  1.00  0.00     0.014 A 
HETATM    3  C10 UNK     1      20.420  -2.738  35.683  1.00  0.00     0.014 A 
HETATM    4  C11 UNK     1      18.533  -1.229  35.724  1.00  0.00     0.069 A 
HETATM    5  C14 UNK     1      18.279  -1.584  37.050  1.00  0.00     0.037 A 
HETATM    6  C15 UNK     1      19.604  -1.807  35.042  1.00  0.00     0.037 A 
ENDROOT
BRANCH   1   7
HETATM    7  C6  UNK     1      21.017  -4.064  37.678  1.00  0.00     0.034 C 
HETATM    8  C3  UNK     1      20.808  -5.381  37.729  1.00  0.00     0.057 A 
HETATM    9  S1  UNK     1      21.837  -6.520  38.535  1.00  0.00    -0.086 SA
HETATM   10  C4  UNK     1      19.639  -6.035  37.082  1.00  0.00     0.200 A 
HETATM   11  C2  UNK     1      20.791  -7.872  38.063  1.00  0.00     0.020 A 
HETATM   12  C1  UNK     1      19.684  -7.484  37.313  1.00  0.00     0.032 A 
HETATM   13  C8  UNK     1      20.987  -9.210  38.372  1.00  0.00     0.020 A 
HETATM   14  C7  UNK     1      18.750  -8.400  36.853  1.00  0.00     0.017 A 
HETATM   15  C12 UNK     1      18.944  -9.746  37.164  1.00  0.00     0.001 A 
HETATM   16  C13 UNK     1      20.055 -10.149  37.918  1.00  0.00     0.001 A 
HETATM   17  O2  UNK     1      18.764  -5.470  36.451  1.00  0.00    -0.286 OA
ENDBRANCH   1   7
BRANCH   4  18
HETATM   18  O1  UNK     1      17.738  -0.320  35.098  1.00  0.00    -0.342 OA
BRANCH  18  19
HETATM   19  C16 UNK     1      18.188   0.178  33.838  1.00  0.00     0.286 C 
BRANCH  19  20
HETATM   20  C19 UNK     1      18.071   1.680  33.840  1.00  0.00     0.283 C 
HETATM   21  O4  UNK     1      18.237   2.395  34.818  1.00  0.00    -0.263 OA
BRANCH  20  22
HETATM   22  O3  UNK     1      17.754   2.101  32.580  1.00  0.00    -0.319 OA
BRANCH  22  23
HETATM   23  C17 UNK     1      18.199   3.419  32.242  1.00  0.00     0.189 C 
BRANCH  23  24
HETATM   24  C18 UNK     1      18.591   3.476  30.774  1.00  0.00     0.100 C 
BRANCH  24  25
HETATM   25  S2  UNK     1      18.926   1.817  30.110  1.00  0.00    -0.171 SA
HETATM   26  C20 UNK     1      17.837   1.889  28.671  1.00  0.00     0.089 C 
ENDBRANCH  24  25
ENDBRANCH  23  24
ENDBRANCH  22  23
ENDBRANCH  20  22
ENDBRANCH  19  20
ENDBRANCH  18  19
ENDBRANCH   4  18
TORSDOF 8
ENDMDL
MODEL 5
REMARK VINA RESULT:      -7.5      1.691      2.361
REMARK  8 active torsions:
REMARK  status: ('A' for Active; 'I' for Inactive)
REMARK    1  A    between atoms: C18_24  and  S2_2 
REMARK    2  A    between atoms: C11_17  and  O1_3 
REMARK    3  A    between atoms: C16_22  and  O1_3 
REMARK    4  A    between atoms: C17_23  and  O3_5 
REMARK    5  A    between atoms: C19_25  and  O3_5 
REMARK    6  A    between atoms: C5_11  and  C6_12 
REMARK    7  A    between atoms: C16_22  and  C19_25 
REMARK    8  A    between atoms: C17_23  and  C18_24 
ROOT
HETATM    1  C5  UNK     1      18.707   6.070  33.154  1.00  0.00    -0.035 A 
HETATM    2  C9  UNK     1      18.739   5.238  34.261  1.00  0.00     0.014 A 
HETATM    3  C10 UNK     1      18.413   5.582  31.892  1.00  0.00     0.014 A 
HETATM    4  C11 UNK     1      18.171   3.371  32.836  1.00  0.00     0.069 A 
HETATM    5  C14 UNK     1      18.469   3.879  34.101  1.00  0.00     0.037 A 
HETATM    6  C15 UNK     1      18.143   4.223  31.732  1.00  0.00     0.037 A 
ENDROOT
BRANCH   1   7
HETATM    7  C6  UNK     1      18.993   7.507  33.324  1.00  0.00     0.034 C 
HETATM    8  C3  UNK     1      18.105   8.446  33.652  1.00  0.00     0.057 A 
HETATM    9  S1  UNK     1      18.464  10.131  33.845  1.00  0.00    -0.086 SA
HETATM   10  C4  UNK     1      16.668   8.144  33.894  1.00  0.00     0.200 A 
HETATM   11  C2  UNK     1      16.775  10.496  34.243  1.00  0.00     0.020 A 
HETATM   12  C1  UNK     1      15.946   9.376  34.232  1.00  0.00     0.032 A 
HETATM   13  C8  UNK     1      16.252  11.745  34.545  1.00  0.00     0.020 A 
HETATM   14  C7  UNK     1      14.592   9.462  34.517  1.00  0.00     0.017 A 
HETATM   15  C12 UNK     1      14.064  10.718  34.820  1.00  0.00     0.001 A 
HETATM   16  C13 UNK     1      14.888  11.852  34.835  1.00  0.00     0.001 A 
HETATM   17  O2  UNK     1      16.149   7.045  33.826  1.00  0.00    -0.286 OA
ENDBRANCH   1   7
BRANCH   4  18
HETATM   18  O1  UNK     1      17.907   2.045  32.679  1.00  0.00    -0.342 OA
BRANCH  18  19
HETATM   19  C16 UNK     1      18.111   1.203  33.814  1.00  0.00     0.286 C 
BRANCH  19  20
HETATM   20  C19 UNK     1      18.207  -0.225  33.347  1.00  0.00     0.283 C 
HETATM   21  O4  UNK     1      17.300  -1.044  33.402  1.00  0.00    -0.263 OA
BRANCH  20  22
HETATM   22  O3  UNK     1      19.461  -0.447  32.856  1.00  0.00    -0.319 OA
BRANCH  22  23
HETATM   23  C17 UNK     1      19.522  -1.194  31.636  1.00  0.00     0.189 C 
BRANCH  23  24
HETATM   24  C18 UNK     1      20.719  -0.750  30.811  1.00  0.00     0.100 C 
BRANCH  24  25
HETATM   25  S2  UNK     1      20.256  -0.437  29.080  1.00  0.00    -0.171 SA
HETATM   26  C20 UNK     1      19.219   1.018  29.350  1.00  0.00     0.089 C 
ENDBRANCH  24  25
ENDBRANCH  23  24
ENDBRANCH  22  23
ENDBRANCH  20  22
ENDBRANCH  19  20
ENDBRANCH  18  19
ENDBRANCH   4  18
TORSDOF 8
ENDMDL
MODEL 6
REMARK VINA RESULT:      -7.4      6.290     12.961
REMARK  8 active torsions:
REMARK  status: ('A' for Active; 'I' for Inactive)
REMARK    1  A    between atoms: C18_24  and  S2_2 
REMARK    2  A    between atoms: C11_17  and  O1_3 
REMARK    3  A    between atoms: C16_22  and  O1_3 
REMARK    4  A    between atoms: C17_23  and  O3_5 
REMARK    5  A    between atoms: C19_25  and  O3_5 
REMARK    6  A    between atoms: C5_11  and  C6_12 
REMARK    7  A    between atoms: C16_22  and  C19_25 
REMARK    8  A    between atoms: C17_23  and  C18_24 
ROOT
HETATM    1  C5  UNK     1      20.174  -3.014  36.914  1.00  0.00    -0.035 A 
HETATM    2  C9  UNK     1      19.157  -2.397  37.622  1.00  0.00     0.014 A 
HETATM    3  C10 UNK     1      20.370  -2.765  35.566  1.00  0.00     0.014 A 
HETATM    4  C11 UNK     1      18.493  -1.243  35.605  1.00  0.00     0.069 A 
HETATM    5  C14 UNK     1      18.310  -1.505  36.964  1.00  0.00     0.037 A 
HETATM    6  C15 UNK     1      19.523  -1.874  34.907  1.00  0.00     0.037 A 
ENDROOT
BRANCH   1   7
HETATM    7  C6  UNK     1      21.069  -3.956  37.612  1.00  0.00     0.034 C 
HETATM    8  C3  UNK     1      20.872  -5.269  37.743  1.00  0.00     0.057 A 
HETATM    9  S1  UNK     1      21.938  -6.358  38.569  1.00  0.00    -0.086 SA
HETATM   10  C4  UNK     1      19.682  -5.962  37.180  1.00  0.00     0.200 A 
HETATM   11  C2  UNK     1      20.883  -7.738  38.214  1.00  0.00     0.020 A 
HETATM   12  C1  UNK     1      19.745  -7.396  37.488  1.00  0.00     0.032 A 
HETATM   13  C8  UNK     1      21.099  -9.056  38.588  1.00  0.00     0.020 A 
HETATM   14  C7  UNK     1      18.799  -8.341  37.116  1.00  0.00     0.017 A 
HETATM   15  C12 UNK     1      19.014  -9.667  37.492  1.00  0.00     0.001 A 
HETATM   16  C13 UNK     1      20.157 -10.023  38.223  1.00  0.00     0.001 A 
HETATM   17  O2  UNK     1      18.779  -5.437  36.554  1.00  0.00    -0.286 OA
ENDBRANCH   1   7
BRANCH   4  18
HETATM   18  O1  UNK     1      17.668  -0.374  34.962  1.00  0.00    -0.342 OA
BRANCH  18  19
HETATM   19  C16 UNK     1      18.134   0.966  34.802  1.00  0.00     0.286 C 
BRANCH  19  20
HETATM   20  C19 UNK     1      18.286   1.254  33.331  1.00  0.00     0.283 C 
HETATM   21  O4  UNK     1      18.847   0.522  32.527  1.00  0.00    -0.263 OA
BRANCH  20  22
HETATM   22  O3  UNK     1      17.697   2.454  33.052  1.00  0.00    -0.319 OA
BRANCH  22  23
HETATM   23  C17 UNK     1      18.249   3.585  33.734  1.00  0.00     0.189 C 
BRANCH  23  24
HETATM   24  C18 UNK     1      18.183   4.815  32.843  1.00  0.00     0.100 C 
BRANCH  24  25
HETATM   25  S2  UNK     1      19.318   6.114  33.417  1.00  0.00    -0.171 SA
HETATM   26  C20 UNK     1      18.291   7.548  33.024  1.00  0.00     0.089 C 
ENDBRANCH  24  25
ENDBRANCH  23  24
ENDBRANCH  22  23
ENDBRANCH  20  22
ENDBRANCH  19  20
ENDBRANCH  18  19
ENDBRANCH   4  18
TORSDOF 8
ENDMDL
MODEL 7
REMARK VINA RESULT:      -7.2      1.766      2.713
REMARK  8 active torsions:
REMARK  status: ('A' for Active; 'I' for Inactive)
REMARK    1  A    between atoms: C18_24  and  S2_2 
REMARK    2  A    between atoms: C11_17  and  O1_3 
REMARK    3  A    between atoms: C16_22  and  O1_3 
REMARK    4  A    between atoms: C17_23  and  O3_5 
REMARK    5  A    between atoms: C19_25  and  O3_5 
REMARK    6  A    between atoms: C5_11  and  C6_12 
REMARK    7  A    between atoms: C16_22  and  C19_25 
REMARK    8  A    between atoms: C17_23  and  C18_24 
ROOT
HETATM    1  C5  UNK     1      16.616   7.272  33.433  1.00  0.00    -0.035 A 
HETATM    2  C9  UNK     1      17.473   6.503  34.201  1.00  0.00     0.014 A 
HETATM    3  C10 UNK     1      16.635   7.212  32.049  1.00  0.00     0.014 A 
HETATM    4  C11 UNK     1      18.409   5.577  32.175  1.00  0.00     0.069 A 
HETATM    5  C14 UNK     1      18.377   5.649  33.568  1.00  0.00     0.037 A 
HETATM    6  C15 UNK     1      17.538   6.360  31.416  1.00  0.00     0.037 A 
ENDROOT
BRANCH   1   7
HETATM    7  C6  UNK     1      15.661   8.175  34.103  1.00  0.00     0.034 C 
HETATM    8  C3  UNK     1      15.856   9.470  34.357  1.00  0.00     0.057 A 
HETATM    9  S1  UNK     1      14.718  10.511  35.148  1.00  0.00    -0.086 SA
HETATM   10  C4  UNK     1      17.106  10.183  33.979  1.00  0.00     0.200 A 
HETATM   11  C2  UNK     1      15.819  11.896  35.016  1.00  0.00     0.020 A 
HETATM   12  C1  UNK     1      17.025  11.589  34.389  1.00  0.00     0.032 A 
HETATM   13  C8  UNK     1      15.577  13.185  35.466  1.00  0.00     0.020 A 
HETATM   14  C7  UNK     1      18.014  12.542  34.195  1.00  0.00     0.017 A 
HETATM   15  C12 UNK     1      17.773  13.839  34.649  1.00  0.00     0.001 A 
HETATM   16  C13 UNK     1      16.562  14.159  35.280  1.00  0.00     0.001 A 
HETATM   17  O2  UNK     1      18.065   9.690  33.413  1.00  0.00    -0.286 OA
ENDBRANCH   1   7
BRANCH   4  18
HETATM   18  O1  UNK     1      19.290   4.745  31.556  1.00  0.00    -0.342 OA
BRANCH  18  19
HETATM   19  C16 UNK     1      18.889   4.190  30.303  1.00  0.00     0.286 C 
BRANCH  19  20
HETATM   20  C19 UNK     1      18.268   2.840  30.547  1.00  0.00     0.283 C 
HETATM   21  O4  UNK     1      17.211   2.650  31.133  1.00  0.00    -0.263 OA
BRANCH  20  22
HETATM   22  O3  UNK     1      19.073   1.878  30.007  1.00  0.00    -0.319 OA
BRANCH  22  23
HETATM   23  C17 UNK     1      19.310   0.737  30.838  1.00  0.00     0.189 C 
BRANCH  23  24
HETATM   24  C18 UNK     1      20.594   0.041  30.414  1.00  0.00     0.100 C 
BRANCH  24  25
HETATM   25  S2  UNK     1      20.311  -1.722  30.067  1.00  0.00    -0.171 SA
HETATM   26  C20 UNK     1      20.637  -2.367  31.723  1.00  0.00     0.089 C 
ENDBRANCH  24  25
ENDBRANCH  23  24
ENDBRANCH  22  23
ENDBRANCH  20  22
ENDBRANCH  19  20
ENDBRANCH  18  19
ENDBRANCH   4  18
TORSDOF 8
ENDMDL
MODEL 8
REMARK VINA RESULT:      -7.1      2.431      3.062
REMARK  8 active torsions:
REMARK  status: ('A' for Active; 'I' for Inactive)
REMARK    1  A    between atoms: C18_24  and  S2_2 
REMARK    2  A    between atoms: C11_17  and  O1_3 
REMARK    3  A    between atoms: C16_22  and  O1_3 
REMARK    4  A    between atoms: C17_23  and  O3_5 
REMARK    5  A    between atoms: C19_25  and  O3_5 
REMARK    6  A    between atoms: C5_11  and  C6_12 
REMARK    7  A    between atoms: C16_22  and  C19_25 
REMARK    8  A    between atoms: C17_23  and  C18_24 
ROOT
HETATM    1  C5  UNK     1      18.675   6.511  32.989  1.00  0.00    -0.035 A 
HETATM    2  C9  UNK     1      18.638   5.618  34.045  1.00  0.00     0.014 A 
HETATM    3  C10 UNK     1      18.474   6.095  31.683  1.00  0.00     0.014 A 
HETATM    4  C11 UNK     1      18.188   3.832  32.481  1.00  0.00     0.069 A 
HETATM    5  C14 UNK     1      18.393   4.268  33.790  1.00  0.00     0.037 A 
HETATM    6  C15 UNK     1      18.229   4.746  31.428  1.00  0.00     0.037 A 
ENDROOT
BRANCH   1   7
HETATM    7  C6  UNK     1      18.935   7.938  33.260  1.00  0.00     0.034 C 
HETATM    8  C3  UNK     1      18.027   8.838  33.639  1.00  0.00     0.057 A 
HETATM    9  S1  UNK     1      18.355  10.512  33.951  1.00  0.00    -0.086 SA
HETATM   10  C4  UNK     1      16.593   8.498  33.841  1.00  0.00     0.200 A 
HETATM   11  C2  UNK     1      16.656  10.822  34.350  1.00  0.00     0.020 A 
HETATM   12  C1  UNK     1      15.846   9.692  34.252  1.00  0.00     0.032 A 
HETATM   13  C8  UNK     1      16.109  12.039  34.729  1.00  0.00     0.020 A 
HETATM   14  C7  UNK     1      14.487   9.737  34.525  1.00  0.00     0.017 A 
HETATM   15  C12 UNK     1      13.935  10.960  34.906  1.00  0.00     0.001 A 
HETATM   16  C13 UNK     1      14.740  12.104  35.008  1.00  0.00     0.001 A 
HETATM   17  O2  UNK     1      16.093   7.397  33.692  1.00  0.00    -0.286 OA
ENDBRANCH   1   7
BRANCH   4  18
HETATM   18  O1  UNK     1      17.948   2.516  32.231  1.00  0.00    -0.342 OA
BRANCH  18  19
HETATM   19  C16 UNK     1      18.314   1.584  33.248  1.00  0.00     0.286 C 
BRANCH  19  20
HETATM   20  C19 UNK     1      18.745   0.297  32.595  1.00  0.00     0.283 C 
HETATM   21  O4  UNK     1      19.589   0.206  31.714  1.00  0.00    -0.263 OA
BRANCH  20  22
HETATM   22  O3  UNK     1      18.045  -0.736  33.148  1.00  0.00    -0.319 OA
BRANCH  22  23
HETATM   23  C17 UNK     1      18.013  -0.762  34.580  1.00  0.00     0.189 C 
BRANCH  23  24
HETATM   24  C18 UNK     1      16.574  -0.814  35.068  1.00  0.00     0.100 C 
BRANCH  24  25
HETATM   25  S2  UNK     1      16.244   0.476  36.306  1.00  0.00    -0.171 SA
HETATM   26  C20 UNK     1      17.529   0.028  37.494  1.00  0.00     0.089 C 
ENDBRANCH  24  25
ENDBRANCH  23  24
ENDBRANCH  22  23
ENDBRANCH  20  22
ENDBRANCH  19  20
ENDBRANCH  18  19
ENDBRANCH   4  18
TORSDOF 8
ENDMDL
MODEL 9
REMARK VINA RESULT:      -7.0      2.292      3.881
REMARK  8 active torsions:
REMARK  status: ('A' for Active; 'I' for Inactive)
REMARK    1  A    between atoms: C18_24  and  S2_2 
REMARK    2  A    between atoms: C11_17  and  O1_3 
REMARK    3  A    between atoms: C16_22  and  O1_3 
REMARK    4  A    between atoms: C17_23  and  O3_5 
REMARK    5  A    between atoms: C19_25  and  O3_5 
REMARK    6  A    between atoms: C5_11  and  C6_12 
REMARK    7  A    between atoms: C16_22  and  C19_25 
REMARK    8  A    between atoms: C17_23  and  C18_24 
ROOT
HETATM    1  C5  UNK     1      15.795   8.395  34.169  1.00  0.00    -0.035 A 
HETATM    2  C9  UNK     1      15.332   8.052  32.910  1.00  0.00     0.014 A 
HETATM    3  C10 UNK     1      16.757   7.637  34.816  1.00  0.00     0.014 A 
HETATM    4  C11 UNK     1      16.815   6.144  32.917  1.00  0.00     0.069 A 
HETATM    5  C14 UNK     1      15.846   6.919  32.279  1.00  0.00     0.037 A 
HETATM    6  C15 UNK     1      17.270   6.504  34.186  1.00  0.00     0.037 A 
ENDROOT
BRANCH   1   7
HETATM    7  C6  UNK     1      15.252   9.593  34.835  1.00  0.00     0.034 C 
HETATM    8  C3  UNK     1      15.765  10.823  34.771  1.00  0.00     0.057 A 
HETATM    9  S1  UNK     1      15.109  12.217  35.564  1.00  0.00    -0.086 SA
HETATM   10  C4  UNK     1      16.990  11.142  33.990  1.00  0.00     0.200 A 
HETATM   11  C2  UNK     1      16.393  13.252  34.914  1.00  0.00     0.020 A 
HETATM   12  C1  UNK     1      17.306  12.570  34.114  1.00  0.00     0.032 A 
HETATM   13  C8  UNK     1      16.544  14.613  35.135  1.00  0.00     0.020 A 
HETATM   14  C7  UNK     1      18.382  13.210  33.516  1.00  0.00     0.017 A 
HETATM   15  C12 UNK     1      18.536  14.579  33.738  1.00  0.00     0.001 A 
HETATM   16  C13 UNK     1      17.623  15.276  34.542  1.00  0.00     0.001 A 
HETATM   17  O2  UNK     1      17.648  10.350  33.339  1.00  0.00    -0.286 OA
ENDBRANCH   1   7
BRANCH   4  18
HETATM   18  O1  UNK     1      17.317   5.038  32.303  1.00  0.00    -0.342 OA
BRANCH  18  19
HETATM   19  C16 UNK     1      18.732   4.980  32.124  1.00  0.00     0.286 C 
BRANCH  19  20
HETATM   20  C19 UNK     1      19.027   4.719  30.670  1.00  0.00     0.283 C 
HETATM   21  O4  UNK     1      19.242   5.584  29.832  1.00  0.00    -0.263 OA
BRANCH  20  22
HETATM   22  O3  UNK     1      19.015   3.372  30.451  1.00  0.00    -0.319 OA
BRANCH  22  23
HETATM   23  C17 UNK     1      18.395   2.952  29.230  1.00  0.00     0.189 C 
BRANCH  23  24
HETATM   24  C18 UNK     1      18.289   1.436  29.193  1.00  0.00     0.100 C 
BRANCH  24  25
HETATM   25  S2  UNK     1      19.421   0.661  30.388  1.00  0.00    -0.171 SA
HETATM   26  C20 UNK     1      20.407  -0.304  29.221  1.00  0.00     0.089 C 
ENDBRANCH  24  25
ENDBRANCH  23  24
ENDBRANCH  22  23
ENDBRANCH  20  22
ENDBRANCH  19  20
ENDBRANCH  18  19
ENDBRANCH   4  18
TORSDOF 8
ENDMDL
MODEL 10
REMARK VINA RESULT:      -6.9     16.947     20.914
REMARK  8 active torsions:
REMARK  status: ('A' for Active; 'I' for Inactive)
REMARK    1  A    between atoms: C18_24  and  S2_2 
REMARK    2  A    between atoms: C11_17  and  O1_3 
REMARK    3  A    between atoms: C16_22  and  O1_3 
REMARK    4  A    between atoms: C17_23  and  O3_5 
REMARK    5  A    between atoms: C19_25  and  O3_5 
REMARK    6  A    between atoms: C5_11  and  C6_12 
REMARK    7  A    between atoms: C16_22  and  C19_25 
REMARK    8  A    between atoms: C17_23  and  C18_24 
ROOT
HETATM    1  C5  UNK     1      34.319  -5.321  36.236  1.00  0.00    -0.035 A 
HETATM    2  C9  UNK     1      33.675  -5.866  37.334  1.00  0.00     0.014 A 
HETATM    3  C10 UNK     1      33.792  -4.237  35.554  1.00  0.00     0.014 A 
HETATM    4  C11 UNK     1      31.923  -4.220  37.086  1.00  0.00     0.069 A 
HETATM    5  C14 UNK     1      32.468  -5.312  37.762  1.00  0.00     0.037 A 
HETATM    6  C15 UNK     1      32.586  -3.683  35.982  1.00  0.00     0.037 A 
ENDROOT
BRANCH   1   7
HETATM    7  C6  UNK     1      35.594  -5.908  35.784  1.00  0.00     0.034 C 
HETATM    8  C3  UNK     1      35.738  -6.809  34.812  1.00  0.00     0.057 A 
HETATM    9  S1  UNK     1      37.249  -7.486  34.299  1.00  0.00    -0.086 SA
HETATM   10  C4  UNK     1      34.587  -7.349  34.040  1.00  0.00     0.200 A 
HETATM   11  C2  UNK     1      36.442  -8.484  33.075  1.00  0.00     0.020 A 
HETATM   12  C1  UNK     1      35.060  -8.319  33.046  1.00  0.00     0.032 A 
HETATM   13  C8  UNK     1      37.056  -9.366  32.197  1.00  0.00     0.020 A 
HETATM   14  C7  UNK     1      34.256  -9.016  32.156  1.00  0.00     0.017 A 
HETATM   15  C12 UNK     1      34.871  -9.904  31.273  1.00  0.00     0.001 A 
HETATM   16  C13 UNK     1      36.262 -10.078  31.293  1.00  0.00     0.001 A 
HETATM   17  O2  UNK     1      33.418  -7.044  34.195  1.00  0.00    -0.286 OA
ENDBRANCH   1   7
BRANCH   4  18
HETATM   18  O1  UNK     1      30.747  -3.678  37.503  1.00  0.00    -0.342 OA
BRANCH  18  19
HETATM   19  C16 UNK     1      29.646  -4.570  37.675  1.00  0.00     0.286 C 
BRANCH  19  20
HETATM   20  C19 UNK     1      29.019  -4.314  39.021  1.00  0.00     0.283 C 
HETATM   21  O4  UNK     1      29.570  -3.747  39.954  1.00  0.00    -0.263 OA
BRANCH  20  22
HETATM   22  O3  UNK     1      27.749  -4.813  39.020  1.00  0.00    -0.319 OA
BRANCH  22  23
HETATM   23  C17 UNK     1      27.602  -6.123  38.460  1.00  0.00     0.189 C 
BRANCH  23  24
HETATM   24  C18 UNK     1      28.031  -7.174  39.472  1.00  0.00     0.100 C 
BRANCH  24  25
HETATM   25  S2  UNK     1      28.242  -8.802  38.690  1.00  0.00    -0.171 SA
HETATM   26  C20 UNK     1      27.057  -9.726  39.692  1.00  0.00     0.089 C 
ENDBRANCH  24  25
ENDBRANCH  23  24
ENDBRANCH  22  23
ENDBRANCH  20  22
ENDBRANCH  19  20
ENDBRANCH  18  19
ENDBRANCH   4  18
TORSDOF 8
ENDMDL
