MODEL 1
REMARK VINA RESULT:      -9.8      0.000      0.000
REMARK  1 active torsions:
REMARK  status: ('A' for Active; 'I' for Inactive)
REMARK    1  A    between atoms: C7_12  and  C8_13 
ROOT
HETATM    1  O1  UNK     1      17.481   3.960  30.870  1.00  0.00    -0.332 OA
HETATM    2  O2  UNK     1      19.976  -0.120  31.776  1.00  0.00    -0.274 OA
HETATM    3  O3  UNK     1      18.596   4.172  34.297  1.00  0.00    -0.289 OA
HETATM    4  O4  UNK     1      21.208  -2.019  32.125  1.00  0.00    -0.260 OA
HETATM    5  C6  UNK     1      18.088   4.633  31.975  1.00  0.00     0.125 C 
HETATM    6  C7  UNK     1      18.610   2.281  32.841  1.00  0.00     0.044 C 
HETATM    7  C9  UNK     1      18.656   1.895  31.422  1.00  0.00     0.048 A 
HETATM    8  C10 UNK     1      18.437   3.730  33.161  1.00  0.00     0.196 C 
HETATM    9  C11 UNK     1      18.055   2.769  30.504  1.00  0.00     0.084 A 
HETATM   10  C12 UNK     1      17.053   5.668  32.437  1.00  0.00     0.055 C 
HETATM   11  C13 UNK     1      19.353   5.361  31.503  1.00  0.00     0.055 C 
HETATM   12  C14 UNK     1      19.264   0.738  30.903  1.00  0.00     0.103 A 
HETATM   13  C15 UNK     1      19.217   0.421  29.541  1.00  0.00    -0.001 A 
HETATM   14  C16 UNK     1      17.979   2.452  29.144  1.00  0.00     0.039 A 
HETATM   15  C17 UNK     1      18.556   1.279  28.663  1.00  0.00     0.017 A 
HETATM   16  C18 UNK     1      19.858  -0.796  29.068  1.00  0.00     0.020 A 
HETATM   17  C19 UNK     1      20.508  -1.597  29.916  1.00  0.00     0.083 A 
HETATM   18  C20 UNK     1      20.604  -1.285  31.351  1.00  0.00     0.288 A 
ENDROOT
BRANCH   6  19
HETATM   19  C8  UNK     1      18.589   1.427  33.876  1.00  0.00     0.101 C 
HETATM   20  N1  UNK     1      17.640   1.321  34.851  1.00  0.00    -0.389 N 
HETATM   21  C1  UNK     1      16.428   0.520  34.678  1.00  0.00     0.122 C 
HETATM   22  C2  UNK     1      17.716   2.083  36.099  1.00  0.00     0.122 C 
HETATM   23  C3  UNK     1      16.273  -0.449  35.849  1.00  0.00     0.020 C 
HETATM   24  C5  UNK     1      16.321   0.285  37.187  1.00  0.00     0.003 C 
HETATM   25  C4  UNK     1      17.583   1.138  37.293  1.00  0.00     0.020 C 
ENDBRANCH   6  19
TORSDOF 1
ENDMDL
MODEL 2
REMARK VINA RESULT:      -9.2     12.760     16.314
REMARK  1 active torsions:
REMARK  status: ('A' for Active; 'I' for Inactive)
REMARK    1  A    between atoms: C7_12  and  C8_13 
ROOT
HETATM    1  O1  UNK     1      32.962  -8.631  36.623  1.00  0.00    -0.332 OA
HETATM    2  O2  UNK     1      28.619  -6.659  37.591  1.00  0.00    -0.274 OA
HETATM    3  O3  UNK     1      33.048  -5.262  35.329  1.00  0.00    -0.289 OA
HETATM    4  O4  UNK     1      26.589  -5.753  38.142  1.00  0.00    -0.260 OA
HETATM    5  C6  UNK     1      33.561  -7.345  36.452  1.00  0.00     0.125 C 
HETATM    6  C7  UNK     1      31.166  -6.518  36.088  1.00  0.00     0.044 C 
HETATM    7  C9  UNK     1      30.775  -7.616  36.987  1.00  0.00     0.048 A 
HETATM    8  C10 UNK     1      32.625  -6.273  35.885  1.00  0.00     0.196 C 
HETATM    9  C11 UNK     1      31.712  -8.640  37.186  1.00  0.00     0.084 A 
HETATM   10  C12 UNK     1      34.711  -7.562  35.459  1.00  0.00     0.055 C 
HETATM   11  C13 UNK     1      34.135  -6.860  37.789  1.00  0.00     0.055 C 
HETATM   12  C14 UNK     1      29.554  -7.720  37.676  1.00  0.00     0.103 A 
HETATM   13  C15 UNK     1      29.242  -8.827  38.472  1.00  0.00    -0.001 A 
HETATM   14  C16 UNK     1      31.404  -9.764  37.960  1.00  0.00     0.039 A 
HETATM   15  C17 UNK     1      30.170  -9.859  38.600  1.00  0.00     0.017 A 
HETATM   16  C18 UNK     1      27.957  -8.878  39.153  1.00  0.00     0.020 A 
HETATM   17  C19 UNK     1      27.087  -7.872  39.042  1.00  0.00     0.083 A 
HETATM   18  C20 UNK     1      27.388  -6.678  38.236  1.00  0.00     0.288 A 
ENDROOT
BRANCH   6  19
HETATM   19  C8  UNK     1      30.322  -5.793  35.338  1.00  0.00     0.101 C 
HETATM   20  N1  UNK     1      29.843  -6.092  34.095  1.00  0.00    -0.389 N 
HETATM   21  C1  UNK     1      28.665  -6.938  33.895  1.00  0.00     0.122 C 
HETATM   22  C2  UNK     1      30.531  -5.675  32.872  1.00  0.00     0.122 C 
HETATM   23  C3  UNK     1      27.660  -6.226  32.991  1.00  0.00     0.020 C 
HETATM   24  C5  UNK     1      28.309  -5.780  31.682  1.00  0.00     0.003 C 
HETATM   25  C4  UNK     1      29.556  -4.941  31.952  1.00  0.00     0.020 C 
ENDBRANCH   6  19
TORSDOF 1
ENDMDL
MODEL 3
REMARK VINA RESULT:      -9.2     13.061     15.211
REMARK  1 active torsions:
REMARK  status: ('A' for Active; 'I' for Inactive)
REMARK    1  A    between atoms: C7_12  and  C8_13 
ROOT
HETATM    1  O1  UNK     1      27.371  -7.574  37.510  1.00  0.00    -0.332 OA
HETATM    2  O2  UNK     1      31.292  -5.544  35.461  1.00  0.00    -0.274 OA
HETATM    3  O3  UNK     1      28.616  -9.947  35.090  1.00  0.00    -0.289 OA
HETATM    4  O4  UNK     1      33.176  -4.578  34.588  1.00  0.00    -0.260 OA
HETATM    5  C6  UNK     1      27.772  -8.881  37.094  1.00  0.00     0.125 C 
HETATM    6  C7  UNK     1      29.217  -7.655  35.374  1.00  0.00     0.044 C 
HETATM    7  C9  UNK     1      29.283  -6.575  36.372  1.00  0.00     0.048 A 
HETATM    8  C10 UNK     1      28.538  -8.925  35.769  1.00  0.00     0.196 C 
HETATM    9  C11 UNK     1      28.318  -6.590  37.390  1.00  0.00     0.084 A 
HETATM   10  C12 UNK     1      26.467  -9.672  36.929  1.00  0.00     0.055 C 
HETATM   11  C13 UNK     1      28.622  -9.534  38.192  1.00  0.00     0.055 C 
HETATM   12  C14 UNK     1      30.235  -5.541  36.404  1.00  0.00     0.103 A 
HETATM   13  C15 UNK     1      30.193  -4.522  37.362  1.00  0.00    -0.001 A 
HETATM   14  C16 UNK     1      28.250  -5.564  38.338  1.00  0.00     0.039 A 
HETATM   15  C17 UNK     1      29.184  -4.530  38.323  1.00  0.00     0.017 A 
HETATM   16  C18 UNK     1      31.203  -3.476  37.337  1.00  0.00     0.020 A 
HETATM   17  C19 UNK     1      32.179  -3.494  36.426  1.00  0.00     0.083 A 
HETATM   18  C20 UNK     1      32.274  -4.562  35.419  1.00  0.00     0.288 A 
ENDROOT
BRANCH   6  19
HETATM   19  C8  UNK     1      29.611  -7.552  34.095  1.00  0.00     0.101 C 
HETATM   20  N1  UNK     1      28.899  -7.059  33.040  1.00  0.00    -0.389 N 
HETATM   21  C1  UNK     1      28.858  -5.630  32.726  1.00  0.00     0.122 C 
HETATM   22  C2  UNK     1      28.044  -7.909  32.209  1.00  0.00     0.122 C 
HETATM   23  C3  UNK     1      29.228  -5.407  31.261  1.00  0.00     0.020 C 
HETATM   24  C5  UNK     1      28.357  -6.251  30.333  1.00  0.00     0.003 C 
HETATM   25  C4  UNK     1      28.403  -7.724  30.735  1.00  0.00     0.020 C 
ENDBRANCH   6  19
TORSDOF 1
ENDMDL
MODEL 4
REMARK VINA RESULT:      -9.0     12.443     15.571
REMARK  1 active torsions:
REMARK  status: ('A' for Active; 'I' for Inactive)
REMARK    1  A    between atoms: C7_12  and  C8_13 
ROOT
HETATM    1  O1  UNK     1      28.882  -5.143  38.452  1.00  0.00    -0.332 OA
HETATM    2  O2  UNK     1      32.018  -7.653  35.703  1.00  0.00    -0.274 OA
HETATM    3  O3  UNK     1      26.935  -7.572  36.623  1.00  0.00    -0.289 OA
HETATM    4  O4  UNK     1      33.544  -8.856  34.492  1.00  0.00    -0.260 OA
HETATM    5  C6  UNK     1      27.895  -6.171  38.350  1.00  0.00     0.125 C 
HETATM    6  C7  UNK     1      29.208  -6.925  36.284  1.00  0.00     0.044 C 
HETATM    7  C9  UNK     1      30.384  -6.372  36.975  1.00  0.00     0.048 A 
HETATM    8  C10 UNK     1      27.913  -6.947  37.029  1.00  0.00     0.196 C 
HETATM    9  C11 UNK     1      30.142  -5.476  38.027  1.00  0.00     0.084 A 
HETATM   10  C12 UNK     1      26.545  -5.452  38.475  1.00  0.00     0.055 C 
HETATM   11  C13 UNK     1      28.053  -7.155  39.516  1.00  0.00     0.055 C 
HETATM   12  C14 UNK     1      31.726  -6.675  36.684  1.00  0.00     0.103 A 
HETATM   13  C15 UNK     1      32.788  -6.063  37.358  1.00  0.00    -0.001 A 
HETATM   14  C16 UNK     1      31.195  -4.839  38.692  1.00  0.00     0.039 A 
HETATM   15  C17 UNK     1      32.516  -5.129  38.357  1.00  0.00     0.017 A 
HETATM   16  C18 UNK     1      34.155  -6.413  37.005  1.00  0.00     0.020 A 
HETATM   17  C19 UNK     1      34.402  -7.326  36.063  1.00  0.00     0.083 A 
HETATM   18  C20 UNK     1      33.313  -8.013  35.351  1.00  0.00     0.288 A 
ENDROOT
BRANCH   6  19
HETATM   19  C8  UNK     1      29.171  -7.302  34.997  1.00  0.00     0.101 C 
HETATM   20  N1  UNK     1      29.046  -6.503  33.897  1.00  0.00    -0.389 N 
HETATM   21  C1  UNK     1      30.198  -5.861  33.264  1.00  0.00     0.122 C 
HETATM   22  C2  UNK     1      27.742  -6.149  33.334  1.00  0.00     0.122 C 
HETATM   23  C3  UNK     1      30.213  -6.175  31.769  1.00  0.00     0.020 C 
HETATM   24  C5  UNK     1      28.884  -5.808  31.111  1.00  0.00     0.003 C 
HETATM   25  C4  UNK     1      27.717  -6.469  31.840  1.00  0.00     0.020 C 
ENDBRANCH   6  19
TORSDOF 1
ENDMDL
MODEL 5
REMARK VINA RESULT:      -9.0     12.909     15.952
REMARK  1 active torsions:
REMARK  status: ('A' for Active; 'I' for Inactive)
REMARK    1  A    between atoms: C7_12  and  C8_13 
ROOT
HETATM    1  O1  UNK     1      31.687  -4.237  36.601  1.00  0.00    -0.332 OA
HETATM    2  O2  UNK     1      33.020  -7.475  33.221  1.00  0.00    -0.274 OA
HETATM    3  O3  UNK     1      29.070  -6.721  36.463  1.00  0.00    -0.289 OA
HETATM    4  O4  UNK     1      33.733  -9.012  31.680  1.00  0.00    -0.260 OA
HETATM    5  C6  UNK     1      30.772  -5.162  37.194  1.00  0.00     0.125 C 
HETATM    6  C7  UNK     1      30.878  -6.376  34.943  1.00  0.00     0.044 C 
HETATM    7  C9  UNK     1      32.245  -5.841  34.851  1.00  0.00     0.048 A 
HETATM    8  C10 UNK     1      30.125  -6.142  36.211  1.00  0.00     0.196 C 
HETATM    9  C11 UNK     1      32.566  -4.764  35.690  1.00  0.00     0.084 A 
HETATM   10  C12 UNK     1      29.669  -4.297  37.819  1.00  0.00     0.055 C 
HETATM   11  C13 UNK     1      31.483  -5.951  38.301  1.00  0.00     0.055 C 
HETATM   12  C14 UNK     1      33.263  -6.324  34.009  1.00  0.00     0.103 A 
HETATM   13  C15 UNK     1      34.524  -5.721  33.946  1.00  0.00    -0.001 A 
HETATM   14  C16 UNK     1      33.814  -4.137  35.620  1.00  0.00     0.039 A 
HETATM   15  C17 UNK     1      34.791  -4.613  34.748  1.00  0.00     0.017 A 
HETATM   16  C18 UNK     1      35.531  -6.263  33.047  1.00  0.00     0.020 A 
HETATM   17  C19 UNK     1      35.270  -7.340  32.303  1.00  0.00     0.083 A 
HETATM   18  C20 UNK     1      33.966  -8.020  32.360  1.00  0.00     0.288 A 
ENDROOT
BRANCH   6  19
HETATM   19  C8  UNK     1      30.202  -6.955  33.937  1.00  0.00     0.101 C 
HETATM   20  N1  UNK     1      29.569  -6.340  32.896  1.00  0.00    -0.389 N 
HETATM   21  C1  UNK     1      30.273  -5.954  31.673  1.00  0.00     0.122 C 
HETATM   22  C2  UNK     1      28.165  -5.932  32.968  1.00  0.00     0.122 C 
HETATM   23  C3  UNK     1      29.541  -6.511  30.453  1.00  0.00     0.020 C 
HETATM   24  C5  UNK     1      28.070  -6.103  30.453  1.00  0.00     0.003 C 
HETATM   25  C4  UNK     1      27.399  -6.490  31.770  1.00  0.00     0.020 C 
ENDBRANCH   6  19
TORSDOF 1
ENDMDL
MODEL 6
REMARK VINA RESULT:      -8.9     23.245     24.972
REMARK  1 active torsions:
REMARK  status: ('A' for Active; 'I' for Inactive)
REMARK    1  A    between atoms: C7_12  and  C8_13 
ROOT
HETATM    1  O1  UNK     1      13.104  11.197  10.073  1.00  0.00    -0.332 OA
HETATM    2  O2  UNK     1      14.703   6.605   9.857  1.00  0.00    -0.274 OA
HETATM    3  O3  UNK     1      10.241   9.079  10.665  1.00  0.00    -0.289 OA
HETATM    4  O4  UNK     1      15.522   4.467   9.825  1.00  0.00    -0.260 OA
HETATM    5  C6  UNK     1      11.933  10.806  10.793  1.00  0.00     0.125 C 
HETATM    6  C7  UNK     1      12.403   8.469   9.858  1.00  0.00     0.044 C 
HETATM    7  C9  UNK     1      13.818   8.873   9.878  1.00  0.00     0.048 A 
HETATM    8  C10 UNK     1      11.404   9.411  10.446  1.00  0.00     0.196 C 
HETATM    9  C11 UNK     1      14.086  10.247   9.964  1.00  0.00     0.084 A 
HETATM   10  C12 UNK     1      10.863  11.841  10.421  1.00  0.00     0.055 C 
HETATM   11  C13 UNK     1      12.206  10.882  12.301  1.00  0.00     0.055 C 
HETATM   12  C14 UNK     1      14.922   8.004   9.836  1.00  0.00     0.103 A 
HETATM   13  C15 UNK     1      16.239   8.477   9.807  1.00  0.00    -0.001 A 
HETATM   14  C16 UNK     1      15.397  10.734   9.910  1.00  0.00     0.039 A 
HETATM   15  C17 UNK     1      16.471   9.851   9.829  1.00  0.00     0.017 A 
HETATM   16  C18 UNK     1      17.338   7.526   9.754  1.00  0.00     0.020 A 
HETATM   17  C19 UNK     1      17.102   6.212   9.757  1.00  0.00     0.083 A 
HETATM   18  C20 UNK     1      15.734   5.674   9.815  1.00  0.00     0.288 A 
ENDROOT
BRANCH   6  19
HETATM   19  C8  UNK     1      11.917   7.377   9.248  1.00  0.00     0.101 C 
HETATM   20  N1  UNK     1      11.211   7.318   8.082  1.00  0.00    -0.389 N 
HETATM   21  C1  UNK     1      11.866   7.272   6.774  1.00  0.00     0.122 C 
HETATM   22  C2  UNK     1       9.750   7.401   8.049  1.00  0.00     0.122 C 
HETATM   23  C3  UNK     1      11.331   6.092   5.965  1.00  0.00     0.020 C 
HETATM   24  C5  UNK     1       9.807   6.128   5.872  1.00  0.00     0.003 C 
HETATM   25  C4  UNK     1       9.180   6.221   7.262  1.00  0.00     0.020 C 
ENDBRANCH   6  19
TORSDOF 1
ENDMDL
MODEL 7
REMARK VINA RESULT:      -8.8     23.331     25.457
REMARK  1 active torsions:
REMARK  status: ('A' for Active; 'I' for Inactive)
REMARK    1  A    between atoms: C7_12  and  C8_13 
ROOT
HETATM    1  O1  UNK     1       9.860   9.919  11.200  1.00  0.00    -0.332 OA
HETATM    2  O2  UNK     1      11.101   7.378   7.239  1.00  0.00    -0.274 OA
HETATM    3  O3  UNK     1      13.122  11.099  10.198  1.00  0.00    -0.289 OA
HETATM    4  O4  UNK     1      11.601   6.212   5.332  1.00  0.00    -0.260 OA
HETATM    5  C6  UNK     1      10.809  10.944  10.898  1.00  0.00     0.125 C 
HETATM    6  C7  UNK     1      11.941   9.167   9.443  1.00  0.00     0.044 C 
HETATM    7  C9  UNK     1      10.588   8.613   9.273  1.00  0.00     0.048 A 
HETATM    8  C10 UNK     1      12.074  10.456  10.186  1.00  0.00     0.196 C 
HETATM    9  C11 UNK     1       9.614   9.016  10.198  1.00  0.00     0.084 A 
HETATM   10  C12 UNK     1      11.212  11.538  12.255  1.00  0.00     0.055 C 
HETATM   11  C13 UNK     1      10.140  12.033  10.050  1.00  0.00     0.055 C 
HETATM   12  C14 UNK     1      10.182   7.730   8.257  1.00  0.00     0.103 A 
HETATM   13  C15 UNK     1       8.885   7.210   8.199  1.00  0.00    -0.001 A 
HETATM   14  C16 UNK     1       8.320   8.485  10.166  1.00  0.00     0.039 A 
HETATM   15  C17 UNK     1       7.956   7.581   9.170  1.00  0.00     0.017 A 
HETATM   16  C18 UNK     1       8.530   6.293   7.127  1.00  0.00     0.020 A 
HETATM   17  C19 UNK     1       9.422   5.965   6.189  1.00  0.00     0.083 A 
HETATM   18  C20 UNK     1      10.787   6.511   6.199  1.00  0.00     0.288 A 
ENDROOT
BRANCH   6  19
HETATM   19  C8  UNK     1      13.080   8.551   9.092  1.00  0.00     0.101 C 
HETATM   20  N1  UNK     1      13.695   7.510   9.726  1.00  0.00    -0.389 N 
HETATM   21  C1  UNK     1      13.329   6.116   9.473  1.00  0.00     0.122 C 
HETATM   22  C2  UNK     1      14.692   7.717  10.778  1.00  0.00     0.122 C 
HETATM   23  C3  UNK     1      14.577   5.305   9.126  1.00  0.00     0.020 C 
HETATM   24  C5  UNK     1      15.654   5.458  10.198  1.00  0.00     0.003 C 
HETATM   25  C4  UNK     1      15.962   6.932  10.451  1.00  0.00     0.020 C 
ENDBRANCH   6  19
TORSDOF 1
ENDMDL
MODEL 8
REMARK VINA RESULT:      -8.8     23.110     25.075
REMARK  1 active torsions:
REMARK  status: ('A' for Active; 'I' for Inactive)
REMARK    1  A    between atoms: C7_12  and  C8_13 
ROOT
HETATM    1  O1  UNK     1      12.963   5.521  10.194  1.00  0.00    -0.332 OA
HETATM    2  O2  UNK     1      14.544   9.834   8.586  1.00  0.00    -0.274 OA
HETATM    3  O3  UNK     1      10.297   6.919   8.200  1.00  0.00    -0.289 OA
HETATM    4  O4  UNK     1      15.367  11.818   7.791  1.00  0.00    -0.260 OA
HETATM    5  C6  UNK     1      11.961   5.456   9.177  1.00  0.00     0.125 C 
HETATM    6  C7  UNK     1      12.267   7.993   9.017  1.00  0.00     0.044 C 
HETATM    7  C9  UNK     1      13.653   7.734   9.437  1.00  0.00     0.048 A 
HETATM    8  C10 UNK     1      11.391   6.812   8.752  1.00  0.00     0.196 C 
HETATM    9  C11 UNK     1      13.917   6.493  10.035  1.00  0.00     0.084 A 
HETATM   10  C12 UNK     1      10.826   4.616   9.779  1.00  0.00     0.055 C 
HETATM   11  C13 UNK     1      12.523   4.735   7.945  1.00  0.00     0.055 C 
HETATM   12  C14 UNK     1      14.738   8.614   9.279  1.00  0.00     0.103 A 
HETATM   13  C15 UNK     1      16.018   8.310   9.756  1.00  0.00    -0.001 A 
HETATM   14  C16 UNK     1      15.185   6.186  10.538  1.00  0.00     0.039 A 
HETATM   15  C17 UNK     1      16.234   7.093  10.402  1.00  0.00     0.017 A 
HETATM   16  C18 UNK     1      17.097   9.266   9.568  1.00  0.00     0.020 A 
HETATM   17  C19 UNK     1      16.882  10.417   8.926  1.00  0.00     0.083 A 
HETATM   18  C20 UNK     1      15.559  10.763   8.385  1.00  0.00     0.288 A 
ENDROOT
BRANCH   6  19
HETATM   19  C8  UNK     1      11.684   9.201   8.966  1.00  0.00     0.101 C 
HETATM   20  N1  UNK     1      11.144   9.910  10.000  1.00  0.00    -0.389 N 
HETATM   21  C1  UNK     1      11.953  10.775  10.859  1.00  0.00     0.122 C 
HETATM   22  C2  UNK     1       9.739   9.777  10.387  1.00  0.00     0.122 C 
HETATM   23  C3  UNK     1      11.333  12.170  10.925  1.00  0.00     0.020 C 
HETATM   24  C5  UNK     1       9.867  12.107  11.346  1.00  0.00     0.003 C 
HETATM   25  C4  UNK     1       9.083  11.157  10.443  1.00  0.00     0.020 C 
ENDBRANCH   6  19
TORSDOF 1
ENDMDL
MODEL 9
REMARK VINA RESULT:      -8.7     12.756     15.376
REMARK  1 active torsions:
REMARK  status: ('A' for Active; 'I' for Inactive)
REMARK    1  A    between atoms: C7_12  and  C8_13 
ROOT
HETATM    1  O1  UNK     1      29.217  -5.227  37.580  1.00  0.00    -0.332 OA
HETATM    2  O2  UNK     1      32.517  -6.436  34.214  1.00  0.00    -0.274 OA
HETATM    3  O3  UNK     1      27.988  -8.207  35.954  1.00  0.00    -0.289 OA
HETATM    4  O4  UNK     1      34.139  -7.006  32.700  1.00  0.00    -0.260 OA
HETATM    5  C6  UNK     1      28.664  -6.545  37.580  1.00  0.00     0.125 C 
HETATM    6  C7  UNK     1      29.780  -6.778  35.288  1.00  0.00     0.044 C 
HETATM    7  C9  UNK     1      30.779  -5.832  35.808  1.00  0.00     0.048 A 
HETATM    8  C10 UNK     1      28.730  -7.267  36.231  1.00  0.00     0.196 C 
HETATM    9  C11 UNK     1      30.419  -5.081  36.936  1.00  0.00     0.084 A 
HETATM   10  C12 UNK     1      27.190  -6.366  37.967  1.00  0.00     0.055 C 
HETATM   11  C13 UNK     1      29.365  -7.398  38.645  1.00  0.00     0.055 C 
HETATM   12  C14 UNK     1      32.068  -5.626  35.285  1.00  0.00     0.103 A 
HETATM   13  C15 UNK     1      32.939  -4.666  35.811  1.00  0.00    -0.001 A 
HETATM   14  C16 UNK     1      31.270  -4.100  37.457  1.00  0.00     0.039 A 
HETATM   15  C17 UNK     1      32.527  -3.891  36.894  1.00  0.00     0.017 A 
HETATM   16  C18 UNK     1      34.257  -4.496  35.219  1.00  0.00     0.020 A 
HETATM   17  C19 UNK     1      34.648  -5.261  34.198  1.00  0.00     0.083 A 
HETATM   18  C20 UNK     1      33.773  -6.301  33.634  1.00  0.00     0.288 A 
ENDROOT
BRANCH   6  19
HETATM   19  C8  UNK     1      29.658  -7.149  34.004  1.00  0.00     0.101 C 
HETATM   20  N1  UNK     1      29.102  -6.438  32.980  1.00  0.00    -0.389 N 
HETATM   21  C1  UNK     1      29.863  -5.453  32.210  1.00  0.00     0.122 C 
HETATM   22  C2  UNK     1      27.680  -6.535  32.644  1.00  0.00     0.122 C 
HETATM   23  C3  UNK     1      29.734  -5.748  30.716  1.00  0.00     0.020 C 
HETATM   24  C5  UNK     1      28.270  -5.841  30.292  1.00  0.00     0.003 C 
HETATM   25  C4  UNK     1      27.517  -6.849  31.158  1.00  0.00     0.020 C 
ENDBRANCH   6  19
TORSDOF 1
ENDMDL
MODEL 10
REMARK VINA RESULT:      -8.6     23.236     25.472
REMARK  1 active torsions:
REMARK  status: ('A' for Active; 'I' for Inactive)
REMARK    1  A    between atoms: C7_12  and  C8_13 
ROOT
HETATM    1  O1  UNK     1      14.314   7.780   8.387  1.00  0.00    -0.332 OA
HETATM    2  O2  UNK     1       9.590   7.657   9.552  1.00  0.00    -0.274 OA
HETATM    3  O3  UNK     1      14.072   8.846  11.828  1.00  0.00    -0.289 OA
HETATM    4  O4  UNK     1       7.365   7.505  10.072  1.00  0.00    -0.260 OA
HETATM    5  C6  UNK     1      14.703   7.752   9.762  1.00  0.00     0.125 C 
HETATM    6  C7  UNK     1      12.323   8.574  10.227  1.00  0.00     0.044 C 
HETATM    7  C9  UNK     1      11.956   7.838   9.006  1.00  0.00     0.048 A 
HETATM    8  C10 UNK     1      13.729   8.447  10.717  1.00  0.00     0.196 C 
HETATM    9  C11 UNK     1      12.997   7.498   8.130  1.00  0.00     0.084 A 
HETATM   10  C12 UNK     1      16.049   8.486   9.818  1.00  0.00     0.055 C 
HETATM   11  C13 UNK     1      14.902   6.299  10.212  1.00  0.00     0.055 C 
HETATM   12  C14 UNK     1      10.658   7.432   8.650  1.00  0.00     0.103 A 
HETATM   13  C15 UNK     1      10.389   6.779   7.441  1.00  0.00    -0.001 A 
HETATM   14  C16 UNK     1      12.739   6.868   6.908  1.00  0.00     0.039 A 
HETATM   15  C17 UNK     1      11.438   6.512   6.562  1.00  0.00     0.017 A 
HETATM   16  C18 UNK     1       9.023   6.392   7.127  1.00  0.00     0.020 A 
HETATM   17  C19 UNK     1       8.032   6.633   7.988  1.00  0.00     0.083 A 
HETATM   18  C20 UNK     1       8.277   7.292   9.281  1.00  0.00     0.288 A 
ENDROOT
BRANCH   6  19
HETATM   19  C8  UNK     1      11.535   9.447  10.872  1.00  0.00     0.101 C 
HETATM   20  N1  UNK     1      11.208  10.716  10.490  1.00  0.00    -0.389 N 
HETATM   21  C1  UNK     1      10.098  10.996   9.577  1.00  0.00     0.122 C 
HETATM   22  C2  UNK     1      12.007  11.879  10.882  1.00  0.00     0.122 C 
HETATM   23  C3  UNK     1       9.168  12.038  10.194  1.00  0.00     0.020 C 
HETATM   24  C5  UNK     1       9.935  13.292  10.608  1.00  0.00     0.003 C 
HETATM   25  C4  UNK     1      11.106  12.935  11.521  1.00  0.00     0.020 C 
ENDBRANCH   6  19
TORSDOF 1
ENDMDL
