MODEL 1
REMARK VINA RESULT:      -8.5      0.000      0.000
REMARK  2 active torsions:
REMARK  status: ('A' for Active; 'I' for Inactive)
REMARK    1  A    between atoms: C5_10  and  O2_4 
REMARK    2  A    between atoms: C2_7  and  C4_9 
ROOT
HETATM    1 Cl1  UNK     1      17.355  10.544   9.998  1.00  0.00    -0.084 Cl
HETATM    2  O1  UNK     1      13.459   7.630   8.611  1.00  0.00    -0.306 OA
HETATM    3  O3  UNK     1      15.289   4.159   9.708  1.00  0.00    -0.284 OA
HETATM    4  C1  UNK     1      15.399   6.509   9.545  1.00  0.00     0.051 A 
HETATM    5  C2  UNK     1      12.829   6.405   8.467  1.00  0.00     0.123 A 
HETATM    6  C3  UNK     1      14.720   7.659   9.147  1.00  0.00     0.092 A 
HETATM    7  C5  UNK     1      13.376   5.221   8.801  1.00  0.00     0.152 A 
HETATM    8  C6  UNK     1      14.740   5.203   9.383  1.00  0.00     0.220 A 
HETATM    9  C7  UNK     1      16.683   6.600  10.085  1.00  0.00     0.020 A 
HETATM   10  C8  UNK     1      15.323   8.909   9.288  1.00  0.00     0.062 A 
HETATM   11  C11 UNK     1      17.285   7.851  10.225  1.00  0.00     0.025 A 
HETATM   12  C12 UNK     1      16.607   9.004   9.827  1.00  0.00     0.036 A 
ENDROOT
BRANCH   5  13
HETATM   13  C4  UNK     1      11.483   6.515   7.878  1.00  0.00     0.001 A 
HETATM   14  C10 UNK     1      11.309   6.381   6.501  1.00  0.00     0.017 A 
HETATM   15  C14 UNK     1      10.034   6.486   5.944  1.00  0.00     0.043 A 
HETATM   16  C15 UNK     1       8.931   6.724   6.766  1.00  0.00     0.116 A 
HETATM   17  C13 UNK     1       9.105   6.858   8.143  1.00  0.00     0.043 A 
HETATM   18  F1  UNK     1       7.708   6.823   6.231  1.00  0.00    -0.206 F 
HETATM   19  C9  UNK     1      10.380   6.754   8.699  1.00  0.00     0.017 A 
ENDBRANCH   5  13
BRANCH   7  20
HETATM   20  O2  UNK     1      12.736   4.016   8.615  1.00  0.00    -0.355 OA
HETATM   21  H8  UNK     1      11.785   4.119   8.780  1.00  0.00     0.218 HD
ENDBRANCH   7  20
TORSDOF 2
ENDMDL
MODEL 2
REMARK VINA RESULT:      -8.5      0.060      1.082
REMARK  2 active torsions:
REMARK  status: ('A' for Active; 'I' for Inactive)
REMARK    1  A    between atoms: C5_10  and  O2_4 
REMARK    2  A    between atoms: C2_7  and  C4_9 
ROOT
HETATM    1 Cl1  UNK     1      17.294  10.546   9.970  1.00  0.00    -0.084 Cl
HETATM    2  O1  UNK     1      13.408   7.618   8.584  1.00  0.00    -0.306 OA
HETATM    3  O3  UNK     1      15.240   4.156   9.707  1.00  0.00    -0.284 OA
HETATM    4  C1  UNK     1      15.346   6.505   9.531  1.00  0.00     0.051 A 
HETATM    5  C2  UNK     1      12.780   6.391   8.444  1.00  0.00     0.123 A 
HETATM    6  C3  UNK     1      14.666   7.652   9.125  1.00  0.00     0.092 A 
HETATM    7  C5  UNK     1      13.329   5.210   8.787  1.00  0.00     0.152 A 
HETATM    8  C6  UNK     1      14.691   5.198   9.374  1.00  0.00     0.220 A 
HETATM    9  C7  UNK     1      16.628   6.601  10.076  1.00  0.00     0.020 A 
HETATM   10  C8  UNK     1      15.267   8.904   9.261  1.00  0.00     0.062 A 
HETATM   11  C11 UNK     1      17.227   7.855  10.211  1.00  0.00     0.025 A 
HETATM   12  C12 UNK     1      16.548   9.004   9.804  1.00  0.00     0.036 A 
ENDROOT
BRANCH   5  13
HETATM   13  C4  UNK     1      11.436   6.496   7.849  1.00  0.00     0.001 A 
HETATM   14  C10 UNK     1      10.330   6.744   8.662  1.00  0.00     0.017 A 
HETATM   15  C14 UNK     1       9.058   6.843   8.098  1.00  0.00     0.043 A 
HETATM   16  C15 UNK     1       8.892   6.694   6.720  1.00  0.00     0.116 A 
HETATM   17  C13 UNK     1       9.998   6.445   5.908  1.00  0.00     0.043 A 
HETATM   18  F1  UNK     1       7.671   6.790   6.179  1.00  0.00    -0.206 F 
HETATM   19  C9  UNK     1      11.269   6.346   6.472  1.00  0.00     0.017 A 
ENDBRANCH   5  13
BRANCH   7  20
HETATM   20  O2  UNK     1      12.691   4.003   8.604  1.00  0.00    -0.355 OA
HETATM   21  H8  UNK     1      12.611   3.541   9.454  1.00  0.00     0.218 HD
ENDBRANCH   7  20
TORSDOF 2
ENDMDL
MODEL 3
REMARK VINA RESULT:      -8.5     24.295     26.158
REMARK  2 active torsions:
REMARK  status: ('A' for Active; 'I' for Inactive)
REMARK    1  A    between atoms: C5_10  and  O2_4 
REMARK    2  A    between atoms: C2_7  and  C4_9 
ROOT
HETATM    1 Cl1  UNK     1      21.269  -3.405  29.693  1.00  0.00    -0.084 Cl
HETATM    2  O1  UNK     1      19.039  -0.120  32.828  1.00  0.00    -0.306 OA
HETATM    3  O3  UNK     1      18.733   2.807  30.010  1.00  0.00    -0.284 OA
HETATM    4  C1  UNK     1      19.425   0.618  30.548  1.00  0.00     0.051 A 
HETATM    5  C2  UNK     1      18.460   1.105  33.119  1.00  0.00     0.123 A 
HETATM    6  C3  UNK     1      19.503  -0.340  31.558  1.00  0.00     0.092 A 
HETATM    7  C5  UNK     1      18.333   2.116  32.240  1.00  0.00     0.152 A 
HETATM    8  C6  UNK     1      18.823   1.924  30.853  1.00  0.00     0.220 A 
HETATM    9  C7  UNK     1      19.915   0.337  29.271  1.00  0.00     0.020 A 
HETATM   10  C8  UNK     1      20.072  -1.587  31.295  1.00  0.00     0.062 A 
HETATM   11  C11 UNK     1      20.484  -0.911  29.010  1.00  0.00     0.025 A 
HETATM   12  C12 UNK     1      20.563  -1.870  30.020  1.00  0.00     0.036 A 
ENDROOT
BRANCH   5  13
HETATM   13  C4  UNK     1      18.007   1.210  34.517  1.00  0.00     0.001 A 
HETATM   14  C10 UNK     1      16.812   0.608  34.912  1.00  0.00     0.017 A 
HETATM   15  C14 UNK     1      16.384   0.709  36.236  1.00  0.00     0.043 A 
HETATM   16  C15 UNK     1      17.151   1.412  37.166  1.00  0.00     0.116 A 
HETATM   17  C13 UNK     1      18.345   2.014  36.771  1.00  0.00     0.043 A 
HETATM   18  F1  UNK     1      16.740   1.507  38.436  1.00  0.00    -0.206 F 
HETATM   19  C9  UNK     1      18.773   1.914  35.447  1.00  0.00     0.017 A 
ENDBRANCH   5  13
BRANCH   7  20
HETATM   20  O2  UNK     1      17.781   3.335  32.569  1.00  0.00    -0.355 OA
HETATM   21  H8  UNK     1      18.078   3.603  33.453  1.00  0.00     0.218 HD
ENDBRANCH   7  20
TORSDOF 2
ENDMDL
MODEL 4
REMARK VINA RESULT:      -8.2     22.303     23.870
REMARK  2 active torsions:
REMARK  status: ('A' for Active; 'I' for Inactive)
REMARK    1  A    between atoms: C5_10  and  O2_4 
REMARK    2  A    between atoms: C2_7  and  C4_9 
ROOT
HETATM    1 Cl1  UNK     1      21.346  -3.027  32.852  1.00  0.00    -0.084 Cl
HETATM    2  O1  UNK     1      19.474   1.408  31.295  1.00  0.00    -0.306 OA
HETATM    3  O3  UNK     1      18.771   0.107  27.498  1.00  0.00    -0.284 OA
HETATM    4  C1  UNK     1      19.561  -0.388  29.664  1.00  0.00     0.051 A 
HETATM    5  C2  UNK     1      18.916   2.240  30.338  1.00  0.00     0.123 A 
HETATM    6  C3  UNK     1      19.778   0.119  30.944  1.00  0.00     0.092 A 
HETATM    7  C5  UNK     1      18.664   1.879  29.066  1.00  0.00     0.152 A 
HETATM    8  C6  UNK     1      18.980   0.494  28.640  1.00  0.00     0.220 A 
HETATM    9  C7  UNK     1      19.891  -1.712  29.364  1.00  0.00     0.020 A 
HETATM   10  C8  UNK     1      20.330  -0.697  31.933  1.00  0.00     0.062 A 
HETATM   11  C11 UNK     1      20.442  -2.525  30.355  1.00  0.00     0.025 A 
HETATM   12  C12 UNK     1      20.662  -2.019  31.637  1.00  0.00     0.036 A 
ENDROOT
BRANCH   5  13
HETATM   13  C4  UNK     1      18.640   3.596  30.845  1.00  0.00     0.001 A 
HETATM   14  C10 UNK     1      17.913   3.767  32.023  1.00  0.00     0.017 A 
HETATM   15  C14 UNK     1      17.651   5.051  32.501  1.00  0.00     0.043 A 
HETATM   16  C15 UNK     1      18.118   6.165  31.802  1.00  0.00     0.116 A 
HETATM   17  C13 UNK     1      18.845   5.994  30.624  1.00  0.00     0.043 A 
HETATM   18  F1  UNK     1      17.868   7.397  32.263  1.00  0.00    -0.206 F 
HETATM   19  C9  UNK     1      19.105   4.710  30.146  1.00  0.00     0.017 A 
ENDBRANCH   5  13
BRANCH   7  20
HETATM   20  O2  UNK     1      18.139   2.741  28.129  1.00  0.00    -0.355 OA
HETATM   21  H8  UNK     1      18.494   3.634  28.266  1.00  0.00     0.218 HD
ENDBRANCH   7  20
TORSDOF 2
ENDMDL
MODEL 5
REMARK VINA RESULT:      -7.8     22.946     24.766
REMARK  2 active torsions:
REMARK  status: ('A' for Active; 'I' for Inactive)
REMARK    1  A    between atoms: C5_10  and  O2_4 
REMARK    2  A    between atoms: C2_7  and  C4_9 
ROOT
HETATM    1 Cl1  UNK     1      13.293  10.877  33.071  1.00  0.00    -0.084 Cl
HETATM    2  O1  UNK     1      16.890   7.427  32.201  1.00  0.00    -0.306 OA
HETATM    3  O3  UNK     1      19.645   9.280  34.563  1.00  0.00    -0.284 OA
HETATM    4  C1  UNK     1      17.459   9.267  33.678  1.00  0.00     0.051 A 
HETATM    5  C2  UNK     1      18.161   6.903  32.375  1.00  0.00     0.123 A 
HETATM    6  C3  UNK     1      16.564   8.586  32.855  1.00  0.00     0.092 A 
HETATM    7  C5  UNK     1      19.121   7.466  33.133  1.00  0.00     0.152 A 
HETATM    8  C6  UNK     1      18.814   8.724  33.857  1.00  0.00     0.220 A 
HETATM    9  C7  UNK     1      17.071  10.446  34.319  1.00  0.00     0.020 A 
HETATM   10  C8  UNK     1      15.274   9.082  32.666  1.00  0.00     0.062 A 
HETATM   11  C11 UNK     1      15.780  10.940  34.129  1.00  0.00     0.025 A 
HETATM   12  C12 UNK     1      14.883  10.260  33.304  1.00  0.00     0.036 A 
ENDROOT
BRANCH   5  13
HETATM   13  C4  UNK     1      18.380   5.659  31.618  1.00  0.00     0.001 A 
HETATM   14  C10 UNK     1      18.027   4.430  32.176  1.00  0.00     0.017 A 
HETATM   15  C14 UNK     1      18.235   3.252  31.457  1.00  0.00     0.043 A 
HETATM   16  C15 UNK     1      18.796   3.303  30.180  1.00  0.00     0.116 A 
HETATM   17  C13 UNK     1      19.148   4.531  29.622  1.00  0.00     0.043 A 
HETATM   18  F1  UNK     1      18.993   2.172  29.491  1.00  0.00    -0.206 F 
HETATM   19  C9  UNK     1      18.941   5.709  30.341  1.00  0.00     0.017 A 
ENDBRANCH   5  13
BRANCH   7  20
HETATM   20  O2  UNK     1      20.387   6.937  33.260  1.00  0.00    -0.355 OA
HETATM   21  H8  UNK     1      21.019   7.644  33.466  1.00  0.00     0.218 HD
ENDBRANCH   7  20
TORSDOF 2
ENDMDL
MODEL 6
REMARK VINA RESULT:      -7.8     24.331     26.083
REMARK  2 active torsions:
REMARK  status: ('A' for Active; 'I' for Inactive)
REMARK    1  A    between atoms: C5_10  and  O2_4 
REMARK    2  A    between atoms: C2_7  and  C4_9 
ROOT
HETATM    1 Cl1  UNK     1      17.903   8.391  33.071  1.00  0.00    -0.084 Cl
HETATM    2  O1  UNK     1      17.937   3.396  33.874  1.00  0.00    -0.306 OA
HETATM    3  O3  UNK     1      18.947   2.493  30.031  1.00  0.00    -0.284 OA
HETATM    4  C1  UNK     1      18.471   4.158  31.632  1.00  0.00     0.051 A 
HETATM    5  C2  UNK     1      18.112   2.085  33.463  1.00  0.00     0.123 A 
HETATM    6  C3  UNK     1      18.123   4.400  32.960  1.00  0.00     0.092 A 
HETATM    7  C5  UNK     1      18.438   1.716  32.210  1.00  0.00     0.152 A 
HETATM    8  C6  UNK     1      18.647   2.768  31.185  1.00  0.00     0.220 A 
HETATM    9  C7  UNK     1      18.647   5.222  30.745  1.00  0.00     0.020 A 
HETATM   10  C8  UNK     1      17.947   5.710  33.408  1.00  0.00     0.062 A 
HETATM   11  C11 UNK     1      18.472   6.531  31.195  1.00  0.00     0.025 A 
HETATM   12  C12 UNK     1      18.122   6.775  32.524  1.00  0.00     0.036 A 
ENDROOT
BRANCH   5  13
HETATM   13  C4  UNK     1      17.880   1.107  34.540  1.00  0.00     0.001 A 
HETATM   14  C10 UNK     1      18.886   0.841  35.470  1.00  0.00     0.017 A 
HETATM   15  C14 UNK     1      18.665  -0.085  36.490  1.00  0.00     0.043 A 
HETATM   16  C15 UNK     1      17.439  -0.745  36.581  1.00  0.00     0.116 A 
HETATM   17  C13 UNK     1      16.434  -0.479  35.651  1.00  0.00     0.043 A 
HETATM   18  F1  UNK     1      17.228  -1.632  37.561  1.00  0.00    -0.206 F 
HETATM   19  C9  UNK     1      16.655   0.447  34.631  1.00  0.00     0.017 A 
ENDBRANCH   5  13
BRANCH   7  20
HETATM   20  O2  UNK     1      18.573   0.400  31.824  1.00  0.00    -0.355 OA
HETATM   21  H8  UNK     1      19.314   0.313  31.203  1.00  0.00     0.218 HD
ENDBRANCH   7  20
TORSDOF 2
ENDMDL
MODEL 7
REMARK VINA RESULT:      -7.8     25.472     27.278
REMARK  2 active torsions:
REMARK  status: ('A' for Active; 'I' for Inactive)
REMARK    1  A    between atoms: C5_10  and  O2_4 
REMARK    2  A    between atoms: C2_7  and  C4_9 
ROOT
HETATM    1 Cl1  UNK     1      16.327   1.550  37.718  1.00  0.00    -0.084 Cl
HETATM    2  O1  UNK     1      18.763  -0.487  33.780  1.00  0.00    -0.306 OA
HETATM    3  O3  UNK     1      20.453  -3.462  35.993  1.00  0.00    -0.284 OA
HETATM    4  C1  UNK     1      19.051  -1.566  35.935  1.00  0.00     0.051 A 
HETATM    5  C2  UNK     1      19.591  -1.436  33.202  1.00  0.00     0.123 A 
HETATM    6  C3  UNK     1      18.507  -0.572  35.123  1.00  0.00     0.092 A 
HETATM    7  C5  UNK     1      20.186  -2.439  33.873  1.00  0.00     0.152 A 
HETATM    8  C6  UNK     1      19.941  -2.570  35.330  1.00  0.00     0.220 A 
HETATM    9  C7  UNK     1      18.755  -1.603  37.299  1.00  0.00     0.020 A 
HETATM   10  C8  UNK     1      17.663   0.393  35.673  1.00  0.00     0.062 A 
HETATM   11  C11 UNK     1      17.910  -0.637  37.847  1.00  0.00     0.025 A 
HETATM   12  C12 UNK     1      17.365   0.359  37.036  1.00  0.00     0.036 A 
ENDROOT
BRANCH   5  13
HETATM   13  C4  UNK     1      19.784  -1.228  31.756  1.00  0.00     0.001 A 
HETATM   14  C10 UNK     1      19.567   0.031  31.196  1.00  0.00     0.017 A 
HETATM   15  C14 UNK     1      19.750   0.226  29.827  1.00  0.00     0.043 A 
HETATM   16  C15 UNK     1      20.149  -0.838  29.017  1.00  0.00     0.116 A 
HETATM   17  C13 UNK     1      20.366  -2.097  29.577  1.00  0.00     0.043 A 
HETATM   18  F1  UNK     1      20.326  -0.649  27.703  1.00  0.00    -0.206 F 
HETATM   19  C9  UNK     1      20.182  -2.292  30.945  1.00  0.00     0.017 A 
ENDBRANCH   5  13
BRANCH   7  20
HETATM   20  O2  UNK     1      21.031  -3.348  33.275  1.00  0.00    -0.355 OA
HETATM   21  H8  UNK     1      20.590  -4.210  33.203  1.00  0.00     0.218 HD
ENDBRANCH   7  20
TORSDOF 2
ENDMDL
MODEL 8
REMARK VINA RESULT:      -7.8      3.863      6.724
REMARK  2 active torsions:
REMARK  status: ('A' for Active; 'I' for Inactive)
REMARK    1  A    between atoms: C5_10  and  O2_4 
REMARK    2  A    between atoms: C2_7  and  C4_9 
ROOT
HETATM    1 Cl1  UNK     1       6.824   6.219  10.355  1.00  0.00    -0.084 Cl
HETATM    2  O1  UNK     1      11.743   6.621   9.245  1.00  0.00    -0.306 OA
HETATM    3  O3  UNK     1      11.154   6.361   5.222  1.00  0.00    -0.284 OA
HETATM    4  C1  UNK     1      10.206   6.388   7.381  1.00  0.00     0.051 A 
HETATM    5  C2  UNK     1      12.803   6.684   8.355  1.00  0.00     0.123 A 
HETATM    6  C3  UNK     1      10.475   6.480   8.745  1.00  0.00     0.092 A 
HETATM    7  C5  UNK     1      12.681   6.598   7.017  1.00  0.00     0.152 A 
HETATM    8  C6  UNK     1      11.327   6.442   6.430  1.00  0.00     0.220 A 
HETATM    9  C7  UNK     1       8.892   6.246   6.930  1.00  0.00     0.020 A 
HETATM   10  C8  UNK     1       9.429   6.429   9.668  1.00  0.00     0.062 A 
HETATM   11  C11 UNK     1       7.848   6.195   7.854  1.00  0.00     0.025 A 
HETATM   12  C12 UNK     1       8.116   6.286   9.220  1.00  0.00     0.036 A 
ENDROOT
BRANCH   5  13
HETATM   13  C4  UNK     1      14.108   6.834   9.022  1.00  0.00     0.001 A 
HETATM   14  C10 UNK     1      14.908   5.714   9.251  1.00  0.00     0.017 A 
HETATM   15  C14 UNK     1      16.144   5.857   9.883  1.00  0.00     0.043 A 
HETATM   16  C15 UNK     1      16.580   7.120  10.286  1.00  0.00     0.116 A 
HETATM   17  C13 UNK     1      15.779   8.240  10.057  1.00  0.00     0.043 A 
HETATM   18  F1  UNK     1      17.766   7.257  10.891  1.00  0.00    -0.206 F 
HETATM   19  C9  UNK     1      14.544   8.096   9.426  1.00  0.00     0.017 A 
ENDBRANCH   5  13
BRANCH   7  20
HETATM   20  O2  UNK     1      13.758   6.631   6.159  1.00  0.00    -0.355 OA
HETATM   21  H8  UNK     1      13.447   6.649   5.240  1.00  0.00     0.218 HD
ENDBRANCH   7  20
TORSDOF 2
ENDMDL
MODEL 9
REMARK VINA RESULT:      -7.7     25.503     27.276
REMARK  2 active torsions:
REMARK  status: ('A' for Active; 'I' for Inactive)
REMARK    1  A    between atoms: C5_10  and  O2_4 
REMARK    2  A    between atoms: C2_7  and  C4_9 
ROOT
HETATM    1 Cl1  UNK     1      19.828  -0.509  28.191  1.00  0.00    -0.084 Cl
HETATM    2  O1  UNK     1      18.636  -0.262  33.102  1.00  0.00    -0.306 OA
HETATM    3  O3  UNK     1      20.794  -3.575  34.089  1.00  0.00    -0.284 OA
HETATM    4  C1  UNK     1      20.084  -2.082  32.407  1.00  0.00     0.051 A 
HETATM    5  C2  UNK     1      18.702  -0.718  34.409  1.00  0.00     0.123 A 
HETATM    6  C3  UNK     1      19.327  -0.945  32.135  1.00  0.00     0.092 A 
HETATM    7  C5  UNK     1      19.389  -1.807  34.803  1.00  0.00     0.152 A 
HETATM    8  C6  UNK     1      20.150  -2.578  33.790  1.00  0.00     0.220 A 
HETATM    9  C7  UNK     1      20.768  -2.736  31.380  1.00  0.00     0.020 A 
HETATM   10  C8  UNK     1      19.247  -0.455  30.831  1.00  0.00     0.062 A 
HETATM   11  C11 UNK     1      20.687  -2.245  30.076  1.00  0.00     0.025 A 
HETATM   12  C12 UNK     1      19.927  -1.107  29.802  1.00  0.00     0.036 A 
ENDROOT
BRANCH   5  13
HETATM   13  C4  UNK     1      17.915   0.103  35.346  1.00  0.00     0.001 A 
HETATM   14  C10 UNK     1      16.543  -0.111  35.480  1.00  0.00     0.017 A 
HETATM   15  C14 UNK     1      15.799   0.667  36.367  1.00  0.00     0.043 A 
HETATM   16  C15 UNK     1      16.427   1.660  37.121  1.00  0.00     0.116 A 
HETATM   17  C13 UNK     1      17.799   1.874  36.986  1.00  0.00     0.043 A 
HETATM   18  F1  UNK     1      15.712   2.405  37.973  1.00  0.00    -0.206 F 
HETATM   19  C9  UNK     1      18.542   1.097  36.099  1.00  0.00     0.017 A 
ENDBRANCH   5  13
BRANCH   7  20
HETATM   20  O2  UNK     1      19.408  -2.253  36.106  1.00  0.00    -0.355 OA
HETATM   21  H8  UNK     1      19.565  -3.210  36.124  1.00  0.00     0.218 HD
ENDBRANCH   7  20
TORSDOF 2
ENDMDL
MODEL 10
REMARK VINA RESULT:      -7.7      1.440      2.020
REMARK  2 active torsions:
REMARK  status: ('A' for Active; 'I' for Inactive)
REMARK    1  A    between atoms: C5_10  and  O2_4 
REMARK    2  A    between atoms: C2_7  and  C4_9 
ROOT
HETATM    1 Cl1  UNK     1      17.112  12.308   8.138  1.00  0.00    -0.084 Cl
HETATM    2  O1  UNK     1      13.564   8.703   8.263  1.00  0.00    -0.306 OA
HETATM    3  O3  UNK     1      15.401   6.592  11.224  1.00  0.00    -0.284 OA
HETATM    4  C1  UNK     1      15.420   8.479   9.811  1.00  0.00     0.051 A 
HETATM    5  C2  UNK     1      13.015   7.533   8.763  1.00  0.00     0.123 A 
HETATM    6  C3  UNK     1      14.743   9.153   8.796  1.00  0.00     0.092 A 
HETATM    7  C5  UNK     1      13.571   6.784   9.733  1.00  0.00     0.152 A 
HETATM    8  C6  UNK     1      14.850   7.230  10.337  1.00  0.00     0.220 A 
HETATM    9  C7  UNK     1      16.620   8.986  10.315  1.00  0.00     0.020 A 
HETATM   10  C8  UNK     1      15.265  10.339   8.277  1.00  0.00     0.062 A 
HETATM   11  C11 UNK     1      17.139  10.172   9.795  1.00  0.00     0.025 A 
HETATM   12  C12 UNK     1      16.464  10.847   8.778  1.00  0.00     0.036 A 
ENDROOT
BRANCH   5  13
HETATM   13  C4  UNK     1      11.751   7.162   8.103  1.00  0.00     0.001 A 
HETATM   14  C10 UNK     1      10.532   7.432   8.726  1.00  0.00     0.017 A 
HETATM   15  C14 UNK     1       9.336   7.080   8.101  1.00  0.00     0.043 A 
HETATM   16  C15 UNK     1       9.358   6.459   6.852  1.00  0.00     0.116 A 
HETATM   17  C13 UNK     1      10.576   6.189   6.228  1.00  0.00     0.043 A 
HETATM   18  F1  UNK     1       8.209   6.123   6.251  1.00  0.00    -0.206 F 
HETATM   19  C9  UNK     1      11.772   6.540   6.854  1.00  0.00     0.017 A 
ENDBRANCH   5  13
BRANCH   7  20
HETATM   20  O2  UNK     1      13.016   5.606  10.186  1.00  0.00    -0.355 OA
HETATM   21  H8  UNK     1      12.506   5.772  10.995  1.00  0.00     0.218 HD
ENDBRANCH   7  20
TORSDOF 2
ENDMDL
