MODEL 1
REMARK VINA RESULT:      -8.7      0.000      0.000
REMARK  4 active torsions:
REMARK  status: ('A' for Active; 'I' for Inactive)
REMARK    1  A    between atoms: C17_23  and  O1_1 
REMARK    2  A    between atoms: C7_13  and  O1_1 
REMARK    3  A    between atoms: C5_11  and  N1_5 
REMARK       I    between atoms: C6_12  and  N2_6 
REMARK    4  A    between atoms: C6_12  and  C9_15 
ROOT
HETATM    1  O2  UNK     1       9.891   5.420   6.988  1.00  0.00    -0.267 OA
HETATM    2  N1  UNK     1      13.441   8.254   8.713  1.00  0.00    -0.376 N 
HETATM    3  N2  UNK     1      10.900   7.237   8.025  1.00  0.00    -0.345 N 
HETATM    4  C1  UNK     1      13.313   7.329   7.573  1.00  0.00     0.143 C 
HETATM    5  C2  UNK     1      12.395   8.166   9.742  1.00  0.00     0.143 C 
HETATM    6  C3  UNK     1      11.907   7.404   6.979  1.00  0.00     0.146 C 
HETATM    7  C4  UNK     1      11.012   8.232   9.096  1.00  0.00     0.146 C 
HETATM    8  C6  UNK     1       9.957   6.222   7.921  1.00  0.00     0.260 C 
ENDROOT
BRANCH   8   9
HETATM    9  C9  UNK     1       8.965   6.089   9.005  1.00  0.00     0.108 A 
HETATM   10  C12 UNK     1       8.067   7.075   9.109  1.00  0.00     0.037 A 
HETATM   11  C15 UNK     1       7.049   7.034  10.148  1.00  0.00    -0.001 A 
HETATM   12  C16 UNK     1       7.026   5.955  11.025  1.00  0.00     0.089 A 
HETATM   13  C18 UNK     1       6.091   8.041  10.293  1.00  0.00     0.014 A 
HETATM   14  O3  UNK     1       7.974   4.919  10.911  1.00  0.00    -0.274 OA
HETATM   15  C19 UNK     1       6.078   5.855  12.042  1.00  0.00     0.038 A 
HETATM   16  C13 UNK     1       8.960   4.931   9.928  1.00  0.00     0.304 A 
HETATM   17  O4  UNK     1       9.781   4.025   9.835  1.00  0.00    -0.259 OA
HETATM   18  C22 UNK     1       5.127   6.864  12.180  1.00  0.00     0.003 A 
HETATM   19  C20 UNK     1       5.134   7.954  11.308  1.00  0.00     0.001 A 
ENDBRANCH   8   9
BRANCH   2  20
HETATM   20  C5  UNK     1      14.729   8.665   9.073  1.00  0.00     0.064 A 
HETATM   21  C7  UNK     1      15.586   7.854   9.858  1.00  0.00     0.095 A 
HETATM   22  C10 UNK     1      16.868   8.277  10.209  1.00  0.00     0.039 A 
HETATM   23  C14 UNK     1      17.332   9.523   9.786  1.00  0.00     0.003 A 
HETATM   24  C11 UNK     1      16.514  10.345   9.012  1.00  0.00     0.002 A 
HETATM   25  C8  UNK     1      15.232   9.923   8.660  1.00  0.00     0.032 A 
BRANCH  21  26
HETATM   26  O1  UNK     1      15.152   6.634  10.280  1.00  0.00    -0.349 OA
BRANCH  26  27
HETATM   27  C17 UNK     1      15.852   5.492   9.792  1.00  0.00     0.171 C 
HETATM   28  C21 UNK     1      14.927   4.295   9.823  1.00  0.00     0.034 C 
ENDBRANCH  26  27
ENDBRANCH  21  26
ENDBRANCH   2  20
TORSDOF 4
ENDMDL
MODEL 2
REMARK VINA RESULT:      -8.6     26.515     28.694
REMARK  4 active torsions:
REMARK  status: ('A' for Active; 'I' for Inactive)
REMARK    1  A    between atoms: C17_23  and  O1_1 
REMARK    2  A    between atoms: C7_13  and  O1_1 
REMARK    3  A    between atoms: C5_11  and  N1_5 
REMARK       I    between atoms: C6_12  and  N2_6 
REMARK    4  A    between atoms: C6_12  and  C9_15 
ROOT
HETATM    1  O2  UNK     1      17.890  -2.904  36.869  1.00  0.00    -0.267 OA
HETATM    2  N1  UNK     1      19.666  -1.254  32.658  1.00  0.00    -0.376 N 
HETATM    3  N2  UNK     1      19.462  -2.219  35.302  1.00  0.00    -0.345 N 
HETATM    4  C1  UNK     1      18.424  -1.031  33.419  1.00  0.00     0.143 C 
HETATM    5  C2  UNK     1      20.486  -2.400  33.075  1.00  0.00     0.143 C 
HETATM    6  C3  UNK     1      18.710  -1.026  34.920  1.00  0.00     0.146 C 
HETATM    7  C4  UNK     1      20.732  -2.355  34.582  1.00  0.00     0.146 C 
HETATM    8  C6  UNK     1      18.957  -3.072  36.276  1.00  0.00     0.260 C 
ENDROOT
BRANCH   8   9
HETATM    9  C9  UNK     1      19.749  -4.267  36.623  1.00  0.00     0.108 A 
HETATM   10  C12 UNK     1      19.388  -5.410  36.029  1.00  0.00     0.037 A 
HETATM   11  C15 UNK     1      20.109  -6.643  36.309  1.00  0.00    -0.001 A 
HETATM   12  C16 UNK     1      21.177  -6.610  37.199  1.00  0.00     0.089 A 
HETATM   13  C18 UNK     1      19.766  -7.858  35.711  1.00  0.00     0.014 A 
HETATM   14  O3  UNK     1      21.554  -5.403  37.821  1.00  0.00    -0.274 OA
HETATM   15  C19 UNK     1      21.908  -7.754  37.510  1.00  0.00     0.038 A 
HETATM   16  C13 UNK     1      20.883  -4.209  37.574  1.00  0.00     0.304 A 
HETATM   17  O4  UNK     1      21.218  -3.163  38.119  1.00  0.00    -0.259 OA
HETATM   18  C22 UNK     1      21.559  -8.962  36.910  1.00  0.00     0.003 A 
HETATM   19  C20 UNK     1      20.491  -9.014  36.014  1.00  0.00     0.001 A 
ENDBRANCH   8   9
BRANCH   2  20
HETATM   20  C5  UNK     1      19.693  -0.836  31.323  1.00  0.00     0.064 A 
HETATM   21  C7  UNK     1      19.231   0.444  30.926  1.00  0.00     0.095 A 
HETATM   22  C10 UNK     1      19.265   0.848  29.591  1.00  0.00     0.039 A 
HETATM   23  C14 UNK     1      19.760  -0.016  28.614  1.00  0.00     0.003 A 
HETATM   24  C11 UNK     1      20.221  -1.282  28.971  1.00  0.00     0.002 A 
HETATM   25  C8  UNK     1      20.189  -1.686  30.306  1.00  0.00     0.032 A 
BRANCH  21  26
HETATM   26  O1  UNK     1      18.745   1.302  31.866  1.00  0.00    -0.349 OA
BRANCH  26  27
HETATM   27  C17 UNK     1      18.258   2.561  31.405  1.00  0.00     0.171 C 
HETATM   28  C21 UNK     1      18.225   3.532  32.564  1.00  0.00     0.034 C 
ENDBRANCH  26  27
ENDBRANCH  21  26
ENDBRANCH   2  20
TORSDOF 4
ENDMDL
MODEL 3
REMARK VINA RESULT:      -8.6     33.464     35.243
REMARK  4 active torsions:
REMARK  status: ('A' for Active; 'I' for Inactive)
REMARK    1  A    between atoms: C17_23  and  O1_1 
REMARK    2  A    between atoms: C7_13  and  O1_1 
REMARK    3  A    between atoms: C5_11  and  N1_5 
REMARK       I    between atoms: C6_12  and  N2_6 
REMARK    4  A    between atoms: C6_12  and  C9_15 
ROOT
HETATM    1  O2  UNK     1      27.594 -10.253  38.919  1.00  0.00    -0.267 OA
HETATM    2  N1  UNK     1      30.163  -7.041  36.332  1.00  0.00    -0.376 N 
HETATM    3  N2  UNK     1      28.326  -9.051  37.070  1.00  0.00    -0.345 N 
HETATM    4  C1  UNK     1      30.435  -7.873  37.517  1.00  0.00     0.143 C 
HETATM    5  C2  UNK     1      28.753  -6.911  35.939  1.00  0.00     0.143 C 
HETATM    6  C3  UNK     1      29.741  -9.229  37.389  1.00  0.00     0.146 C 
HETATM    7  C4  UNK     1      28.104  -8.290  35.837  1.00  0.00     0.146 C 
HETATM    8  C6  UNK     1      27.356  -9.602  37.900  1.00  0.00     0.260 C 
ENDROOT
BRANCH   8   9
HETATM    9  C9  UNK     1      25.941  -9.391  37.540  1.00  0.00     0.108 A 
HETATM   10  C12 UNK     1      25.359 -10.364  36.832  1.00  0.00     0.037 A 
HETATM   11  C15 UNK     1      23.965 -10.246  36.429  1.00  0.00    -0.001 A 
HETATM   12  C16 UNK     1      23.254  -9.108  36.794  1.00  0.00     0.089 A 
HETATM   13  C18 UNK     1      23.317 -11.238  35.689  1.00  0.00     0.014 A 
HETATM   14  O3  UNK     1      23.872  -8.086  37.541  1.00  0.00    -0.274 OA
HETATM   15  C19 UNK     1      21.918  -8.933  36.441  1.00  0.00     0.038 A 
HETATM   16  C13 UNK     1      25.203  -8.170  37.941  1.00  0.00     0.304 A 
HETATM   17  O4  UNK     1      25.734  -7.276  38.590  1.00  0.00    -0.259 OA
HETATM   18  C22 UNK     1      21.279  -9.927  35.702  1.00  0.00     0.003 A 
HETATM   19  C20 UNK     1      21.977 -11.076  35.327  1.00  0.00     0.001 A 
ENDBRANCH   8   9
BRANCH   2  20
HETATM   20  C5  UNK     1      31.056  -5.999  36.053  1.00  0.00     0.064 A 
HETATM   21  C7  UNK     1      31.376  -5.006  37.011  1.00  0.00     0.095 A 
HETATM   22  C10 UNK     1      32.269  -3.974  36.718  1.00  0.00     0.039 A 
HETATM   23  C14 UNK     1      32.866  -3.905  35.460  1.00  0.00     0.003 A 
HETATM   24  C11 UNK     1      32.571  -4.866  34.494  1.00  0.00     0.002 A 
HETATM   25  C8  UNK     1      31.680  -5.899  34.787  1.00  0.00     0.032 A 
BRANCH  21  26
HETATM   26  O1  UNK     1      30.804  -5.057  38.246  1.00  0.00    -0.349 OA
BRANCH  26  27
HETATM   27  C17 UNK     1      29.866  -4.034  38.569  1.00  0.00     0.171 C 
HETATM   28  C21 UNK     1      28.502  -4.659  38.770  1.00  0.00     0.034 C 
ENDBRANCH  26  27
ENDBRANCH  21  26
ENDBRANCH   2  20
TORSDOF 4
ENDMDL
MODEL 4
REMARK VINA RESULT:      -8.5     28.547     30.842
REMARK  4 active torsions:
REMARK  status: ('A' for Active; 'I' for Inactive)
REMARK    1  A    between atoms: C17_23  and  O1_1 
REMARK    2  A    between atoms: C7_13  and  O1_1 
REMARK    3  A    between atoms: C5_11  and  N1_5 
REMARK       I    between atoms: C6_12  and  N2_6 
REMARK    4  A    between atoms: C6_12  and  C9_15 
ROOT
HETATM    1  O2  UNK     1      20.836  -2.625  37.628  1.00  0.00    -0.267 OA
HETATM    2  N1  UNK     1      20.394  -7.307  36.407  1.00  0.00    -0.376 N 
HETATM    3  N2  UNK     1      19.866  -4.561  36.787  1.00  0.00    -0.345 N 
HETATM    4  C1  UNK     1      21.088  -6.576  37.482  1.00  0.00     0.143 C 
HETATM    5  C2  UNK     1      19.916  -6.499  35.276  1.00  0.00     0.143 C 
HETATM    6  C3  UNK     1      20.257  -5.376  37.935  1.00  0.00     0.146 C 
HETATM    7  C4  UNK     1      19.104  -5.308  35.782  1.00  0.00     0.146 C 
HETATM    8  C6  UNK     1      20.208  -3.215  36.747  1.00  0.00     0.260 C 
ENDROOT
BRANCH   8   9
HETATM    9  C9  UNK     1      19.797  -2.435  35.563  1.00  0.00     0.108 A 
HETATM   10  C12 UNK     1      20.468  -2.678  34.432  1.00  0.00     0.037 A 
HETATM   11  C15 UNK     1      20.136  -1.957  33.212  1.00  0.00    -0.001 A 
HETATM   12  C16 UNK     1      19.112  -1.017  33.245  1.00  0.00     0.089 A 
HETATM   13  C18 UNK     1      20.809  -2.180  32.009  1.00  0.00     0.014 A 
HETATM   14  O3  UNK     1      18.408  -0.765  34.439  1.00  0.00    -0.274 OA
HETATM   15  C19 UNK     1      18.744  -0.293  32.113  1.00  0.00     0.038 A 
HETATM   16  C13 UNK     1      18.703  -1.438  35.621  1.00  0.00     0.304 A 
HETATM   17  O4  UNK     1      18.086  -1.212  36.656  1.00  0.00    -0.259 OA
HETATM   18  C22 UNK     1      19.421  -0.520  30.916  1.00  0.00     0.003 A 
HETATM   19  C20 UNK     1      20.451  -1.461  30.865  1.00  0.00     0.001 A 
ENDBRANCH   8   9
BRANCH   2  20
HETATM   20  C5  UNK     1      20.750  -8.644  36.198  1.00  0.00     0.064 A 
HETATM   21  C7  UNK     1      20.324  -9.680  37.066  1.00  0.00     0.095 A 
HETATM   22  C10 UNK     1      20.685 -11.010  36.844  1.00  0.00     0.039 A 
HETATM   23  C14 UNK     1      21.483 -11.342  35.749  1.00  0.00     0.003 A 
HETATM   24  C11 UNK     1      21.919 -10.346  34.876  1.00  0.00     0.002 A 
HETATM   25  C8  UNK     1      21.557  -9.017  35.097  1.00  0.00     0.032 A 
BRANCH  21  26
HETATM   26  O1  UNK     1      19.543  -9.376  38.140  1.00  0.00    -0.349 OA
BRANCH  26  27
HETATM   27  C17 UNK     1      20.003  -9.807  39.419  1.00  0.00     0.171 C 
HETATM   28  C21 UNK     1      21.248  -9.027  39.784  1.00  0.00     0.034 C 
ENDBRANCH  26  27
ENDBRANCH  21  26
ENDBRANCH   2  20
TORSDOF 4
ENDMDL
MODEL 5
REMARK VINA RESULT:      -8.5     33.507     35.252
REMARK  4 active torsions:
REMARK  status: ('A' for Active; 'I' for Inactive)
REMARK    1  A    between atoms: C17_23  and  O1_1 
REMARK    2  A    between atoms: C7_13  and  O1_1 
REMARK    3  A    between atoms: C5_11  and  N1_5 
REMARK       I    between atoms: C6_12  and  N2_6 
REMARK    4  A    between atoms: C6_12  and  C9_15 
ROOT
HETATM    1  O2  UNK     1      27.612 -10.250  38.947  1.00  0.00    -0.267 OA
HETATM    2  N1  UNK     1      30.140  -6.888  36.513  1.00  0.00    -0.376 N 
HETATM    3  N2  UNK     1      28.337  -8.963  37.153  1.00  0.00    -0.345 N 
HETATM    4  C1  UNK     1      30.416  -7.760  37.668  1.00  0.00     0.143 C 
HETATM    5  C2  UNK     1      28.731  -6.773  36.109  1.00  0.00     0.143 C 
HETATM    6  C3  UNK     1      29.752  -9.124  37.480  1.00  0.00     0.146 C 
HETATM    7  C4  UNK     1      28.111  -8.160  35.948  1.00  0.00     0.146 C 
HETATM    8  C6  UNK     1      27.371  -9.565  37.951  1.00  0.00     0.260 C 
ENDROOT
BRANCH   8   9
HETATM    9  C9  UNK     1      25.955  -9.369  37.584  1.00  0.00     0.108 A 
HETATM   10  C12 UNK     1      25.391 -10.341  36.859  1.00  0.00     0.037 A 
HETATM   11  C15 UNK     1      23.999 -10.237  36.449  1.00  0.00    -0.001 A 
HETATM   12  C16 UNK     1      23.269  -9.114  36.823  1.00  0.00     0.089 A 
HETATM   13  C18 UNK     1      23.370 -11.229  35.692  1.00  0.00     0.014 A 
HETATM   14  O3  UNK     1      23.868  -8.093  37.588  1.00  0.00    -0.274 OA
HETATM   15  C19 UNK     1      21.933  -8.953  36.463  1.00  0.00     0.038 A 
HETATM   16  C13 UNK     1      25.198  -8.164  37.995  1.00  0.00     0.304 A 
HETATM   17  O4  UNK     1      25.711  -7.271  38.659  1.00  0.00    -0.259 OA
HETATM   18  C22 UNK     1      21.313  -9.946  35.708  1.00  0.00     0.003 A 
HETATM   19  C20 UNK     1      22.029 -11.081  35.323  1.00  0.00     0.001 A 
ENDBRANCH   8   9
BRANCH   2  20
HETATM   20  C5  UNK     1      31.013  -5.819  36.283  1.00  0.00     0.064 A 
HETATM   21  C7  UNK     1      32.022  -5.872  35.290  1.00  0.00     0.095 A 
HETATM   22  C10 UNK     1      32.885  -4.797  35.072  1.00  0.00     0.039 A 
HETATM   23  C14 UNK     1      32.764  -3.640  35.839  1.00  0.00     0.003 A 
HETATM   24  C11 UNK     1      31.782  -3.555  36.825  1.00  0.00     0.002 A 
HETATM   25  C8  UNK     1      30.918  -4.629  37.043  1.00  0.00     0.032 A 
BRANCH  21  26
HETATM   26  O1  UNK     1      32.155  -6.994  34.529  1.00  0.00    -0.349 OA
BRANCH  26  27
HETATM   27  C17 UNK     1      33.215  -7.886  34.867  1.00  0.00     0.171 C 
HETATM   28  C21 UNK     1      32.663  -9.290  34.978  1.00  0.00     0.034 C 
ENDBRANCH  26  27
ENDBRANCH  21  26
ENDBRANCH   2  20
TORSDOF 4
ENDMDL
MODEL 6
REMARK VINA RESULT:      -8.5     33.052     36.400
REMARK  4 active torsions:
REMARK  status: ('A' for Active; 'I' for Inactive)
REMARK    1  A    between atoms: C17_23  and  O1_1 
REMARK    2  A    between atoms: C7_13  and  O1_1 
REMARK    3  A    between atoms: C5_11  and  N1_5 
REMARK       I    between atoms: C6_12  and  N2_6 
REMARK    4  A    between atoms: C6_12  and  C9_15 
ROOT
HETATM    1  O2  UNK     1      28.752  -5.939  39.821  1.00  0.00    -0.267 OA
HETATM    2  N1  UNK     1      26.046  -8.833  37.008  1.00  0.00    -0.376 N 
HETATM    3  N2  UNK     1      27.780  -6.789  37.889  1.00  0.00    -0.345 N 
HETATM    4  C1  UNK     1      25.942  -8.339  38.392  1.00  0.00     0.143 C 
HETATM    5  C2  UNK     1      27.350  -8.659  36.352  1.00  0.00     0.143 C 
HETATM    6  C3  UNK     1      26.451  -6.901  38.486  1.00  0.00     0.146 C 
HETATM    7  C4  UNK     1      27.819  -7.211  36.486  1.00  0.00     0.146 C 
HETATM    8  C6  UNK     1      28.839  -6.300  38.646  1.00  0.00     0.260 C 
ENDROOT
BRANCH   8   9
HETATM    9  C9  UNK     1      30.163  -6.212  38.001  1.00  0.00     0.108 A 
HETATM   10  C12 UNK     1      30.503  -5.015  37.510  1.00  0.00     0.037 A 
HETATM   11  C15 UNK     1      31.790  -4.830  36.855  1.00  0.00    -0.001 A 
HETATM   12  C16 UNK     1      32.654  -5.913  36.752  1.00  0.00     0.089 A 
HETATM   13  C18 UNK     1      32.186  -3.598  36.329  1.00  0.00     0.014 A 
HETATM   14  O3  UNK     1      32.292  -7.172  37.272  1.00  0.00    -0.274 OA
HETATM   15  C19 UNK     1      33.900  -5.803  36.137  1.00  0.00     0.038 A 
HETATM   16  C13 UNK     1      31.068  -7.380  37.903  1.00  0.00     0.304 A 
HETATM   17  O4  UNK     1      30.760  -8.478  38.352  1.00  0.00    -0.259 OA
HETATM   18  C22 UNK     1      34.287  -4.571  35.614  1.00  0.00     0.003 A 
HETATM   19  C20 UNK     1      33.433  -3.471  35.709  1.00  0.00     0.001 A 
ENDBRANCH   8   9
BRANCH   2  20
HETATM   20  C5  UNK     1      25.227  -9.906  36.639  1.00  0.00     0.064 A 
HETATM   21  C7  UNK     1      23.836  -9.749  36.419  1.00  0.00     0.095 A 
HETATM   22  C10 UNK     1      23.032 -10.828  36.050  1.00  0.00     0.039 A 
HETATM   23  C14 UNK     1      23.594 -12.095  35.891  1.00  0.00     0.003 A 
HETATM   24  C11 UNK     1      24.959 -12.283  36.101  1.00  0.00     0.002 A 
HETATM   25  C8  UNK     1      25.764 -11.204  36.468  1.00  0.00     0.032 A 
BRANCH  21  26
HETATM   26  O1  UNK     1      23.268  -8.520  36.568  1.00  0.00    -0.349 OA
BRANCH  26  27
HETATM   27  C17 UNK     1      22.056  -8.452  37.315  1.00  0.00     0.171 C 
HETATM   28  C21 UNK     1      20.965  -7.878  36.436  1.00  0.00     0.034 C 
ENDBRANCH  26  27
ENDBRANCH  21  26
ENDBRANCH   2  20
TORSDOF 4
ENDMDL
MODEL 7
REMARK VINA RESULT:      -8.4      1.071      2.352
REMARK  4 active torsions:
REMARK  status: ('A' for Active; 'I' for Inactive)
REMARK    1  A    between atoms: C17_23  and  O1_1 
REMARK    2  A    between atoms: C7_13  and  O1_1 
REMARK    3  A    between atoms: C5_11  and  N1_5 
REMARK       I    between atoms: C6_12  and  N2_6 
REMARK    4  A    between atoms: C6_12  and  C9_15 
ROOT
HETATM    1  O2  UNK     1       9.609   5.625   6.978  1.00  0.00    -0.267 OA
HETATM    2  N1  UNK     1      13.504   7.808   8.896  1.00  0.00    -0.376 N 
HETATM    3  N2  UNK     1      10.848   7.185   8.174  1.00  0.00    -0.345 N 
HETATM    4  C1  UNK     1      13.247   7.034   7.669  1.00  0.00     0.143 C 
HETATM    5  C2  UNK     1      12.469   7.736   9.938  1.00  0.00     0.143 C 
HETATM    6  C3  UNK     1      11.852   7.341   7.125  1.00  0.00     0.146 C 
HETATM    7  C4  UNK     1      11.095   8.037   9.341  1.00  0.00     0.146 C 
HETATM    8  C6  UNK     1       9.785   6.308   7.989  1.00  0.00     0.260 C 
ENDROOT
BRANCH   8   9
HETATM    9  C9  UNK     1       8.800   6.180   9.080  1.00  0.00     0.108 A 
HETATM   10  C12 UNK     1       7.892   7.158   9.175  1.00  0.00     0.037 A 
HETATM   11  C15 UNK     1       6.880   7.120  10.220  1.00  0.00    -0.001 A 
HETATM   12  C16 UNK     1       6.873   6.053  11.111  1.00  0.00     0.089 A 
HETATM   13  C18 UNK     1       5.913   8.119  10.356  1.00  0.00     0.014 A 
HETATM   14  O3  UNK     1       7.830   5.024  11.005  1.00  0.00    -0.274 OA
HETATM   15  C19 UNK     1       5.931   5.956  12.133  1.00  0.00     0.038 A 
HETATM   16  C13 UNK     1       8.811   5.033  10.017  1.00  0.00     0.304 A 
HETATM   17  O4  UNK     1       9.641   4.135   9.932  1.00  0.00    -0.259 OA
HETATM   18  C22 UNK     1       4.970   6.957  12.262  1.00  0.00     0.003 A 
HETATM   19  C20 UNK     1       4.961   8.036  11.377  1.00  0.00     0.001 A 
ENDBRANCH   8   9
BRANCH   2  20
HETATM   20  C5  UNK     1      14.837   8.020   9.263  1.00  0.00     0.064 A 
HETATM   21  C7  UNK     1      15.480   9.268   9.072  1.00  0.00     0.095 A 
HETATM   22  C10 UNK     1      16.811   9.465   9.444  1.00  0.00     0.039 A 
HETATM   23  C14 UNK     1      17.537   8.421  10.016  1.00  0.00     0.003 A 
HETATM   24  C11 UNK     1      16.934   7.180  10.216  1.00  0.00     0.002 A 
HETATM   25  C8  UNK     1      15.603   6.982   9.846  1.00  0.00     0.032 A 
BRANCH  21  26
HETATM   26  O1  UNK     1      14.788  10.301   8.517  1.00  0.00    -0.349 OA
BRANCH  26  27
HETATM   27  C17 UNK     1      15.313  11.613   8.711  1.00  0.00     0.171 C 
HETATM   28  C21 UNK     1      15.569  12.247   7.361  1.00  0.00     0.034 C 
ENDBRANCH  26  27
ENDBRANCH  21  26
ENDBRANCH   2  20
TORSDOF 4
ENDMDL
MODEL 8
REMARK VINA RESULT:      -8.3     29.256     31.300
REMARK  4 active torsions:
REMARK  status: ('A' for Active; 'I' for Inactive)
REMARK    1  A    between atoms: C17_23  and  O1_1 
REMARK    2  A    between atoms: C7_13  and  O1_1 
REMARK    3  A    between atoms: C5_11  and  N1_5 
REMARK       I    between atoms: C6_12  and  N2_6 
REMARK    4  A    between atoms: C6_12  and  C9_15 
ROOT
HETATM    1  O2  UNK     1      21.460  -2.839  37.971  1.00  0.00    -0.267 OA
HETATM    2  N1  UNK     1      20.502  -7.425  36.683  1.00  0.00    -0.376 N 
HETATM    3  N2  UNK     1      20.208  -4.727  37.457  1.00  0.00    -0.345 N 
HETATM    4  C1  UNK     1      21.584  -6.762  37.431  1.00  0.00     0.143 C 
HETATM    5  C2  UNK     1      19.610  -6.545  35.914  1.00  0.00     0.143 C 
HETATM    6  C3  UNK     1      21.027  -5.617  38.276  1.00  0.00     0.146 C 
HETATM    7  C4  UNK     1      19.091  -5.413  36.799  1.00  0.00     0.146 C 
HETATM    8  C6  UNK     1      20.519  -3.374  37.383  1.00  0.00     0.260 C 
ENDROOT
BRANCH   8   9
HETATM    9  C9  UNK     1      19.666  -2.517  36.537  1.00  0.00     0.108 A 
HETATM   10  C12 UNK     1      18.671  -1.875  37.158  1.00  0.00     0.037 A 
HETATM   11  C15 UNK     1      17.776  -1.007  36.408  1.00  0.00    -0.001 A 
HETATM   12  C16 UNK     1      17.975  -0.857  35.040  1.00  0.00     0.089 A 
HETATM   13  C18 UNK     1      16.725  -0.317  37.016  1.00  0.00     0.014 A 
HETATM   14  O3  UNK     1      19.025  -1.535  34.390  1.00  0.00    -0.274 OA
HETATM   15  C19 UNK     1      17.154  -0.041  34.264  1.00  0.00     0.038 A 
HETATM   16  C13 UNK     1      19.897  -2.372  35.081  1.00  0.00     0.304 A 
HETATM   17  O4  UNK     1      20.808  -2.959  34.508  1.00  0.00    -0.259 OA
HETATM   18  C22 UNK     1      16.107   0.643  34.878  1.00  0.00     0.003 A 
HETATM   19  C20 UNK     1      15.893   0.505  36.251  1.00  0.00     0.001 A 
ENDBRANCH   8   9
BRANCH   2  20
HETATM   20  C5  UNK     1      20.724  -8.735  36.245  1.00  0.00     0.064 A 
HETATM   21  C7  UNK     1      20.045  -9.843  36.809  1.00  0.00     0.095 A 
HETATM   22  C10 UNK     1      20.277 -11.144  36.360  1.00  0.00     0.039 A 
HETATM   23  C14 UNK     1      21.194 -11.375  35.336  1.00  0.00     0.003 A 
HETATM   24  C11 UNK     1      21.879 -10.307  34.759  1.00  0.00     0.002 A 
HETATM   25  C8  UNK     1      21.648  -9.006  35.206  1.00  0.00     0.032 A 
BRANCH  21  26
HETATM   26  O1  UNK     1      19.144  -9.638  37.810  1.00  0.00    -0.349 OA
BRANCH  26  27
HETATM   27  C17 UNK     1      19.448 -10.206  39.083  1.00  0.00     0.171 C 
HETATM   28  C21 UNK     1      20.498  -9.355  39.765  1.00  0.00     0.034 C 
ENDBRANCH  26  27
ENDBRANCH  21  26
ENDBRANCH   2  20
TORSDOF 4
ENDMDL
MODEL 9
REMARK VINA RESULT:      -8.2     23.608     25.001
REMARK  4 active torsions:
REMARK  status: ('A' for Active; 'I' for Inactive)
REMARK    1  A    between atoms: C17_23  and  O1_1 
REMARK    2  A    between atoms: C7_13  and  O1_1 
REMARK    3  A    between atoms: C5_11  and  N1_5 
REMARK       I    between atoms: C6_12  and  N2_6 
REMARK    4  A    between atoms: C6_12  and  C9_15 
ROOT
HETATM    1  O2  UNK     1      18.674  10.242  33.764  1.00  0.00    -0.267 OA
HETATM    2  N1  UNK     1      18.186   5.568  32.529  1.00  0.00    -0.376 N 
HETATM    3  N2  UNK     1      17.858   8.067  33.798  1.00  0.00    -0.345 N 
HETATM    4  C1  UNK     1      19.307   6.523  32.552  1.00  0.00     0.143 C 
HETATM    5  C2  UNK     1      16.839   6.143  32.655  1.00  0.00     0.143 C 
HETATM    6  C3  UNK     1      19.186   7.461  33.753  1.00  0.00     0.146 C 
HETATM    7  C4  UNK     1      16.775   7.080  33.860  1.00  0.00     0.146 C 
HETATM    8  C6  UNK     1      17.729   9.451  33.798  1.00  0.00     0.260 C 
ENDROOT
BRANCH   8   9
HETATM    9  C9  UNK     1      16.367  10.016  33.838  1.00  0.00     0.108 A 
HETATM   10  C12 UNK     1      16.053  10.728  34.926  1.00  0.00     0.037 A 
HETATM   11  C15 UNK     1      14.732  11.324  35.057  1.00  0.00    -0.001 A 
HETATM   12  C16 UNK     1      13.808  11.143  34.033  1.00  0.00     0.089 A 
HETATM   13  C18 UNK     1      14.362  12.075  36.175  1.00  0.00     0.014 A 
HETATM   14  O3  UNK     1      14.144  10.393  32.889  1.00  0.00    -0.274 OA
HETATM   15  C19 UNK     1      12.527  11.687  34.096  1.00  0.00     0.038 A 
HETATM   16  C13 UNK     1      15.399   9.810  32.736  1.00  0.00     0.304 A 
HETATM   17  O4  UNK     1      15.684   9.158  31.737  1.00  0.00    -0.259 OA
HETATM   18  C22 UNK     1      12.165  12.435  35.215  1.00  0.00     0.003 A 
HETATM   19  C20 UNK     1      13.080  12.628  36.252  1.00  0.00     0.001 A 
ENDBRANCH   8   9
BRANCH   2  20
HETATM   20  C5  UNK     1      18.362   4.377  31.815  1.00  0.00     0.064 A 
HETATM   21  C7  UNK     1      18.252   3.107  32.432  1.00  0.00     0.095 A 
HETATM   22  C10 UNK     1      18.429   1.928  31.706  1.00  0.00     0.039 A 
HETATM   23  C14 UNK     1      18.723   1.985  30.344  1.00  0.00     0.003 A 
HETATM   24  C11 UNK     1      18.839   3.219  29.707  1.00  0.00     0.002 A 
HETATM   25  C8  UNK     1      18.661   4.398  30.431  1.00  0.00     0.032 A 
BRANCH  21  26
HETATM   26  O1  UNK     1      17.964   3.030  33.761  1.00  0.00    -0.349 OA
BRANCH  26  27
HETATM   27  C17 UNK     1      18.160   1.768  34.395  1.00  0.00     0.171 C 
HETATM   28  C21 UNK     1      18.859   1.984  35.720  1.00  0.00     0.034 C 
ENDBRANCH  26  27
ENDBRANCH  21  26
ENDBRANCH   2  20
TORSDOF 4
ENDMDL
MODEL 10
REMARK VINA RESULT:      -8.1     31.784     34.894
REMARK  4 active torsions:
REMARK  status: ('A' for Active; 'I' for Inactive)
REMARK    1  A    between atoms: C17_23  and  O1_1 
REMARK    2  A    between atoms: C7_13  and  O1_1 
REMARK    3  A    between atoms: C5_11  and  N1_5 
REMARK       I    between atoms: C6_12  and  N2_6 
REMARK    4  A    between atoms: C6_12  and  C9_15 
ROOT
HETATM    1  O2  UNK     1      31.157  -6.294  35.606  1.00  0.00    -0.267 OA
HETATM    2  N1  UNK     1      30.294  -9.037  31.689  1.00  0.00    -0.376 N 
HETATM    3  N2  UNK     1      31.038  -8.197  34.278  1.00  0.00    -0.345 N 
HETATM    4  C1  UNK     1      30.716  -7.642  31.907  1.00  0.00     0.143 C 
HETATM    5  C2  UNK     1      29.756  -9.743  32.861  1.00  0.00     0.143 C 
HETATM    6  C3  UNK     1      31.644  -7.547  33.118  1.00  0.00     0.146 C 
HETATM    7  C4  UNK     1      30.712  -9.607  34.045  1.00  0.00     0.146 C 
HETATM    8  C6  UNK     1      30.848  -7.477  35.452  1.00  0.00     0.260 C 
ENDROOT
BRANCH   8   9
HETATM    9  C9  UNK     1      30.226  -8.174  36.594  1.00  0.00     0.108 A 
HETATM   10  C12 UNK     1      28.928  -7.931  36.801  1.00  0.00     0.037 A 
HETATM   11  C15 UNK     1      28.227  -8.572  37.904  1.00  0.00    -0.001 A 
HETATM   12  C16 UNK     1      28.930  -9.439  38.734  1.00  0.00     0.089 A 
HETATM   13  C18 UNK     1      26.872  -8.347  38.156  1.00  0.00     0.014 A 
HETATM   14  O3  UNK     1      30.298  -9.692  38.511  1.00  0.00    -0.274 OA
HETATM   15  C19 UNK     1      28.319 -10.084  39.807  1.00  0.00     0.038 A 
HETATM   16  C13 UNK     1      30.995  -9.094  37.465  1.00  0.00     0.304 A 
HETATM   17  O4  UNK     1      32.185  -9.320  37.278  1.00  0.00    -0.259 OA
HETATM   18  C22 UNK     1      26.967  -9.854  40.052  1.00  0.00     0.003 A 
HETATM   19  C20 UNK     1      26.245  -8.988  39.229  1.00  0.00     0.001 A 
ENDBRANCH   8   9
BRANCH   2  20
HETATM   20  C5  UNK     1      29.851  -9.388  30.409  1.00  0.00     0.064 A 
HETATM   21  C7  UNK     1      28.516  -9.164  29.988  1.00  0.00     0.095 A 
HETATM   22  C10 UNK     1      28.089  -9.518  28.707  1.00  0.00     0.039 A 
HETATM   23  C14 UNK     1      28.981 -10.107  27.812  1.00  0.00     0.003 A 
HETATM   24  C11 UNK     1      30.301 -10.342  28.196  1.00  0.00     0.002 A 
HETATM   25  C8  UNK     1      30.730  -9.987  29.475  1.00  0.00     0.032 A 
BRANCH  21  26
HETATM   26  O1  UNK     1      27.630  -8.588  30.847  1.00  0.00    -0.349 OA
BRANCH  26  27
HETATM   27  C17 UNK     1      26.865  -7.491  30.351  1.00  0.00     0.171 C 
HETATM   28  C21 UNK     1      27.736  -6.254  30.324  1.00  0.00     0.034 C 
ENDBRANCH  26  27
ENDBRANCH  21  26
ENDBRANCH   2  20
TORSDOF 4
ENDMDL
