MODEL 1
REMARK VINA RESULT:      -9.3      0.000      0.000
REMARK  1 active torsions:
REMARK  status: ('A' for Active; 'I' for Inactive)
REMARK    1  A    between atoms: C8_13  and  N1_4 
ROOT
HETATM    1  O1  UNK     1      16.906  11.208  33.447  1.00  0.00    -0.268 OA
HETATM    2  N1  UNK     1      18.140   4.974  32.597  1.00  0.00    -0.379 N 
HETATM    3  N2  UNK     1      17.860   9.094  33.704  1.00  0.00    -0.317 N 
HETATM    4  C1  UNK     1      16.510   6.810  33.552  1.00  0.00     0.023 C 
HETATM    5  C2  UNK     1      18.787   6.902  33.864  1.00  0.00     0.054 C 
HETATM    6  C3  UNK     1      17.508   6.574  34.649  1.00  0.00     0.020 C 
HETATM    7  C4  UNK     1      16.863   5.783  32.395  1.00  0.00     0.129 C 
HETATM    8  C5  UNK     1      19.307   5.585  33.335  1.00  0.00     0.133 C 
HETATM    9  C6  UNK     1      16.629   8.354  33.191  1.00  0.00     0.138 C 
HETATM   10  C7  UNK     1      19.012   8.348  34.063  1.00  0.00     0.020 A 
HETATM   11  C9  UNK     1      20.129   8.941  34.494  1.00  0.00     0.026 A 
HETATM   12  C10 UNK     1      17.853  10.492  33.769  1.00  0.00     0.247 A 
HETATM   13  C12 UNK     1      20.165  10.375  34.607  1.00  0.00     0.007 A 
HETATM   14  C13 UNK     1      19.110  11.127  34.272  1.00  0.00     0.074 A 
ENDROOT
BRANCH   2  15
HETATM   15  C8  UNK     1      18.280   3.750  32.005  1.00  0.00     0.049 A 
HETATM   16  C11 UNK     1      18.320   2.534  32.838  1.00  0.00     0.025 A 
HETATM   17  C15 UNK     1      18.464   1.293  32.210  1.00  0.00     0.092 A 
HETATM   18  C16 UNK     1      18.222   2.533  34.238  1.00  0.00     0.023 A 
HETATM   19  O2  UNK     1      18.570   1.190  30.809  1.00  0.00    -0.275 OA
HETATM   20  C19 UNK     1      18.511   0.092  32.920  1.00  0.00     0.039 A 
HETATM   21  C17 UNK     1      18.538   2.311  29.997  1.00  0.00     0.290 A 
HETATM   22  C14 UNK     1      18.385   3.609  30.674  1.00  0.00     0.113 A 
HETATM   23  O3  UNK     1      18.627   2.236  28.777  1.00  0.00    -0.260 OA
HETATM   24  C20 UNK     1      18.412   0.117  34.306  1.00  0.00     0.009 A 
HETATM   25  C18 UNK     1      18.268   1.336  34.964  1.00  0.00    -0.061 A 
HETATM   26  C21 UNK     1      18.161   1.366  36.453  1.00  0.00     0.048 C 
ENDBRANCH   2  15
TORSDOF 1
ENDMDL
MODEL 2
REMARK VINA RESULT:      -9.1     14.464     16.737
REMARK  1 active torsions:
REMARK  status: ('A' for Active; 'I' for Inactive)
REMARK    1  A    between atoms: C8_13  and  N1_4 
ROOT
HETATM    1  O1  UNK     1      29.146  -4.358  39.817  1.00  0.00    -0.268 OA
HETATM    2  N1  UNK     1      26.108  -9.342  37.165  1.00  0.00    -0.379 N 
HETATM    3  N2  UNK     1      28.707  -6.204  38.460  1.00  0.00    -0.317 N 
HETATM    4  C1  UNK     1      27.388  -8.371  39.253  1.00  0.00     0.023 C 
HETATM    5  C2  UNK     1      28.144  -8.081  37.100  1.00  0.00     0.054 C 
HETATM    6  C3  UNK     1      28.467  -8.906  38.355  1.00  0.00     0.020 C 
HETATM    7  C4  UNK     1      26.007  -8.729  38.558  1.00  0.00     0.129 C 
HETATM    8  C5  UNK     1      27.240  -8.944  36.249  1.00  0.00     0.133 C 
HETATM    9  C6  UNK     1      27.712  -6.824  39.435  1.00  0.00     0.138 C 
HETATM   10  C7  UNK     1      28.949  -6.849  37.220  1.00  0.00     0.020 A 
HETATM   11  C9  UNK     1      29.790  -6.341  36.314  1.00  0.00     0.026 A 
HETATM   12  C10 UNK     1      29.327  -4.991  38.778  1.00  0.00     0.247 A 
HETATM   13  C12 UNK     1      30.476  -5.111  36.605  1.00  0.00     0.007 A 
HETATM   14  C13 UNK     1      30.276  -4.456  37.755  1.00  0.00     0.074 A 
ENDROOT
BRANCH   2  15
HETATM   15  C8  UNK     1      25.111 -10.153  36.697  1.00  0.00     0.049 A 
HETATM   16  C11 UNK     1      23.712  -9.689  36.733  1.00  0.00     0.025 A 
HETATM   17  C15 UNK     1      22.711 -10.535  36.248  1.00  0.00     0.092 A 
HETATM   18  C16 UNK     1      23.308  -8.438  37.226  1.00  0.00     0.023 A 
HETATM   19  O2  UNK     1      23.016 -11.810  35.733  1.00  0.00    -0.275 OA
HETATM   20  C19 UNK     1      21.361 -10.177  36.243  1.00  0.00     0.039 A 
HETATM   21  C17 UNK     1      24.318 -12.278  35.685  1.00  0.00     0.290 A 
HETATM   22  C14 UNK     1      25.361 -11.374  36.199  1.00  0.00     0.113 A 
HETATM   23  O3  UNK     1      24.598 -13.384  35.238  1.00  0.00    -0.260 OA
HETATM   24  C20 UNK     1      20.986  -8.933  36.737  1.00  0.00     0.009 A 
HETATM   25  C18 UNK     1      21.958  -8.065  37.227  1.00  0.00    -0.061 A 
HETATM   26  C21 UNK     1      21.558  -6.728  37.757  1.00  0.00     0.048 C 
ENDBRANCH   2  15
TORSDOF 1
ENDMDL
MODEL 3
REMARK VINA RESULT:      -8.8     16.860     18.820
REMARK  1 active torsions:
REMARK  status: ('A' for Active; 'I' for Inactive)
REMARK    1  A    between atoms: C8_13  and  N1_4 
ROOT
HETATM    1  O1  UNK     1      31.159 -10.985  29.194  1.00  0.00    -0.268 OA
HETATM    2  N1  UNK     1      29.703  -7.911  34.629  1.00  0.00    -0.379 N 
HETATM    3  N2  UNK     1      29.918  -9.951  30.878  1.00  0.00    -0.317 N 
HETATM    4  C1  UNK     1      30.447 -10.159  33.475  1.00  0.00     0.023 C 
HETATM    5  C2  UNK     1      28.750  -8.849  32.642  1.00  0.00     0.054 C 
HETATM    6  C3  UNK     1      28.946 -10.168  33.403  1.00  0.00     0.020 C 
HETATM    7  C4  UNK     1      30.850  -8.856  34.285  1.00  0.00     0.129 C 
HETATM    8  C5  UNK     1      28.527  -7.785  33.691  1.00  0.00     0.133 C 
HETATM    9  C6  UNK     1      30.946 -10.242  31.967  1.00  0.00     0.138 C 
HETATM   10  C7  UNK     1      28.751  -9.216  31.211  1.00  0.00     0.020 A 
HETATM   11  C9  UNK     1      27.827  -8.908  30.296  1.00  0.00     0.026 A 
HETATM   12  C10 UNK     1      30.160 -10.371  29.566  1.00  0.00     0.247 A 
HETATM   13  C12 UNK     1      28.014  -9.341  28.937  1.00  0.00     0.007 A 
HETATM   14  C13 UNK     1      29.101 -10.029  28.567  1.00  0.00     0.074 A 
ENDROOT
BRANCH   2  15
HETATM   15  C8  UNK     1      29.794  -7.086  35.716  1.00  0.00     0.049 A 
HETATM   16  C11 UNK     1      29.100  -7.444  36.967  1.00  0.00     0.025 A 
HETATM   17  C15 UNK     1      29.208  -6.585  38.064  1.00  0.00     0.092 A 
HETATM   18  C16 UNK     1      28.328  -8.604  37.137  1.00  0.00     0.023 A 
HETATM   19  O2  UNK     1      29.961  -5.397  37.993  1.00  0.00    -0.275 OA
HETATM   20  C19 UNK     1      28.586  -6.845  39.287  1.00  0.00     0.039 A 
HETATM   21  C17 UNK     1      30.624  -5.030  36.834  1.00  0.00     0.290 A 
HETATM   22  C14 UNK     1      30.501  -5.945  35.688  1.00  0.00     0.113 A 
HETATM   23  O3  UNK     1      31.284  -4.000  36.758  1.00  0.00    -0.260 OA
HETATM   24  C20 UNK     1      27.825  -8.000  39.430  1.00  0.00     0.009 A 
HETATM   25  C18 UNK     1      27.697  -8.878  38.357  1.00  0.00    -0.061 A 
HETATM   26  C21 UNK     1      26.882 -10.120  38.508  1.00  0.00     0.048 C 
ENDBRANCH   2  15
TORSDOF 1
ENDMDL
MODEL 4
REMARK VINA RESULT:      -8.6     15.525     17.940
REMARK  1 active torsions:
REMARK  status: ('A' for Active; 'I' for Inactive)
REMARK    1  A    between atoms: C8_13  and  N1_4 
ROOT
HETATM    1  O1  UNK     1      27.366  -5.778  39.075  1.00  0.00    -0.268 OA
HETATM    2  N1  UNK     1      30.039  -8.939  34.180  1.00  0.00    -0.379 N 
HETATM    3  N2  UNK     1      28.949  -6.513  37.527  1.00  0.00    -0.317 N 
HETATM    4  C1  UNK     1      29.148  -9.017  36.658  1.00  0.00     0.023 C 
HETATM    5  C2  UNK     1      30.480  -7.310  35.880  1.00  0.00     0.054 C 
HETATM    6  C3  UNK     1      30.572  -8.555  36.776  1.00  0.00     0.020 C 
HETATM    7  C4  UNK     1      28.900  -9.320  35.120  1.00  0.00     0.129 C 
HETATM    8  C5  UNK     1      30.913  -7.750  34.501  1.00  0.00     0.133 C 
HETATM    9  C6  UNK     1      28.269  -7.860  37.305  1.00  0.00     0.138 C 
HETATM   10  C7  UNK     1      30.117  -6.200  36.784  1.00  0.00     0.020 A 
HETATM   11  C9  UNK     1      30.743  -5.027  36.916  1.00  0.00     0.026 A 
HETATM   12  C10 UNK     1      28.390  -5.592  38.419  1.00  0.00     0.247 A 
HETATM   13  C12 UNK     1      30.225  -4.056  37.843  1.00  0.00     0.007 A 
HETATM   14  C13 UNK     1      29.121  -4.296  38.561  1.00  0.00     0.074 A 
ENDROOT
BRANCH   2  15
HETATM   15  C8  UNK     1      30.194  -9.591  32.988  1.00  0.00     0.049 A 
HETATM   16  C11 UNK     1      29.349  -9.223  31.837  1.00  0.00     0.025 A 
HETATM   17  C15 UNK     1      29.526  -9.904  30.629  1.00  0.00     0.092 A 
HETATM   18  C16 UNK     1      28.365  -8.222  31.868  1.00  0.00     0.023 A 
HETATM   19  O2  UNK     1      30.488 -10.923  30.497  1.00  0.00    -0.275 OA
HETATM   20  C19 UNK     1      28.771  -9.620  29.489  1.00  0.00     0.039 A 
HETATM   21  C17 UNK     1      31.297 -11.295  31.557  1.00  0.00     0.290 A 
HETATM   22  C14 UNK     1      31.099 -10.568  32.822  1.00  0.00     0.113 A 
HETATM   23  O3  UNK     1      32.140 -12.180  31.456  1.00  0.00    -0.260 OA
HETATM   24  C20 UNK     1      27.802  -8.625  29.545  1.00  0.00     0.009 A 
HETATM   25  C18 UNK     1      27.599  -7.927  30.733  1.00  0.00    -0.061 A 
HETATM   26  C21 UNK     1      26.560  -6.857  30.796  1.00  0.00     0.048 C 
ENDBRANCH   2  15
TORSDOF 1
ENDMDL
MODEL 5
REMARK VINA RESULT:      -8.5     16.490     18.965
REMARK  1 active torsions:
REMARK  status: ('A' for Active; 'I' for Inactive)
REMARK    1  A    between atoms: C8_13  and  N1_4 
ROOT
HETATM    1  O1  UNK     1      34.932  -7.829  31.573  1.00  0.00    -0.268 OA
HETATM    2  N1  UNK     1      31.485  -5.607  36.501  1.00  0.00    -0.379 N 
HETATM    3  N2  UNK     1      34.381  -6.777  33.581  1.00  0.00    -0.317 N 
HETATM    4  C1  UNK     1      32.173  -5.350  33.970  1.00  0.00     0.023 C 
HETATM    5  C2  UNK     1      33.712  -5.757  35.631  1.00  0.00     0.054 C 
HETATM    6  C3  UNK     1      33.231  -4.606  34.734  1.00  0.00     0.020 C 
HETATM    7  C4  UNK     1      31.113  -5.848  35.041  1.00  0.00     0.129 C 
HETATM    8  C5  UNK     1      32.935  -5.640  36.921  1.00  0.00     0.133 C 
HETATM    9  C6  UNK     1      32.946  -6.478  33.158  1.00  0.00     0.138 C 
HETATM   10  C7  UNK     1      34.807  -6.408  34.883  1.00  0.00     0.020 A 
HETATM   11  C9  UNK     1      36.043  -6.667  35.320  1.00  0.00     0.026 A 
HETATM   12  C10 UNK     1      35.237  -7.450  32.703  1.00  0.00     0.247 A 
HETATM   13  C12 UNK     1      36.972  -7.331  34.445  1.00  0.00     0.007 A 
HETATM   14  C13 UNK     1      36.619  -7.710  33.211  1.00  0.00     0.074 A 
ENDROOT
BRANCH   2  15
HETATM   15  C8  UNK     1      30.507  -5.488  37.449  1.00  0.00     0.049 A 
HETATM   16  C11 UNK     1      29.405  -6.466  37.492  1.00  0.00     0.025 A 
HETATM   17  C15 UNK     1      28.417  -6.323  38.470  1.00  0.00     0.092 A 
HETATM   18  C16 UNK     1      29.276  -7.549  36.607  1.00  0.00     0.023 A 
HETATM   19  O2  UNK     1      28.460  -5.269  39.405  1.00  0.00    -0.275 OA
HETATM   20  C19 UNK     1      27.340  -7.203  38.585  1.00  0.00     0.039 A 
HETATM   21  C17 UNK     1      29.478  -4.333  39.392  1.00  0.00     0.290 A 
HETATM   22  C14 UNK     1      30.511  -4.498  38.356  1.00  0.00     0.113 A 
HETATM   23  O3  UNK     1      29.528  -3.412  40.199  1.00  0.00    -0.260 OA
HETATM   24  C20 UNK     1      27.233  -8.267  37.697  1.00  0.00     0.009 A 
HETATM   25  C18 UNK     1      28.200  -8.439  36.709  1.00  0.00    -0.061 A 
HETATM   26  C21 UNK     1      28.089  -9.581  35.755  1.00  0.00     0.048 C 
ENDBRANCH   2  15
TORSDOF 1
ENDMDL
MODEL 6
REMARK VINA RESULT:      -8.5     23.595     25.420
REMARK  1 active torsions:
REMARK  status: ('A' for Active; 'I' for Inactive)
REMARK    1  A    between atoms: C8_13  and  N1_4 
ROOT
HETATM    1  O1  UNK     1       7.467   6.550   7.524  1.00  0.00    -0.268 OA
HETATM    2  N1  UNK     1      13.708   6.787   8.972  1.00  0.00    -0.379 N 
HETATM    3  N2  UNK     1       9.567   5.936   8.332  1.00  0.00    -0.317 N 
HETATM    4  C1  UNK     1      11.864   6.487   7.114  1.00  0.00     0.023 C 
HETATM    5  C2  UNK     1      11.749   5.420   9.148  1.00  0.00     0.054 C 
HETATM    6  C3  UNK     1      12.069   5.111   7.678  1.00  0.00     0.020 C 
HETATM    7  C4  UNK     1      12.913   7.431   7.840  1.00  0.00     0.129 C 
HETATM    8  C5  UNK     1      13.073   5.709   9.817  1.00  0.00     0.133 C 
HETATM    9  C6  UNK     1      10.327   6.821   7.349  1.00  0.00     0.138 C 
HETATM   10  C7  UNK     1      10.297   5.189   9.292  1.00  0.00     0.020 A 
HETATM   11  C9  UNK     1       9.687   4.416  10.196  1.00  0.00     0.026 A 
HETATM   12  C10 UNK     1       8.169   5.909   8.304  1.00  0.00     0.247 A 
HETATM   13  C12 UNK     1       8.251   4.331  10.191  1.00  0.00     0.007 A 
HETATM   14  C13 UNK     1       7.514   5.022   9.314  1.00  0.00     0.074 A 
ENDROOT
BRANCH   2  15
HETATM   15  C8  UNK     1      14.944   7.268   9.305  1.00  0.00     0.049 A 
HETATM   16  C11 UNK     1      15.078   8.635   9.841  1.00  0.00     0.025 A 
HETATM   17  C15 UNK     1      16.351   9.105  10.173  1.00  0.00     0.092 A 
HETATM   18  C16 UNK     1      14.001   9.512  10.045  1.00  0.00     0.023 A 
HETATM   19  O2  UNK     1      17.495   8.299  10.006  1.00  0.00    -0.275 OA
HETATM   20  C19 UNK     1      16.571  10.384  10.688  1.00  0.00     0.039 A 
HETATM   21  C17 UNK     1      17.406   7.013   9.504  1.00  0.00     0.290 A 
HETATM   22  C14 UNK     1      16.058   6.533   9.159  1.00  0.00     0.113 A 
HETATM   23  O3  UNK     1      18.392   6.301   9.354  1.00  0.00    -0.260 OA
HETATM   24  C20 UNK     1      15.488  11.234  10.880  1.00  0.00     0.009 A 
HETATM   25  C18 UNK     1      14.205  10.799  10.559  1.00  0.00    -0.061 A 
HETATM   26  C21 UNK     1      13.040  11.709  10.765  1.00  0.00     0.048 C 
ENDBRANCH   2  15
TORSDOF 1
ENDMDL
MODEL 7
REMARK VINA RESULT:      -8.4     16.914     18.810
REMARK  1 active torsions:
REMARK  status: ('A' for Active; 'I' for Inactive)
REMARK    1  A    between atoms: C8_13  and  N1_4 
ROOT
HETATM    1  O1  UNK     1      32.817  -3.856  36.810  1.00  0.00    -0.268 OA
HETATM    2  N1  UNK     1      31.303  -8.340  32.485  1.00  0.00    -0.379 N 
HETATM    3  N2  UNK     1      31.888  -5.769  35.851  1.00  0.00    -0.317 N 
HETATM    4  C1  UNK     1      30.924  -5.890  33.377  1.00  0.00     0.023 C 
HETATM    5  C2  UNK     1      31.013  -7.712  34.779  1.00  0.00     0.054 C 
HETATM    6  C3  UNK     1      29.983  -6.742  34.180  1.00  0.00     0.020 C 
HETATM    7  C4  UNK     1      31.618  -6.856  32.326  1.00  0.00     0.129 C 
HETATM    8  C5  UNK     1      31.047  -8.911  33.859  1.00  0.00     0.133 C 
HETATM    9  C6  UNK     1      31.879  -5.191  34.439  1.00  0.00     0.138 C 
HETATM   10  C7  UNK     1      31.438  -7.099  36.054  1.00  0.00     0.020 A 
HETATM   11  C9  UNK     1      31.446  -7.669  37.262  1.00  0.00     0.026 A 
HETATM   12  C10 UNK     1      32.382  -5.002  36.911  1.00  0.00     0.247 A 
HETATM   13  C12 UNK     1      31.916  -6.913  38.392  1.00  0.00     0.007 A 
HETATM   14  C13 UNK     1      32.362  -5.658  38.255  1.00  0.00     0.074 A 
ENDROOT
BRANCH   2  15
HETATM   15  C8  UNK     1      31.376  -9.177  31.407  1.00  0.00     0.049 A 
HETATM   16  C11 UNK     1      30.215  -9.317  30.508  1.00  0.00     0.025 A 
HETATM   17  C15 UNK     1      30.313 -10.179  29.413  1.00  0.00     0.092 A 
HETATM   18  C16 UNK     1      29.000  -8.634  30.677  1.00  0.00     0.023 A 
HETATM   19  O2  UNK     1      31.492 -10.908  29.158  1.00  0.00    -0.275 OA
HETATM   20  C19 UNK     1      29.265 -10.372  28.511  1.00  0.00     0.039 A 
HETATM   21  C17 UNK     1      32.599 -10.802  29.981  1.00  0.00     0.290 A 
HETATM   22  C14 UNK     1      32.480  -9.889  31.130  1.00  0.00     0.113 A 
HETATM   23  O3  UNK     1      33.631 -11.429  29.771  1.00  0.00    -0.260 OA
HETATM   24  C20 UNK     1      28.071  -9.685  28.700  1.00  0.00     0.009 A 
HETATM   25  C18 UNK     1      27.939  -8.817  29.781  1.00  0.00    -0.061 A 
HETATM   26  C21 UNK     1      26.659  -8.078  29.986  1.00  0.00     0.048 C 
ENDBRANCH   2  15
TORSDOF 1
ENDMDL
MODEL 8
REMARK VINA RESULT:      -8.4     15.595     17.176
REMARK  1 active torsions:
REMARK  status: ('A' for Active; 'I' for Inactive)
REMARK    1  A    between atoms: C8_13  and  N1_4 
ROOT
HETATM    1  O1  UNK     1      28.272  -6.101  39.919  1.00  0.00    -0.268 OA
HETATM    2  N1  UNK     1      28.671  -7.401  33.654  1.00  0.00    -0.379 N 
HETATM    3  N2  UNK     1      29.084  -6.192  37.734  1.00  0.00    -0.317 N 
HETATM    4  C1  UNK     1      28.835  -8.295  36.127  1.00  0.00     0.023 C 
HETATM    5  C2  UNK     1      29.806  -6.318  35.464  1.00  0.00     0.054 C 
HETATM    6  C3  UNK     1      30.204  -7.758  35.820  1.00  0.00     0.020 C 
HETATM    7  C4  UNK     1      27.986  -8.148  34.794  1.00  0.00     0.129 C 
HETATM    8  C5  UNK     1      29.640  -6.285  33.962  1.00  0.00     0.133 C 
HETATM    9  C6  UNK     1      28.325  -7.469  37.387  1.00  0.00     0.138 C 
HETATM   10  C7  UNK     1      29.871  -5.566  36.733  1.00  0.00     0.020 A 
HETATM   11  C9  UNK     1      30.538  -4.432  36.969  1.00  0.00     0.026 A 
HETATM   12  C10 UNK     1      28.957  -5.634  39.010  1.00  0.00     0.247 A 
HETATM   13  C12 UNK     1      30.464  -3.832  38.274  1.00  0.00     0.007 A 
HETATM   14  C13 UNK     1      29.729  -4.376  39.251  1.00  0.00     0.074 A 
ENDROOT
BRANCH   2  15
HETATM   15  C8  UNK     1      28.317  -7.652  32.357  1.00  0.00     0.049 A 
HETATM   16  C11 UNK     1      28.988  -8.732  31.610  1.00  0.00     0.025 A 
HETATM   17  C15 UNK     1      28.610  -8.968  30.286  1.00  0.00     0.092 A 
HETATM   18  C16 UNK     1      29.996  -9.552  32.143  1.00  0.00     0.023 A 
HETATM   19  O2  UNK     1      27.608  -8.199  29.662  1.00  0.00    -0.275 OA
HETATM   20  C19 UNK     1      29.191  -9.970  29.505  1.00  0.00     0.039 A 
HETATM   21  C17 UNK     1      26.959  -7.178  30.333  1.00  0.00     0.290 A 
HETATM   22  C14 UNK     1      27.368  -6.941  31.727  1.00  0.00     0.113 A 
HETATM   23  O3  UNK     1      26.084  -6.501  29.803  1.00  0.00    -0.260 OA
HETATM   24  C20 UNK     1      30.187 -10.768  30.055  1.00  0.00     0.009 A 
HETATM   25  C18 UNK     1      30.588 -10.559  31.372  1.00  0.00    -0.061 A 
HETATM   26  C21 UNK     1      31.657 -11.416  31.966  1.00  0.00     0.048 C 
ENDBRANCH   2  15
TORSDOF 1
ENDMDL
MODEL 9
REMARK VINA RESULT:      -8.4     16.442     18.815
REMARK  1 active torsions:
REMARK  status: ('A' for Active; 'I' for Inactive)
REMARK    1  A    between atoms: C8_13  and  N1_4 
ROOT
HETATM    1  O1  UNK     1      29.806  -5.446  37.821  1.00  0.00    -0.268 OA
HETATM    2  N1  UNK     1      31.563  -8.877  32.698  1.00  0.00    -0.379 N 
HETATM    3  N2  UNK     1      31.078  -6.256  36.040  1.00  0.00    -0.317 N 
HETATM    4  C1  UNK     1      31.172  -8.808  35.302  1.00  0.00     0.023 C 
HETATM    5  C2  UNK     1      32.281  -7.135  34.178  1.00  0.00     0.054 C 
HETATM    6  C3  UNK     1      32.579  -8.317  35.111  1.00  0.00     0.020 C 
HETATM    7  C4  UNK     1      30.638  -9.212  33.864  1.00  0.00     0.129 C 
HETATM    8  C5  UNK     1      32.449  -7.656  32.769  1.00  0.00     0.133 C 
HETATM    9  C6  UNK     1      30.404  -7.624  36.037  1.00  0.00     0.138 C 
HETATM   10  C7  UNK     1      32.070  -5.974  35.067  1.00  0.00     0.020 A 
HETATM   11  C9  UNK     1      32.677  -4.785  35.002  1.00  0.00     0.026 A 
HETATM   12  C10 UNK     1      30.678  -5.287  36.968  1.00  0.00     0.247 A 
HETATM   13  C12 UNK     1      32.323  -3.764  35.952  1.00  0.00     0.007 A 
HETATM   14  C13 UNK     1      31.387  -3.974  36.885  1.00  0.00     0.074 A 
ENDROOT
BRANCH   2  15
HETATM   15  C8  UNK     1      31.501  -9.601  31.540  1.00  0.00     0.049 A 
HETATM   16  C11 UNK     1      30.314  -9.495  30.671  1.00  0.00     0.025 A 
HETATM   17  C15 UNK     1      30.274 -10.246  29.494  1.00  0.00     0.092 A 
HETATM   18  C16 UNK     1      29.205  -8.679  30.947  1.00  0.00     0.023 A 
HETATM   19  O2  UNK     1      31.338 -11.093  29.129  1.00  0.00    -0.275 OA
HETATM   20  C19 UNK     1      29.191 -10.205  28.612  1.00  0.00     0.039 A 
HETATM   21  C17 UNK     1      32.466 -11.218  29.921  1.00  0.00     0.290 A 
HETATM   22  C14 UNK     1      32.494 -10.420  31.158  1.00  0.00     0.113 A 
HETATM   23  O3  UNK     1      33.400 -11.951  29.615  1.00  0.00    -0.260 OA
HETATM   24  C20 UNK     1      28.104  -9.390  28.908  1.00  0.00     0.009 A 
HETATM   25  C18 UNK     1      28.112  -8.629  30.074  1.00  0.00    -0.061 A 
HETATM   26  C21 UNK     1      26.946  -7.752  30.393  1.00  0.00     0.048 C 
ENDBRANCH   2  15
TORSDOF 1
ENDMDL
MODEL 10
REMARK VINA RESULT:      -8.4     16.315     18.715
REMARK  1 active torsions:
REMARK  status: ('A' for Active; 'I' for Inactive)
REMARK    1  A    between atoms: C8_13  and  N1_4 
ROOT
HETATM    1  O1  UNK     1      32.604 -10.611  29.454  1.00  0.00    -0.268 OA
HETATM    2  N1  UNK     1      29.469  -7.595  34.163  1.00  0.00    -0.379 N 
HETATM    3  N2  UNK     1      31.078  -9.233  30.557  1.00  0.00    -0.317 N 
HETATM    4  C1  UNK     1      29.896  -9.843  32.858  1.00  0.00     0.023 C 
HETATM    5  C2  UNK     1      29.584  -7.834  31.782  1.00  0.00     0.054 C 
HETATM    6  C3  UNK     1      28.828  -9.139  32.072  1.00  0.00     0.020 C 
HETATM    7  C4  UNK     1      30.183  -8.942  34.133  1.00  0.00     0.129 C 
HETATM    8  C5  UNK     1      29.186  -6.865  32.871  1.00  0.00     0.133 C 
HETATM    9  C6  UNK     1      31.107 -10.047  31.846  1.00  0.00     0.138 C 
HETATM   10  C7  UNK     1      30.283  -8.060  30.500  1.00  0.00     0.020 A 
HETATM   11  C9  UNK     1      30.237  -7.291  29.408  1.00  0.00     0.026 A 
HETATM   12  C10 UNK     1      31.867  -9.626  29.471  1.00  0.00     0.247 A 
HETATM   13  C12 UNK     1      31.008  -7.667  28.253  1.00  0.00     0.007 A 
HETATM   14  C13 UNK     1      31.782  -8.758  28.256  1.00  0.00     0.074 A 
ENDROOT
BRANCH   2  15
HETATM   15  C8  UNK     1      29.197  -6.987  35.357  1.00  0.00     0.049 A 
HETATM   16  C11 UNK     1      30.126  -5.975  35.892  1.00  0.00     0.025 A 
HETATM   17  C15 UNK     1      29.827  -5.368  37.115  1.00  0.00     0.092 A 
HETATM   18  C16 UNK     1      31.308  -5.571  35.250  1.00  0.00     0.023 A 
HETATM   19  O2  UNK     1      28.664  -5.705  37.835  1.00  0.00    -0.275 OA
HETATM   20  C19 UNK     1      30.649  -4.399  37.694  1.00  0.00     0.039 A 
HETATM   21  C17 UNK     1      27.771  -6.651  37.363  1.00  0.00     0.290 A 
HETATM   22  C14 UNK     1      28.100  -7.281  36.073  1.00  0.00     0.113 A 
HETATM   23  O3  UNK     1      26.755  -6.953  37.978  1.00  0.00    -0.260 OA
HETATM   24  C20 UNK     1      31.815  -4.017  37.040  1.00  0.00     0.009 A 
HETATM   25  C18 UNK     1      32.143  -4.602  35.820  1.00  0.00    -0.061 A 
HETATM   26  C21 UNK     1      33.393  -4.192  35.114  1.00  0.00     0.048 C 
ENDBRANCH   2  15
TORSDOF 1
ENDMDL
