MODEL 1
REMARK VINA RESULT:      -8.6      0.000      0.000
REMARK  3 active torsions:
REMARK  status: ('A' for Active; 'I' for Inactive)
REMARK    1  A    between atoms: C4_9  and  N1_5 
REMARK       I    between atoms: C6_11  and  N1_5 
REMARK    2  A    between atoms: C2_7  and  C6_11 
REMARK    3  A    between atoms: C4_9  and  C7_12 
ROOT
HETATM    1  O1  UNK     1      18.934   0.340  32.252  1.00  0.00    -0.274 OA
HETATM    2  O3  UNK     1      18.014   2.420  32.465  1.00  0.00    -0.259 OA
HETATM    3  C1  UNK     1      19.943  -0.315  30.139  1.00  0.00    -0.001 A 
HETATM    4  C2  UNK     1      18.969   1.891  30.362  1.00  0.00     0.108 A 
HETATM    5  C3  UNK     1      19.601  -0.611  31.455  1.00  0.00     0.089 A 
HETATM    6  C5  UNK     1      19.602   0.992  29.600  1.00  0.00     0.037 A 
HETATM    7  C8  UNK     1      20.604  -1.285  29.381  1.00  0.00     0.014 A 
HETATM    8  C9  UNK     1      18.595   1.599  31.764  1.00  0.00     0.304 A 
HETATM    9  C10 UNK     1      19.898  -1.845  32.032  1.00  0.00     0.038 A 
HETATM   10  C11 UNK     1      20.909  -2.527  29.945  1.00  0.00     0.001 A 
HETATM   11  C12 UNK     1      20.557  -2.806  31.267  1.00  0.00     0.003 A 
ENDROOT
BRANCH   4  12
HETATM   12  C6  UNK     1      18.667   3.180  29.728  1.00  0.00     0.258 C 
HETATM   13  O2  UNK     1      18.030   3.234  28.679  1.00  0.00    -0.267 OA
HETATM   14  N1  UNK     1      19.172   4.258  30.434  1.00  0.00    -0.352 N 
HETATM   15  H4  UNK     1      19.703   4.107  31.286  1.00  0.00     0.163 HD
BRANCH  14  16
HETATM   16  C4  UNK     1      19.006   5.628  30.005  1.00  0.00     0.169 C 
BRANCH  16  17
HETATM   17  C7  UNK     1      18.512   6.508  31.118  1.00  0.00     0.000 A 
HETATM   18  C13 UNK     1      17.365   7.245  31.154  1.00  0.00     0.017 A 
HETATM   19  C14 UNK     1      17.242   7.952  32.383  1.00  0.00     0.008 A 
HETATM   20  C15 UNK     1      18.307   7.718  33.225  1.00  0.00     0.050 A 
HETATM   21  S1  UNK     1      19.449   6.647  32.532  1.00  0.00    -0.105 SA
ENDBRANCH  16  17
ENDBRANCH  14  16
ENDBRANCH   4  12
TORSDOF 3
ENDMDL
MODEL 2
REMARK VINA RESULT:      -8.4      1.415      2.319
REMARK  3 active torsions:
REMARK  status: ('A' for Active; 'I' for Inactive)
REMARK    1  A    between atoms: C4_9  and  N1_5 
REMARK       I    between atoms: C6_11  and  N1_5 
REMARK    2  A    between atoms: C2_7  and  C6_11 
REMARK    3  A    between atoms: C4_9  and  C7_12 
ROOT
HETATM    1  O1  UNK     1      19.206   0.136  28.655  1.00  0.00    -0.274 OA
HETATM    2  O3  UNK     1      18.271   2.111  27.986  1.00  0.00    -0.259 OA
HETATM    3  C1  UNK     1      19.813  -0.173  30.989  1.00  0.00    -0.001 A 
HETATM    4  C2  UNK     1      18.823   1.921  30.283  1.00  0.00     0.108 A 
HETATM    5  C3  UNK     1      19.740  -0.660  29.688  1.00  0.00     0.089 A 
HETATM    6  C5  UNK     1      19.329   1.169  31.267  1.00  0.00     0.037 A 
HETATM    7  C8  UNK     1      20.350  -0.993  31.986  1.00  0.00     0.014 A 
HETATM    8  C9  UNK     1      18.734   1.424  28.891  1.00  0.00     0.304 A 
HETATM    9  C10 UNK     1      20.187  -1.937  29.355  1.00  0.00     0.038 A 
HETATM   10  C11 UNK     1      20.802  -2.277  31.667  1.00  0.00     0.001 A 
HETATM   11  C12 UNK     1      20.721  -2.748  30.355  1.00  0.00     0.003 A 
ENDROOT
BRANCH   4  12
HETATM   12  C6  UNK     1      18.362   3.262  30.662  1.00  0.00     0.258 C 
HETATM   13  O2  UNK     1      17.480   3.412  31.504  1.00  0.00    -0.267 OA
HETATM   14  N1  UNK     1      19.017   4.270  29.977  1.00  0.00    -0.352 N 
HETATM   15  H4  UNK     1      19.722   4.041  29.284  1.00  0.00     0.163 HD
BRANCH  14  16
HETATM   16  C4  UNK     1      18.733   5.672  30.177  1.00  0.00     0.169 C 
BRANCH  16  17
HETATM   17  C7  UNK     1      19.314   6.185  31.464  1.00  0.00     0.000 A 
HETATM   18  C13 UNK     1      20.604   6.086  31.896  1.00  0.00     0.017 A 
HETATM   19  C14 UNK     1      20.770   6.696  33.172  1.00  0.00     0.008 A 
HETATM   20  C15 UNK     1      19.594   7.231  33.649  1.00  0.00     0.050 A 
HETATM   21  S1  UNK     1      18.294   6.996  32.559  1.00  0.00    -0.105 SA
ENDBRANCH  16  17
ENDBRANCH  14  16
ENDBRANCH   4  12
TORSDOF 3
ENDMDL
MODEL 3
REMARK VINA RESULT:      -7.9      2.694      7.350
REMARK  3 active torsions:
REMARK  status: ('A' for Active; 'I' for Inactive)
REMARK    1  A    between atoms: C4_9  and  N1_5 
REMARK       I    between atoms: C6_11  and  N1_5 
REMARK    2  A    between atoms: C2_7  and  C6_11 
REMARK    3  A    between atoms: C4_9  and  C7_12 
ROOT
HETATM    1  O1  UNK     1      20.284   6.703  32.496  1.00  0.00    -0.274 OA
HETATM    2  O3  UNK     1      21.274   5.679  30.710  1.00  0.00    -0.259 OA
HETATM    3  C1  UNK     1      17.966   6.201  33.033  1.00  0.00    -0.001 A 
HETATM    4  C2  UNK     1      19.014   5.113  31.140  1.00  0.00     0.108 A 
HETATM    5  C3  UNK     1      19.145   6.889  33.304  1.00  0.00     0.089 A 
HETATM    6  C5  UNK     1      17.929   5.286  31.904  1.00  0.00     0.037 A 
HETATM    7  C8  UNK     1      16.858   6.413  33.857  1.00  0.00     0.014 A 
HETATM    8  C9  UNK     1      20.278   5.834  31.409  1.00  0.00     0.304 A 
HETATM    9  C10 UNK     1      19.246   7.781  34.370  1.00  0.00     0.038 A 
HETATM   10  C11 UNK     1      16.945   7.304  34.931  1.00  0.00     0.001 A 
HETATM   11  C12 UNK     1      18.135   7.986  35.187  1.00  0.00     0.003 A 
ENDROOT
BRANCH   4  12
HETATM   12  C6  UNK     1      18.877   4.170  30.023  1.00  0.00     0.258 C 
HETATM   13  O2  UNK     1      18.633   4.568  28.887  1.00  0.00    -0.267 OA
HETATM   14  N1  UNK     1      19.048   2.852  30.409  1.00  0.00    -0.352 N 
HETATM   15  H4  UNK     1      19.230   2.623  31.380  1.00  0.00     0.163 HD
BRANCH  14  16
HETATM   16  C4  UNK     1      18.957   1.744  29.486  1.00  0.00     0.169 C 
BRANCH  16  17
HETATM   17  C7  UNK     1      19.448   0.462  30.097  1.00  0.00     0.000 A 
HETATM   18  C13 UNK     1      19.310   0.046  31.389  1.00  0.00     0.017 A 
HETATM   19  C14 UNK     1      19.910  -1.230  31.588  1.00  0.00     0.008 A 
HETATM   20  C15 UNK     1      20.475  -1.723  30.433  1.00  0.00     0.050 A 
HETATM   21  S1  UNK     1      20.282  -0.648  29.114  1.00  0.00    -0.105 SA
ENDBRANCH  16  17
ENDBRANCH  14  16
ENDBRANCH   4  12
TORSDOF 3
ENDMDL
MODEL 4
REMARK VINA RESULT:      -7.8     15.059     16.760
REMARK  3 active torsions:
REMARK  status: ('A' for Active; 'I' for Inactive)
REMARK    1  A    between atoms: C4_9  and  N1_5 
REMARK       I    between atoms: C6_11  and  N1_5 
REMARK    2  A    between atoms: C2_7  and  C6_11 
REMARK    3  A    between atoms: C4_9  and  C7_12 
ROOT
HETATM    1  O1  UNK     1      19.269  -2.354  12.663  1.00  0.00    -0.274 OA
HETATM    2  O3  UNK     1      19.157  -0.471  13.954  1.00  0.00    -0.259 OA
HETATM    3  C1  UNK     1      18.563  -4.488  13.590  1.00  0.00    -0.001 A 
HETATM    4  C2  UNK     1      18.443  -2.494  14.960  1.00  0.00     0.108 A 
HETATM    5  C3  UNK     1      19.066  -3.741  12.529  1.00  0.00     0.089 A 
HETATM    6  C5  UNK     1      18.248  -3.813  14.839  1.00  0.00     0.037 A 
HETATM    7  C8  UNK     1      18.376  -5.861  13.418  1.00  0.00     0.014 A 
HETATM    8  C9  UNK     1      18.976  -1.680  13.845  1.00  0.00     0.304 A 
HETATM    9  C10 UNK     1      19.388  -4.327  11.306  1.00  0.00     0.038 A 
HETATM   10  C11 UNK     1      18.694  -6.464  12.197  1.00  0.00     0.001 A 
HETATM   11  C12 UNK     1      19.199  -5.698  11.144  1.00  0.00     0.003 A 
ENDROOT
BRANCH   4  12
HETATM   12  C6  UNK     1      18.097  -1.905  16.259  1.00  0.00     0.258 C 
HETATM   13  O2  UNK     1      16.976  -2.051  16.741  1.00  0.00    -0.267 OA
HETATM   14  N1  UNK     1      19.145  -1.202  16.827  1.00  0.00    -0.352 N 
HETATM   15  H4  UNK     1      20.032  -1.125  16.340  1.00  0.00     0.163 HD
BRANCH  14  16
HETATM   16  C4  UNK     1      19.044  -0.531  18.103  1.00  0.00     0.169 C 
BRANCH  16  17
HETATM   17  C7  UNK     1      19.175   0.958  17.966  1.00  0.00     0.000 A 
HETATM   18  C13 UNK     1      19.240   1.689  16.816  1.00  0.00     0.017 A 
HETATM   19  C14 UNK     1      19.362   3.081  17.093  1.00  0.00     0.008 A 
HETATM   20  C15 UNK     1      19.384   3.340  18.446  1.00  0.00     0.050 A 
HETATM   21  S1  UNK     1      19.258   1.908  19.376  1.00  0.00    -0.105 SA
ENDBRANCH  16  17
ENDBRANCH  14  16
ENDBRANCH   4  12
TORSDOF 3
ENDMDL
MODEL 5
REMARK VINA RESULT:      -7.8      1.405      1.568
REMARK  3 active torsions:
REMARK  status: ('A' for Active; 'I' for Inactive)
REMARK    1  A    between atoms: C4_9  and  N1_5 
REMARK       I    between atoms: C6_11  and  N1_5 
REMARK    2  A    between atoms: C2_7  and  C6_11 
REMARK    3  A    between atoms: C4_9  and  C7_12 
ROOT
HETATM    1  O1  UNK     1      18.734   0.704  32.484  1.00  0.00    -0.274 OA
HETATM    2  O3  UNK     1      17.967   2.743  33.174  1.00  0.00    -0.259 OA
HETATM    3  C1  UNK     1      19.673   0.468  30.253  1.00  0.00    -0.001 A 
HETATM    4  C2  UNK     1      18.862   2.631  30.983  1.00  0.00     0.108 A 
HETATM    5  C3  UNK     1      19.322  -0.088  31.480  1.00  0.00     0.089 A 
HETATM    6  C5  UNK     1      19.422   1.882  30.025  1.00  0.00     0.037 A 
HETATM    7  C8  UNK     1      20.255  -0.351  29.283  1.00  0.00     0.014 A 
HETATM    8  C9  UNK     1      18.482   2.061  32.295  1.00  0.00     0.304 A 
HETATM    9  C10 UNK     1      19.536  -1.437  31.761  1.00  0.00     0.038 A 
HETATM   10  C11 UNK     1      20.475  -1.705  29.551  1.00  0.00     0.001 A 
HETATM   11  C12 UNK     1      20.116  -2.247  30.787  1.00  0.00     0.003 A 
ENDROOT
BRANCH   4  12
HETATM   12  C6  UNK     1      18.648   4.046  30.657  1.00  0.00     0.258 C 
HETATM   13  O2  UNK     1      18.632   4.430  29.491  1.00  0.00    -0.267 OA
HETATM   14  N1  UNK     1      18.481   4.837  31.780  1.00  0.00    -0.352 N 
HETATM   15  H4  UNK     1      18.529   4.426  32.707  1.00  0.00     0.163 HD
BRANCH  14  16
HETATM   16  C4  UNK     1      18.259   6.263  31.714  1.00  0.00     0.169 C 
BRANCH  16  17
HETATM   17  C7  UNK     1      17.026   6.676  32.466  1.00  0.00     0.000 A 
HETATM   18  C13 UNK     1      15.768   6.856  31.972  1.00  0.00     0.017 A 
HETATM   19  C14 UNK     1      14.861   7.249  32.998  1.00  0.00     0.008 A 
HETATM   20  C15 UNK     1      15.477   7.348  34.225  1.00  0.00     0.050 A 
HETATM   21  S1  UNK     1      17.145   6.968  34.139  1.00  0.00    -0.105 SA
ENDBRANCH  16  17
ENDBRANCH  14  16
ENDBRANCH   4  12
TORSDOF 3
ENDMDL
MODEL 6
REMARK VINA RESULT:      -7.8      6.872     10.796
REMARK  3 active torsions:
REMARK  status: ('A' for Active; 'I' for Inactive)
REMARK    1  A    between atoms: C4_9  and  N1_5 
REMARK       I    between atoms: C6_11  and  N1_5 
REMARK    2  A    between atoms: C2_7  and  C6_11 
REMARK    3  A    between atoms: C4_9  and  C7_12 
ROOT
HETATM    1  O1  UNK     1      19.615  -0.960  34.904  1.00  0.00    -0.274 OA
HETATM    2  O3  UNK     1      20.592  -2.982  34.481  1.00  0.00    -0.259 OA
HETATM    3  C1  UNK     1      18.335  -0.650  36.948  1.00  0.00    -0.001 A 
HETATM    4  C2  UNK     1      19.370  -2.794  36.502  1.00  0.00     0.108 A 
HETATM    5  C3  UNK     1      18.836  -0.148  35.751  1.00  0.00     0.089 A 
HETATM    6  C5  UNK     1      18.629  -2.027  37.311  1.00  0.00     0.037 A 
HETATM    7  C8  UNK     1      17.566   0.187  37.760  1.00  0.00     0.014 A 
HETATM    8  C9  UNK     1      19.914  -2.281  35.225  1.00  0.00     0.304 A 
HETATM    9  C10 UNK     1      18.590   1.163  35.344  1.00  0.00     0.038 A 
HETATM   10  C11 UNK     1      17.312   1.503  37.366  1.00  0.00     0.001 A 
HETATM   11  C12 UNK     1      17.822   1.990  36.161  1.00  0.00     0.003 A 
ENDROOT
BRANCH   4  12
HETATM   12  C6  UNK     1      19.611  -4.170  36.955  1.00  0.00     0.258 C 
HETATM   13  O2  UNK     1      20.641  -4.465  37.557  1.00  0.00    -0.267 OA
HETATM   14  N1  UNK     1      18.581  -5.032  36.626  1.00  0.00    -0.352 N 
HETATM   15  H4  UNK     1      17.775  -4.693  36.109  1.00  0.00     0.163 HD
BRANCH  14  16
HETATM   16  C4  UNK     1      18.592  -6.438  36.962  1.00  0.00     0.169 C 
BRANCH  16  17
HETATM   17  C7  UNK     1      19.620  -7.196  36.173  1.00  0.00     0.000 A 
HETATM   18  C13 UNK     1      19.893  -7.093  34.841  1.00  0.00     0.017 A 
HETATM   19  C14 UNK     1      20.940  -7.979  34.457  1.00  0.00     0.008 A 
HETATM   20  C15 UNK     1      21.412  -8.716  35.520  1.00  0.00     0.050 A 
HETATM   21  S1  UNK     1      20.594  -8.337  36.977  1.00  0.00    -0.105 SA
ENDBRANCH  16  17
ENDBRANCH  14  16
ENDBRANCH   4  12
TORSDOF 3
ENDMDL
MODEL 7
REMARK VINA RESULT:      -7.8      5.052      8.319
REMARK  3 active torsions:
REMARK  status: ('A' for Active; 'I' for Inactive)
REMARK    1  A    between atoms: C4_9  and  N1_5 
REMARK       I    between atoms: C6_11  and  N1_5 
REMARK    2  A    between atoms: C2_7  and  C6_11 
REMARK    3  A    between atoms: C4_9  and  C7_12 
ROOT
HETATM    1  O1  UNK     1      18.751   0.863  32.408  1.00  0.00    -0.274 OA
HETATM    2  O3  UNK     1      18.023   1.110  34.559  1.00  0.00    -0.259 OA
HETATM    3  C1  UNK     1      19.705  -1.259  31.701  1.00  0.00    -0.001 A 
HETATM    4  C2  UNK     1      18.933  -1.000  33.982  1.00  0.00     0.108 A 
HETATM    5  C3  UNK     1      19.332   0.050  31.414  1.00  0.00     0.089 A 
HETATM    6  C5  UNK     1      19.485  -1.776  33.042  1.00  0.00     0.037 A 
HETATM    7  C8  UNK     1      20.277  -2.034  30.689  1.00  0.00     0.014 A 
HETATM    8  C9  UNK     1      18.528   0.396  33.700  1.00  0.00     0.304 A 
HETATM    9  C10 UNK     1      19.516   0.606  30.149  1.00  0.00     0.038 A 
HETATM   10  C11 UNK     1      20.468  -1.490  29.415  1.00  0.00     0.001 A 
HETATM   11  C12 UNK     1      20.088  -0.173  29.146  1.00  0.00     0.003 A 
ENDROOT
BRANCH   4  12
HETATM   12  C6  UNK     1      18.753  -1.611  35.304  1.00  0.00     0.258 C 
HETATM   13  O2  UNK     1      17.690  -1.502  35.911  1.00  0.00    -0.267 OA
HETATM   14  N1  UNK     1      19.880  -2.282  35.745  1.00  0.00    -0.352 N 
HETATM   15  H4  UNK     1      20.719  -2.300  35.175  1.00  0.00     0.163 HD
BRANCH  14  16
HETATM   16  C4  UNK     1      19.945  -2.961  37.019  1.00  0.00     0.169 C 
BRANCH  16  17
HETATM   17  C7  UNK     1      20.248  -4.423  36.861  1.00  0.00     0.000 A 
HETATM   18  C13 UNK     1      19.740  -5.286  35.935  1.00  0.00     0.017 A 
HETATM   19  C14 UNK     1      20.268  -6.598  36.105  1.00  0.00     0.008 A 
HETATM   20  C15 UNK     1      21.156  -6.667  37.156  1.00  0.00     0.050 A 
HETATM   21  S1  UNK     1      21.349  -5.153  37.934  1.00  0.00    -0.105 SA
ENDBRANCH  16  17
ENDBRANCH  14  16
ENDBRANCH   4  12
TORSDOF 3
ENDMDL
MODEL 8
REMARK VINA RESULT:      -7.8      2.111      7.169
REMARK  3 active torsions:
REMARK  status: ('A' for Active; 'I' for Inactive)
REMARK    1  A    between atoms: C4_9  and  N1_5 
REMARK       I    between atoms: C6_11  and  N1_5 
REMARK    2  A    between atoms: C2_7  and  C6_11 
REMARK    3  A    between atoms: C4_9  and  C7_12 
ROOT
HETATM    1  O1  UNK     1      17.779   4.019  33.487  1.00  0.00    -0.274 OA
HETATM    2  O3  UNK     1      17.892   1.899  32.643  1.00  0.00    -0.259 OA
HETATM    3  C1  UNK     1      18.238   5.914  32.035  1.00  0.00    -0.001 A 
HETATM    4  C2  UNK     1      18.357   3.668  31.137  1.00  0.00     0.108 A 
HETATM    5  C3  UNK     1      17.897   5.408  33.285  1.00  0.00     0.089 A 
HETATM    6  C5  UNK     1      18.471   4.986  30.939  1.00  0.00     0.037 A 
HETATM    7  C8  UNK     1      18.345   7.298  31.874  1.00  0.00     0.014 A 
HETATM    8  C9  UNK     1      17.995   3.107  32.458  1.00  0.00     0.304 A 
HETATM    9  C10 UNK     1      17.661   6.243  34.376  1.00  0.00     0.038 A 
HETATM   10  C11 UNK     1      18.111   8.148  32.959  1.00  0.00     0.001 A 
HETATM   11  C12 UNK     1      17.771   7.622  34.206  1.00  0.00     0.003 A 
ENDROOT
BRANCH   4  12
HETATM   12  C6  UNK     1      18.613   2.813  29.971  1.00  0.00     0.258 C 
HETATM   13  O2  UNK     1      18.178   3.112  28.862  1.00  0.00    -0.267 OA
HETATM   14  N1  UNK     1      19.362   1.692  30.280  1.00  0.00    -0.352 N 
HETATM   15  H4  UNK     1      19.661   1.524  31.236  1.00  0.00     0.163 HD
BRANCH  14  16
HETATM   16  C4  UNK     1      19.738   0.700  29.299  1.00  0.00     0.169 C 
BRANCH  16  17
HETATM   17  C7  UNK     1      20.085  -0.616  29.934  1.00  0.00     0.000 A 
HETATM   18  C13 UNK     1      20.625  -1.716  29.335  1.00  0.00     0.017 A 
HETATM   19  C14 UNK     1      20.812  -2.775  30.268  1.00  0.00     0.008 A 
HETATM   20  C15 UNK     1      20.403  -2.426  31.537  1.00  0.00     0.050 A 
HETATM   21  S1  UNK     1      19.796  -0.826  31.598  1.00  0.00    -0.105 SA
ENDBRANCH  16  17
ENDBRANCH  14  16
ENDBRANCH   4  12
TORSDOF 3
ENDMDL
MODEL 9
REMARK VINA RESULT:      -7.6     14.009     16.573
REMARK  3 active torsions:
REMARK  status: ('A' for Active; 'I' for Inactive)
REMARK    1  A    between atoms: C4_9  and  N1_5 
REMARK       I    between atoms: C6_11  and  N1_5 
REMARK    2  A    between atoms: C2_7  and  C6_11 
REMARK    3  A    between atoms: C4_9  and  C7_12 
ROOT
HETATM    1  O1  UNK     1      19.285   1.099  15.440  1.00  0.00    -0.274 OA
HETATM    2  O3  UNK     1      19.421  -0.528  13.841  1.00  0.00    -0.259 OA
HETATM    3  C1  UNK     1      19.017   0.468  17.773  1.00  0.00    -0.001 A 
HETATM    4  C2  UNK     1      19.162  -1.259  16.080  1.00  0.00     0.108 A 
HETATM    5  C3  UNK     1      19.146   1.451  16.796  1.00  0.00     0.089 A 
HETATM    6  C5  UNK     1      19.030  -0.930  17.370  1.00  0.00     0.037 A 
HETATM    7  C8  UNK     1      18.881   0.857  19.107  1.00  0.00     0.014 A 
HETATM    8  C9  UNK     1      19.301  -0.230  15.024  1.00  0.00     0.304 A 
HETATM    9  C10 UNK     1      19.141   2.808  17.115  1.00  0.00     0.038 A 
HETATM   10  C11 UNK     1      18.876   2.214  19.443  1.00  0.00     0.001 A 
HETATM   11  C12 UNK     1      19.005   3.187  18.450  1.00  0.00     0.003 A 
ENDROOT
BRANCH   4  12
HETATM   12  C6  UNK     1      19.162  -2.694  15.773  1.00  0.00     0.258 C 
HETATM   13  O2  UNK     1      20.164  -3.380  15.959  1.00  0.00    -0.267 OA
HETATM   14  N1  UNK     1      17.950  -3.137  15.274  1.00  0.00    -0.352 N 
HETATM   15  H4  UNK     1      17.183  -2.486  15.140  1.00  0.00     0.163 HD
BRANCH  14  16
HETATM   16  C4  UNK     1      17.708  -4.511  14.896  1.00  0.00     0.169 C 
BRANCH  16  17
HETATM   17  C7  UNK     1      16.887  -5.239  15.921  1.00  0.00     0.000 A 
HETATM   18  C13 UNK     1      16.177  -4.704  16.956  1.00  0.00     0.017 A 
HETATM   19  C14 UNK     1      15.524  -5.718  17.714  1.00  0.00     0.008 A 
HETATM   20  C15 UNK     1      15.771  -6.978  17.217  1.00  0.00     0.050 A 
HETATM   21  S1  UNK     1      16.787  -6.936  15.838  1.00  0.00    -0.105 SA
ENDBRANCH  16  17
ENDBRANCH  14  16
ENDBRANCH   4  12
TORSDOF 3
ENDMDL
MODEL 10
REMARK VINA RESULT:      -7.6      7.359     10.234
REMARK  3 active torsions:
REMARK  status: ('A' for Active; 'I' for Inactive)
REMARK    1  A    between atoms: C4_9  and  N1_5 
REMARK       I    between atoms: C6_11  and  N1_5 
REMARK    2  A    between atoms: C2_7  and  C6_11 
REMARK    3  A    between atoms: C4_9  and  C7_12 
ROOT
HETATM    1  O1  UNK     1      20.040  -8.092  35.710  1.00  0.00    -0.274 OA
HETATM    2  O3  UNK     1      20.333  -6.185  34.487  1.00  0.00    -0.259 OA
HETATM    3  C1  UNK     1      19.905  -7.954  38.134  1.00  0.00    -0.001 A 
HETATM    4  C2  UNK     1      20.215  -5.930  36.840  1.00  0.00     0.108 A 
HETATM    5  C3  UNK     1      19.891  -8.711  36.966  1.00  0.00     0.089 A 
HETATM    6  C5  UNK     1      20.074  -6.513  38.036  1.00  0.00     0.037 A 
HETATM    7  C8  UNK     1      19.754  -8.605  39.361  1.00  0.00     0.014 A 
HETATM    8  C9  UNK     1      20.203  -6.715  35.585  1.00  0.00     0.304 A 
HETATM    9  C10 UNK     1      19.733 -10.096  36.991  1.00  0.00     0.038 A 
HETATM   10  C11 UNK     1      19.594  -9.993  39.401  1.00  0.00     0.001 A 
HETATM   11  C12 UNK     1      19.584 -10.737  38.220  1.00  0.00     0.003 A 
ENDROOT
BRANCH   4  12
HETATM   12  C6  UNK     1      20.381  -4.472  36.844  1.00  0.00     0.258 C 
HETATM   13  O2  UNK     1      21.107  -3.922  37.669  1.00  0.00    -0.267 OA
HETATM   14  N1  UNK     1      19.648  -3.844  35.853  1.00  0.00    -0.352 N 
HETATM   15  H4  UNK     1      19.062  -4.388  35.228  1.00  0.00     0.163 HD
BRANCH  14  16
HETATM   16  C4  UNK     1      19.649  -2.412  35.661  1.00  0.00     0.169 C 
BRANCH  16  17
HETATM   17  C7  UNK     1      19.691  -2.040  34.206  1.00  0.00     0.000 A 
HETATM   18  C13 UNK     1      20.555  -2.493  33.253  1.00  0.00     0.017 A 
HETATM   19  C14 UNK     1      20.280  -1.908  31.985  1.00  0.00     0.008 A 
HETATM   20  C15 UNK     1      19.215  -1.036  32.036  1.00  0.00     0.050 A 
HETATM   21  S1  UNK     1      18.552  -0.925  33.611  1.00  0.00    -0.105 SA
ENDBRANCH  16  17
ENDBRANCH  14  16
ENDBRANCH   4  12
TORSDOF 3
ENDMDL
