MODEL 1
REMARK VINA RESULT:      -7.7      0.000      0.000
REMARK  1 active torsions:
REMARK  status: ('A' for Active; 'I' for Inactive)
REMARK    1  A    between atoms: C1_4  and  C2_5 
ROOT
HETATM    1  O1  UNK     1      18.749   4.209  30.133  1.00  0.00    -0.314 OA
HETATM    2  O2  UNK     1      17.897   8.413  32.370  1.00  0.00    -0.275 OA
HETATM    3  O3  UNK     1      17.474  10.349  33.519  1.00  0.00    -0.260 OA
HETATM    4  C2  UNK     1      18.711   2.927  30.580  1.00  0.00     0.058 A 
HETATM    5  C3  UNK     1      18.173   4.232  32.317  1.00  0.00     0.001 A 
HETATM    6  C4  UNK     1      18.422   5.007  31.189  1.00  0.00     0.088 A 
HETATM    7  C5  UNK     1      18.363   2.885  31.910  1.00  0.00     0.047 A 
HETATM    8  C6  UNK     1      17.816   4.878  33.517  1.00  0.00     0.028 A 
HETATM    9  C7  UNK     1      17.725   6.278  33.531  1.00  0.00    -0.001 A 
HETATM   10  C10 UNK     1      18.344   6.397  31.159  1.00  0.00     0.076 A 
HETATM   11  C11 UNK     1      17.987   7.002  32.367  1.00  0.00     0.092 A 
HETATM   12  C12 UNK     1      17.360   7.004  34.738  1.00  0.00     0.020 A 
HETATM   13  C13 UNK     1      17.278   8.336  34.729  1.00  0.00     0.083 A 
HETATM   14  C14 UNK     1      17.550   9.125  33.514  1.00  0.00     0.288 A 
ENDROOT
BRANCH   4  15
HETATM   15  C1  UNK     1      19.035   1.886  29.595  1.00  0.00     0.035 C 
HETATM   16  C8  UNK     1      19.477   0.546  30.237  1.00  0.00     0.016 C 
HETATM   17  C9  UNK     1      17.889   1.610  28.590  1.00  0.00     0.016 C 
ENDBRANCH   4  15
TORSDOF 1
ENDMDL
MODEL 2
REMARK VINA RESULT:      -7.7      5.009      6.277
REMARK  1 active torsions:
REMARK  status: ('A' for Active; 'I' for Inactive)
REMARK    1  A    between atoms: C1_4  and  C2_5 
ROOT
HETATM    1  O1  UNK     1      18.775   1.352  31.555  1.00  0.00    -0.314 OA
HETATM    2  O2  UNK     1      17.803   1.418  36.294  1.00  0.00    -0.275 OA
HETATM    3  O3  UNK     1      17.365   1.344  38.541  1.00  0.00    -0.260 OA
HETATM    4  C2  UNK     1      19.171   0.348  30.731  1.00  0.00     0.058 A 
HETATM    5  C3  UNK     1      18.962  -0.540  32.775  1.00  0.00     0.001 A 
HETATM    6  C4  UNK     1      18.647   0.815  32.801  1.00  0.00     0.088 A 
HETATM    7  C5  UNK     1      19.300  -0.832  31.427  1.00  0.00     0.047 A 
HETATM    8  C6  UNK     1      18.888  -1.277  33.974  1.00  0.00     0.028 A 
HETATM    9  C7  UNK     1      18.499  -0.617  35.150  1.00  0.00    -0.001 A 
HETATM   10  C10 UNK     1      18.258   1.508  33.945  1.00  0.00     0.076 A 
HETATM   11  C11 UNK     1      18.196   0.744  35.114  1.00  0.00     0.092 A 
HETATM   12  C12 UNK     1      18.403  -1.322  36.419  1.00  0.00     0.020 A 
HETATM   13  C13 UNK     1      18.030  -0.675  37.526  1.00  0.00     0.083 A 
HETATM   14  C14 UNK     1      17.704   0.762  37.516  1.00  0.00     0.288 A 
ENDROOT
BRANCH   4  15
HETATM   15  C1  UNK     1      19.373   0.707  29.320  1.00  0.00     0.035 C 
HETATM   16  C8  UNK     1      19.714  -0.506  28.418  1.00  0.00     0.016 C 
HETATM   17  C9  UNK     1      18.178   1.475  28.702  1.00  0.00     0.016 C 
ENDBRANCH   4  15
TORSDOF 1
ENDMDL
MODEL 3
REMARK VINA RESULT:      -7.6      4.710      6.285
REMARK  1 active torsions:
REMARK  status: ('A' for Active; 'I' for Inactive)
REMARK    1  A    between atoms: C1_4  and  C2_5 
ROOT
HETATM    1  O1  UNK     1      18.898   0.274  31.437  1.00  0.00    -0.314 OA
HETATM    2  O2  UNK     1      18.291  -0.990  36.067  1.00  0.00    -0.275 OA
HETATM    3  O3  UNK     1      17.984  -1.486  38.282  1.00  0.00    -0.260 OA
HETATM    4  C2  UNK     1      18.811   1.477  30.813  1.00  0.00     0.058 A 
HETATM    5  C3  UNK     1      18.370   1.839  32.978  1.00  0.00     0.001 A 
HETATM    6  C4  UNK     1      18.630   0.491  32.756  1.00  0.00     0.088 A 
HETATM    7  C5  UNK     1      18.490   2.469  31.710  1.00  0.00     0.047 A 
HETATM    8  C6  UNK     1      18.071   2.266  34.287  1.00  0.00     0.028 A 
HETATM    9  C7  UNK     1      18.045   1.315  35.319  1.00  0.00    -0.001 A 
HETATM   10  C10 UNK     1      18.614  -0.485  33.749  1.00  0.00     0.076 A 
HETATM   11  C11 UNK     1      18.314  -0.024  35.035  1.00  0.00     0.092 A 
HETATM   12  C12 UNK     1      17.744   1.692  36.691  1.00  0.00     0.020 A 
HETATM   13  C13 UNK     1      17.726   0.771  37.658  1.00  0.00     0.083 A 
HETATM   14  C14 UNK     1      18.005  -0.650  37.385  1.00  0.00     0.288 A 
ENDROOT
BRANCH   4  15
HETATM   15  C1  UNK     1      19.065   1.478  29.366  1.00  0.00     0.035 C 
HETATM   16  C8  UNK     1      19.622   0.132  28.837  1.00  0.00     0.016 C 
HETATM   17  C9  UNK     1      17.827   1.877  28.523  1.00  0.00     0.016 C 
ENDBRANCH   4  15
TORSDOF 1
ENDMDL
MODEL 4
REMARK VINA RESULT:      -7.5      6.026      8.311
REMARK  1 active torsions:
REMARK  status: ('A' for Active; 'I' for Inactive)
REMARK    1  A    between atoms: C1_4  and  C2_5 
ROOT
HETATM    1  O1  UNK     1      19.195  -1.198  34.780  1.00  0.00    -0.314 OA
HETATM    2  O2  UNK     1      18.643   0.791  30.404  1.00  0.00    -0.275 OA
HETATM    3  O3  UNK     1      18.446   1.658  28.293  1.00  0.00    -0.260 OA
HETATM    4  C2  UNK     1      19.909  -2.276  35.195  1.00  0.00     0.058 A 
HETATM    5  C3  UNK     1      20.240  -2.095  32.988  1.00  0.00     0.001 A 
HETATM    6  C4  UNK     1      19.394  -1.084  33.436  1.00  0.00     0.088 A 
HETATM    7  C5  UNK     1      20.568  -2.861  34.138  1.00  0.00     0.047 A 
HETATM    8  C6  UNK     1      20.569  -2.147  31.619  1.00  0.00     0.028 A 
HETATM    9  C7  UNK     1      20.032  -1.178  30.757  1.00  0.00    -0.001 A 
HETATM   10  C10 UNK     1      18.840  -0.105  32.615  1.00  0.00     0.076 A 
HETATM   11  C11 UNK     1      19.189  -0.189  31.264  1.00  0.00     0.092 A 
HETATM   12  C12 UNK     1      20.335  -1.177  29.334  1.00  0.00     0.020 A 
HETATM   13  C13 UNK     1      19.813  -0.246  28.532  1.00  0.00     0.083 A 
HETATM   14  C14 UNK     1      18.920   0.809  29.041  1.00  0.00     0.288 A 
ENDROOT
BRANCH   4  15
HETATM   15  C1  UNK     1      19.838  -2.589  36.629  1.00  0.00     0.035 C 
HETATM   16  C8  UNK     1      18.615  -1.953  37.338  1.00  0.00     0.016 C 
HETATM   17  C9  UNK     1      19.862  -4.108  36.930  1.00  0.00     0.016 C 
ENDBRANCH   4  15
TORSDOF 1
ENDMDL
MODEL 5
REMARK VINA RESULT:      -7.4     10.837     14.009
REMARK  1 active torsions:
REMARK  status: ('A' for Active; 'I' for Inactive)
REMARK    1  A    between atoms: C1_4  and  C2_5 
ROOT
HETATM    1  O1  UNK     1      20.044  -4.659  35.412  1.00  0.00    -0.314 OA
HETATM    2  O2  UNK     1      19.625  -9.267  36.825  1.00  0.00    -0.275 OA
HETATM    3  O3  UNK     1      19.444 -11.417  37.595  1.00  0.00    -0.260 OA
HETATM    4  C2  UNK     1      20.280  -3.520  36.114  1.00  0.00     0.058 A 
HETATM    5  C3  UNK     1      20.249  -5.196  37.597  1.00  0.00     0.001 A 
HETATM    6  C4  UNK     1      20.024  -5.682  36.313  1.00  0.00     0.088 A 
HETATM    7  C5  UNK     1      20.414  -3.793  37.455  1.00  0.00     0.047 A 
HETATM    8  C6  UNK     1      20.268  -6.106  38.673  1.00  0.00     0.028 A 
HETATM    9  C7  UNK     1      20.058  -7.469  38.410  1.00  0.00    -0.001 A 
HETATM   10  C10 UNK     1      19.811  -7.024  36.009  1.00  0.00     0.076 A 
HETATM   11  C11 UNK     1      19.837  -7.897  37.101  1.00  0.00     0.092 A 
HETATM   12  C12 UNK     1      20.067  -8.458  39.477  1.00  0.00     0.020 A 
HETATM   13  C13 UNK     1      19.866  -9.749  39.205  1.00  0.00     0.083 A 
HETATM   14  C14 UNK     1      19.629 -10.228  37.831  1.00  0.00     0.288 A 
ENDROOT
BRANCH   4  15
HETATM   15  C1  UNK     1      20.342  -2.278  35.332  1.00  0.00     0.035 C 
HETATM   16  C8  UNK     1      20.378  -2.515  33.800  1.00  0.00     0.016 C 
HETATM   17  C9  UNK     1      19.200  -1.284  35.662  1.00  0.00     0.016 C 
ENDBRANCH   4  15
TORSDOF 1
ENDMDL
MODEL 6
REMARK VINA RESULT:      -7.3      5.439      8.226
REMARK  1 active torsions:
REMARK  status: ('A' for Active; 'I' for Inactive)
REMARK    1  A    between atoms: C1_4  and  C2_5 
ROOT
HETATM    1  O1  UNK     1      17.745   1.307  34.455  1.00  0.00    -0.314 OA
HETATM    2  O2  UNK     1      19.659   0.147  30.166  1.00  0.00    -0.275 OA
HETATM    3  O3  UNK     1      20.590  -0.498  28.174  1.00  0.00    -0.260 OA
HETATM    4  C2  UNK     1      17.628   0.601  35.609  1.00  0.00     0.058 A 
HETATM    5  C3  UNK     1      18.651  -0.738  34.135  1.00  0.00     0.001 A 
HETATM    6  C4  UNK     1      18.368   0.494  33.555  1.00  0.00     0.088 A 
HETATM    7  C5  UNK     1      18.167  -0.657  35.468  1.00  0.00     0.047 A 
HETATM    8  C6  UNK     1      19.300  -1.720  33.360  1.00  0.00     0.028 A 
HETATM    9  C7  UNK     1      19.635  -1.419  32.031  1.00  0.00    -0.001 A 
HETATM   10  C10 UNK     1      18.682   0.833  32.241  1.00  0.00     0.076 A 
HETATM   11  C11 UNK     1      19.325  -0.166  31.503  1.00  0.00     0.092 A 
HETATM   12  C12 UNK     1      20.306  -2.390  31.180  1.00  0.00     0.020 A 
HETATM   13  C13 UNK     1      20.617  -2.083  29.918  1.00  0.00     0.083 A 
HETATM   14  C14 UNK     1      20.300  -0.767  29.335  1.00  0.00     0.288 A 
ENDROOT
BRANCH   4  15
HETATM   15  C1  UNK     1      16.976   1.292  36.730  1.00  0.00     0.035 C 
HETATM   16  C8  UNK     1      15.459   0.993  36.840  1.00  0.00     0.016 C 
HETATM   17  C9  UNK     1      17.646   1.014  38.099  1.00  0.00     0.016 C 
ENDBRANCH   4  15
TORSDOF 1
ENDMDL
MODEL 7
REMARK VINA RESULT:      -7.3      5.326      7.735
REMARK  1 active torsions:
REMARK  status: ('A' for Active; 'I' for Inactive)
REMARK    1  A    between atoms: C1_4  and  C2_5 
ROOT
HETATM    1  O1  UNK     1      18.249  -0.765  35.161  1.00  0.00    -0.314 OA
HETATM    2  O2  UNK     1      19.643  -0.841  30.528  1.00  0.00    -0.275 OA
HETATM    3  O3  UNK     1      20.277  -0.773  28.328  1.00  0.00    -0.260 OA
HETATM    4  C2  UNK     1      17.756   0.235  35.936  1.00  0.00     0.058 A 
HETATM    5  C3  UNK     1      18.127   1.113  33.911  1.00  0.00     0.001 A 
HETATM    6  C4  UNK     1      18.477  -0.233  33.926  1.00  0.00     0.088 A 
HETATM    7  C5  UNK     1      17.661   1.406  35.220  1.00  0.00     0.047 A 
HETATM    8  C6  UNK     1      18.289   1.842  32.716  1.00  0.00     0.028 A 
HETATM    9  C7  UNK     1      18.797   1.184  31.586  1.00  0.00    -0.001 A 
HETATM   10  C10 UNK     1      18.984  -0.924  32.829  1.00  0.00     0.076 A 
HETATM   11  C11 UNK     1      19.131  -0.168  31.662  1.00  0.00     0.092 A 
HETATM   12  C12 UNK     1      18.986   1.881  30.323  1.00  0.00     0.020 A 
HETATM   13  C13 UNK     1      19.471   1.236  29.259  1.00  0.00     0.083 A 
HETATM   14  C14 UNK     1      19.832  -0.192  29.312  1.00  0.00     0.288 A 
ENDROOT
BRANCH   4  15
HETATM   15  C1  UNK     1      17.437  -0.119  37.326  1.00  0.00     0.035 C 
HETATM   16  C8  UNK     1      18.196  -1.372  37.832  1.00  0.00     0.016 C 
HETATM   17  C9  UNK     1      17.660   1.044  38.325  1.00  0.00     0.016 C 
ENDBRANCH   4  15
TORSDOF 1
ENDMDL
MODEL 8
REMARK VINA RESULT:      -7.3      2.560      7.330
REMARK  1 active torsions:
REMARK  status: ('A' for Active; 'I' for Inactive)
REMARK    1  A    between atoms: C1_4  and  C2_5 
ROOT
HETATM    1  O1  UNK     1      17.939   3.601  32.749  1.00  0.00    -0.314 OA
HETATM    2  O2  UNK     1      19.649  -0.809  31.734  1.00  0.00    -0.275 OA
HETATM    3  O3  UNK     1      20.472  -2.866  31.152  1.00  0.00    -0.260 OA
HETATM    4  C2  UNK     1      17.755   4.697  31.968  1.00  0.00     0.058 A 
HETATM    5  C3  UNK     1      18.599   3.099  30.647  1.00  0.00     0.001 A 
HETATM    6  C4  UNK     1      18.453   2.625  31.947  1.00  0.00     0.088 A 
HETATM    7  C5  UNK     1      18.142   4.444  30.672  1.00  0.00     0.047 A 
HETATM    8  C6  UNK     1      19.116   2.232  29.664  1.00  0.00     0.028 A 
HETATM    9  C7  UNK     1      19.468   0.924  30.033  1.00  0.00    -0.001 A 
HETATM   10  C10 UNK     1      18.789   1.337  32.355  1.00  0.00     0.076 A 
HETATM   11  C11 UNK     1      19.299   0.507  31.353  1.00  0.00     0.092 A 
HETATM   12  C12 UNK     1      20.006  -0.018  29.064  1.00  0.00     0.020 A 
HETATM   13  C13 UNK     1      20.333  -1.258  29.436  1.00  0.00     0.083 A 
HETATM   14  C14 UNK     1      20.166  -1.725  30.824  1.00  0.00     0.288 A 
ENDROOT
BRANCH   4  15
HETATM   15  C1  UNK     1      17.203   5.884  32.635  1.00  0.00     0.035 C 
HETATM   16  C8  UNK     1      17.960   6.271  33.931  1.00  0.00     0.016 C 
HETATM   17  C9  UNK     1      17.116   7.126  31.712  1.00  0.00     0.016 C 
ENDBRANCH   4  15
TORSDOF 1
ENDMDL
MODEL 9
REMARK VINA RESULT:      -7.2      1.665      3.000
REMARK  1 active torsions:
REMARK  status: ('A' for Active; 'I' for Inactive)
REMARK    1  A    between atoms: C1_4  and  C2_5 
ROOT
HETATM    1  O1  UNK     1      18.838   1.077  31.751  1.00  0.00    -0.314 OA
HETATM    2  O2  UNK     1      17.664   5.277  33.846  1.00  0.00    -0.275 OA
HETATM    3  O3  UNK     1      17.125   7.314  34.745  1.00  0.00    -0.260 OA
HETATM    4  C2  UNK     1      19.212   0.779  30.480  1.00  0.00     0.058 A 
HETATM    5  C3  UNK     1      18.861   2.989  30.547  1.00  0.00     0.001 A 
HETATM    6  C4  UNK     1      18.623   2.423  31.796  1.00  0.00     0.088 A 
HETATM    7  C5  UNK     1      19.243   1.912  29.702  1.00  0.00     0.047 A 
HETATM    8  C6  UNK     1      18.694   4.379  30.389  1.00  0.00     0.028 A 
HETATM    9  C7  UNK     1      18.292   5.141  31.497  1.00  0.00    -0.001 A 
HETATM   10  C10 UNK     1      18.223   3.142  32.919  1.00  0.00     0.076 A 
HETATM   11  C11 UNK     1      18.068   4.518  32.724  1.00  0.00     0.092 A 
HETATM   12  C12 UNK     1      18.103   6.580  31.399  1.00  0.00     0.020 A 
HETATM   13  C13 UNK     1      17.721   7.287  32.466  1.00  0.00     0.083 A 
HETATM   14  C14 UNK     1      17.477   6.653  33.773  1.00  0.00     0.288 A 
ENDROOT
BRANCH   4  15
HETATM   15  C1  UNK     1      19.497  -0.636  30.203  1.00  0.00     0.035 C 
HETATM   16  C8  UNK     1      20.614  -0.844  29.149  1.00  0.00     0.016 C 
HETATM   17  C9  UNK     1      19.841  -1.455  31.472  1.00  0.00     0.016 C 
ENDBRANCH   4  15
TORSDOF 1
ENDMDL
MODEL 10
REMARK VINA RESULT:      -7.2     21.833     24.643
REMARK  1 active torsions:
REMARK  status: ('A' for Active; 'I' for Inactive)
REMARK    1  A    between atoms: C1_4  and  C2_5 
ROOT
HETATM    1  O1  UNK     1      13.736   7.267  10.418  1.00  0.00    -0.314 OA
HETATM    2  O2  UNK     1       9.375   7.064   8.333  1.00  0.00    -0.275 OA
HETATM    3  O3  UNK     1       7.357   6.930   7.258  1.00  0.00    -0.260 OA
HETATM    4  C2  UNK     1      14.970   6.934   9.959  1.00  0.00     0.058 A 
HETATM    5  C3  UNK     1      13.528   6.505   8.301  1.00  0.00     0.001 A 
HETATM    6  C4  UNK     1      12.855   7.007   9.411  1.00  0.00     0.088 A 
HETATM    7  C5  UNK     1      14.899   6.463   8.668  1.00  0.00     0.047 A 
HETATM    8  C6  UNK     1      12.786   6.176   7.150  1.00  0.00     0.028 A 
HETATM    9  C7  UNK     1      11.395   6.364   7.165  1.00  0.00    -0.001 A 
HETATM   10  C10 UNK     1      11.478   7.209   9.468  1.00  0.00     0.076 A 
HETATM   11  C11 UNK     1      10.776   6.870   8.308  1.00  0.00     0.092 A 
HETATM   12  C12 UNK     1      10.573   6.044   6.008  1.00  0.00     0.020 A 
HETATM   13  C13 UNK     1       9.251   6.231   6.044  1.00  0.00     0.083 A 
HETATM   14  C14 UNK     1       8.572   6.764   7.238  1.00  0.00     0.288 A 
ENDROOT
BRANCH   4  15
HETATM   15  C1  UNK     1      16.086   7.135  10.893  1.00  0.00     0.035 C 
HETATM   16  C8  UNK     1      17.425   7.475  10.189  1.00  0.00     0.016 C 
HETATM   17  C9  UNK     1      15.799   8.206  11.975  1.00  0.00     0.016 C 
ENDBRANCH   4  15
TORSDOF 1
ENDMDL
