MODEL 1
REMARK VINA RESULT:      -9.6      0.000      0.000
REMARK  2 active torsions:
REMARK  status: ('A' for Active; 'I' for Inactive)
REMARK       I    between atoms: C11_17  and  N1_6 
REMARK    1  A    between atoms: C2_8  and  N1_6 
REMARK    2  A    between atoms: C11_17  and  C6_12 
ROOT
HETATM    1  O4  UNK     1      17.610   3.382  32.890  1.00  0.00    -0.267 OA
HETATM    2  N1  UNK     1      18.941   4.833  31.598  1.00  0.00    -0.323 N 
HETATM    3  C11 UNK     1      18.360   3.621  31.945  1.00  0.00     0.262 C 
HETATM    4  H5  UNK     1      19.526   4.868  30.766  1.00  0.00     0.169 HD
ENDROOT
BRANCH   3   5
HETATM    5  C6  UNK     1      18.735   2.543  31.021  1.00  0.00     0.108 A 
HETATM    6  C13 UNK     1      18.671   2.710  29.552  1.00  0.00     0.304 A 
HETATM    7  O3  UNK     1      19.054   1.616  28.782  1.00  0.00    -0.274 OA
HETATM    8  O5  UNK     1      18.303   3.758  29.034  1.00  0.00    -0.259 OA
HETATM    9  C8  UNK     1      19.479   0.407  29.367  1.00  0.00     0.089 A 
HETATM   10  C15 UNK     1      19.842  -0.633  28.513  1.00  0.00     0.038 A 
HETATM   11  C5  UNK     1      19.531   0.271  30.750  1.00  0.00    -0.001 A 
HETATM   12  C17 UNK     1      20.267  -1.841  29.063  1.00  0.00     0.003 A 
HETATM   13  C16 UNK     1      20.324  -1.996  30.449  1.00  0.00     0.001 A 
HETATM   14  C14 UNK     1      19.958  -0.943  31.293  1.00  0.00     0.014 A 
HETATM   15  C9  UNK     1      19.139   1.398  31.583  1.00  0.00     0.037 A 
ENDBRANCH   3   5
BRANCH   2  16
HETATM   16  C2  UNK     1      18.802   6.078  32.258  1.00  0.00     0.037 A 
HETATM   17  C4  UNK     1      17.641   6.814  32.066  1.00  0.00     0.069 A 
HETATM   18  C1  UNK     1      17.551   8.021  32.729  1.00  0.00     0.107 A 
HETATM   19  O1  UNK     1      16.502   8.886  32.671  1.00  0.00    -0.323 OA
HETATM   20  C3  UNK     1      18.560   8.476  33.545  1.00  0.00     0.105 A 
HETATM   21  C12 UNK     1      16.965   9.938  33.543  1.00  0.00     0.352 A 
HETATM   22  O2  UNK     1      18.270   9.685  34.100  1.00  0.00    -0.323 OA
HETATM   23  C10 UNK     1      19.717   7.751  33.742  1.00  0.00     0.042 A 
HETATM   24  C7  UNK     1      19.836   6.526  33.081  1.00  0.00     0.032 A 
ENDBRANCH   2  16
TORSDOF 2
ENDMDL
MODEL 2
REMARK VINA RESULT:      -9.5      8.070     10.132
REMARK  2 active torsions:
REMARK  status: ('A' for Active; 'I' for Inactive)
REMARK       I    between atoms: C11_17  and  N1_6 
REMARK    1  A    between atoms: C2_8  and  N1_6 
REMARK    2  A    between atoms: C11_17  and  C6_12 
ROOT
HETATM    1  O4  UNK     1      21.263  -3.571  36.977  1.00  0.00    -0.267 OA
HETATM    2  N1  UNK     1      18.928  -3.520  36.674  1.00  0.00    -0.323 N 
HETATM    3  C11 UNK     1      20.170  -4.118  36.836  1.00  0.00     0.262 C 
HETATM    4  H5  UNK     1      18.110  -4.120  36.591  1.00  0.00     0.169 HD
ENDROOT
BRANCH   3   5
HETATM    5  C6  UNK     1      20.085  -5.583  36.829  1.00  0.00     0.108 A 
HETATM    6  C13 UNK     1      20.102  -6.364  35.572  1.00  0.00     0.304 A 
HETATM    7  O3  UNK     1      20.016  -7.748  35.695  1.00  0.00    -0.274 OA
HETATM    8  O5  UNK     1      20.189  -5.825  34.474  1.00  0.00    -0.259 OA
HETATM    9  C8  UNK     1      19.916  -8.378  36.951  1.00  0.00     0.089 A 
HETATM   10  C15 UNK     1      19.835  -9.769  36.973  1.00  0.00     0.038 A 
HETATM   11  C5  UNK     1      19.902  -7.625  38.120  1.00  0.00    -0.001 A 
HETATM   12  C17 UNK     1      19.735 -10.420  38.201  1.00  0.00     0.003 A 
HETATM   13  C16 UNK     1      19.718  -9.681  39.384  1.00  0.00     0.001 A 
HETATM   14  C14 UNK     1      19.801  -8.286  39.347  1.00  0.00     0.014 A 
HETATM   15  C9  UNK     1      19.991  -6.176  38.025  1.00  0.00     0.037 A 
ENDBRANCH   3   5
BRANCH   2  16
HETATM   16  C2  UNK     1      18.634  -2.136  36.634  1.00  0.00     0.037 A 
HETATM   17  C4  UNK     1      18.951  -1.413  35.493  1.00  0.00     0.069 A 
HETATM   18  C1  UNK     1      18.645  -0.068  35.500  1.00  0.00     0.107 A 
HETATM   19  O1  UNK     1      18.876   0.809  34.486  1.00  0.00    -0.323 OA
HETATM   20  C3  UNK     1      18.051   0.534  36.586  1.00  0.00     0.105 A 
HETATM   21  C12 UNK     1      18.361   2.031  35.055  1.00  0.00     0.352 A 
HETATM   22  O2  UNK     1      17.837   1.863  36.387  1.00  0.00    -0.323 OA
HETATM   23  C10 UNK     1      17.731  -0.176  37.725  1.00  0.00     0.042 A 
HETATM   24  C7  UNK     1      18.032  -1.540  37.744  1.00  0.00     0.032 A 
ENDBRANCH   2  16
TORSDOF 2
ENDMDL
MODEL 3
REMARK VINA RESULT:      -9.4      8.106     12.625
REMARK  2 active torsions:
REMARK  status: ('A' for Active; 'I' for Inactive)
REMARK       I    between atoms: C11_17  and  N1_6 
REMARK    1  A    between atoms: C2_8  and  N1_6 
REMARK    2  A    between atoms: C11_17  and  C6_12 
ROOT
HETATM    1  O4  UNK     1      21.270  -4.379  37.230  1.00  0.00    -0.267 OA
HETATM    2  N1  UNK     1      19.496  -5.338  36.014  1.00  0.00    -0.323 N 
HETATM    3  C11 UNK     1      20.268  -4.302  36.522  1.00  0.00     0.262 C 
HETATM    4  H5  UNK     1      18.702  -5.104  35.422  1.00  0.00     0.169 HD
ENDROOT
BRANCH   3   5
HETATM    5  C6  UNK     1      19.759  -2.984  36.121  1.00  0.00     0.108 A 
HETATM    6  C13 UNK     1      20.009  -2.423  34.775  1.00  0.00     0.304 A 
HETATM    7  O3  UNK     1      19.473  -1.165  34.513  1.00  0.00    -0.274 OA
HETATM    8  O5  UNK     1      20.654  -3.031  33.928  1.00  0.00    -0.259 OA
HETATM    9  C8  UNK     1      18.731  -0.458  35.479  1.00  0.00     0.089 A 
HETATM   10  C15 UNK     1      18.235   0.796  35.124  1.00  0.00     0.038 A 
HETATM   11  C5  UNK     1      18.507  -1.004  36.738  1.00  0.00    -0.001 A 
HETATM   12  C17 UNK     1      17.497   1.519  36.058  1.00  0.00     0.003 A 
HETATM   13  C16 UNK     1      17.263   0.987  37.328  1.00  0.00     0.001 A 
HETATM   14  C14 UNK     1      17.766  -0.272  37.669  1.00  0.00     0.014 A 
HETATM   15  C9  UNK     1      19.053  -2.318  37.042  1.00  0.00     0.037 A 
ENDBRANCH   3   5
BRANCH   2  16
HETATM   16  C2  UNK     1      19.690  -6.729  36.195  1.00  0.00     0.037 A 
HETATM   17  C4  UNK     1      20.644  -7.380  35.426  1.00  0.00     0.069 A 
HETATM   18  C1  UNK     1      20.797  -8.735  35.637  1.00  0.00     0.107 A 
HETATM   19  O1  UNK     1      21.672  -9.550  34.987  1.00  0.00    -0.323 OA
HETATM   20  C3  UNK     1      20.043  -9.413  36.567  1.00  0.00     0.105 A 
HETATM   21  C12 UNK     1      21.384 -10.817  35.613  1.00  0.00     0.352 A 
HETATM   22  O2  UNK     1      20.352 -10.738  36.616  1.00  0.00    -0.323 OA
HETATM   23  C10 UNK     1      19.093  -8.774  37.337  1.00  0.00     0.042 A 
HETATM   24  C7  UNK     1      18.917  -7.402  37.142  1.00  0.00     0.032 A 
ENDBRANCH   2  16
TORSDOF 2
ENDMDL
MODEL 4
REMARK VINA RESULT:      -9.4     13.306     16.407
REMARK  2 active torsions:
REMARK  status: ('A' for Active; 'I' for Inactive)
REMARK       I    between atoms: C11_17  and  N1_6 
REMARK    1  A    between atoms: C2_8  and  N1_6 
REMARK    2  A    between atoms: C11_17  and  C6_12 
ROOT
HETATM    1  O4  UNK     1      16.887  -1.890  16.891  1.00  0.00    -0.267 OA
HETATM    2  N1  UNK     1      19.034  -0.984  16.545  1.00  0.00    -0.323 N 
HETATM    3  C11 UNK     1      17.964  -1.833  16.298  1.00  0.00     0.262 C 
HETATM    4  H5  UNK     1      19.853  -1.051  15.945  1.00  0.00     0.169 HD
ENDROOT
BRANCH   3   5
HETATM    5  C6  UNK     1      18.227  -2.745  15.178  1.00  0.00     0.108 A 
HETATM    6  C13 UNK     1      18.761  -2.265  13.884  1.00  0.00     0.304 A 
HETATM    7  O3  UNK     1      18.970  -3.226  12.899  1.00  0.00    -0.274 OA
HETATM    8  O5  UNK     1      19.009  -1.081  13.684  1.00  0.00    -0.259 OA
HETATM    9  C8  UNK     1      18.688  -4.588  13.118  1.00  0.00     0.089 A 
HETATM   10  C15 UNK     1      18.930  -5.476  12.072  1.00  0.00     0.038 A 
HETATM   11  C5  UNK     1      18.187  -5.018  14.343  1.00  0.00    -0.001 A 
HETATM   12  C17 UNK     1      18.661  -6.830  12.259  1.00  0.00     0.003 A 
HETATM   13  C16 UNK     1      18.156  -7.280  13.480  1.00  0.00     0.001 A 
HETATM   14  C14 UNK     1      17.920  -6.378  14.521  1.00  0.00     0.014 A 
HETATM   15  C9  UNK     1      17.958  -4.038  15.393  1.00  0.00     0.037 A 
ENDBRANCH   3   5
BRANCH   2  16
HETATM   16  C2  UNK     1      19.130   0.018  17.541  1.00  0.00     0.037 A 
HETATM   17  C4  UNK     1      19.353  -0.361  18.857  1.00  0.00     0.069 A 
HETATM   18  C1  UNK     1      19.440   0.651  19.792  1.00  0.00     0.107 A 
HETATM   19  O1  UNK     1      19.651   0.488  21.126  1.00  0.00    -0.323 OA
HETATM   20  C3  UNK     1      19.313   1.975  19.440  1.00  0.00     0.105 A 
HETATM   21  C12 UNK     1      19.644   1.859  21.575  1.00  0.00     0.352 A 
HETATM   22  O2  UNK     1      19.430   2.807  20.511  1.00  0.00    -0.323 OA
HETATM   23  C10 UNK     1      19.092   2.361  18.134  1.00  0.00     0.042 A 
HETATM   24  C7  UNK     1      18.998   1.357  17.168  1.00  0.00     0.032 A 
ENDBRANCH   2  16
TORSDOF 2
ENDMDL
MODEL 5
REMARK VINA RESULT:      -9.4      1.853      8.440
REMARK  2 active torsions:
REMARK  status: ('A' for Active; 'I' for Inactive)
REMARK       I    between atoms: C11_17  and  N1_6 
REMARK    1  A    between atoms: C2_8  and  N1_6 
REMARK    2  A    between atoms: C11_17  and  C6_12 
ROOT
HETATM    1  O4  UNK     1      19.526   5.213  30.573  1.00  0.00    -0.267 OA
HETATM    2  N1  UNK     1      18.042   3.499  31.212  1.00  0.00    -0.323 N 
HETATM    3  C11 UNK     1      18.583   4.777  31.233  1.00  0.00     0.262 C 
HETATM    4  H5  UNK     1      17.242   3.303  31.809  1.00  0.00     0.169 HD
ENDROOT
BRANCH   3   5
HETATM    5  C6  UNK     1      17.891   5.656  32.184  1.00  0.00     0.108 A 
HETATM    6  C13 UNK     1      17.970   5.447  33.646  1.00  0.00     0.304 A 
HETATM    7  O3  UNK     1      17.271   6.349  34.445  1.00  0.00    -0.274 OA
HETATM    8  O5  UNK     1      18.618   4.529  34.136  1.00  0.00    -0.259 OA
HETATM    9  C8  UNK     1      16.524   7.407  33.892  1.00  0.00     0.089 A 
HETATM   10  C15 UNK     1      15.858   8.258  34.772  1.00  0.00     0.038 A 
HETATM   11  C5  UNK     1      16.463   7.585  32.514  1.00  0.00    -0.001 A 
HETATM   12  C17 UNK     1      15.110   9.314  34.254  1.00  0.00     0.003 A 
HETATM   13  C16 UNK     1      15.037   9.507  32.874  1.00  0.00     0.001 A 
HETATM   14  C14 UNK     1      15.711   8.646  32.004  1.00  0.00     0.014 A 
HETATM   15  C9  UNK     1      17.184   6.660  31.652  1.00  0.00     0.037 A 
ENDBRANCH   3   5
BRANCH   2  16
HETATM   16  C2  UNK     1      18.453   2.400  30.420  1.00  0.00     0.037 A 
HETATM   17  C4  UNK     1      19.359   1.492  30.949  1.00  0.00     0.069 A 
HETATM   18  C1  UNK     1      19.729   0.436  30.141  1.00  0.00     0.107 A 
HETATM   19  O1  UNK     1      20.602  -0.554  30.471  1.00  0.00    -0.323 OA
HETATM   20  C3  UNK     1      19.225   0.286  28.869  1.00  0.00     0.105 A 
HETATM   21  C12 UNK     1      20.591  -1.345  29.265  1.00  0.00     0.352 A 
HETATM   22  O2  UNK     1      19.720  -0.818  28.245  1.00  0.00    -0.323 OA
HETATM   23  C10 UNK     1      18.323   1.183  28.335  1.00  0.00     0.042 A 
HETATM   24  C7  UNK     1      17.932   2.262  29.132  1.00  0.00     0.032 A 
ENDBRANCH   2  16
TORSDOF 2
ENDMDL
MODEL 6
REMARK VINA RESULT:      -9.4      1.220      2.447
REMARK  2 active torsions:
REMARK  status: ('A' for Active; 'I' for Inactive)
REMARK       I    between atoms: C11_17  and  N1_6 
REMARK    1  A    between atoms: C2_8  and  N1_6 
REMARK    2  A    between atoms: C11_17  and  C6_12 
ROOT
HETATM    1  O4  UNK     1      18.508   4.579  30.123  1.00  0.00    -0.267 OA
HETATM    2  N1  UNK     1      17.915   4.613  32.402  1.00  0.00    -0.323 N 
HETATM    3  C11 UNK     1      18.357   4.039  31.218  1.00  0.00     0.262 C 
HETATM    4  H5  UNK     1      17.865   4.028  33.234  1.00  0.00     0.169 HD
ENDROOT
BRANCH   3   5
HETATM    5  C6  UNK     1      18.661   2.611  31.375  1.00  0.00     0.108 A 
HETATM    6  C13 UNK     1      18.379   1.881  32.630  1.00  0.00     0.304 A 
HETATM    7  O3  UNK     1      18.711   0.529  32.656  1.00  0.00    -0.274 OA
HETATM    8  O5  UNK     1      17.876   2.433  33.603  1.00  0.00    -0.259 OA
HETATM    9  C8  UNK     1      19.288  -0.115  31.544  1.00  0.00     0.089 A 
HETATM   10  C15 UNK     1      19.586  -1.471  31.665  1.00  0.00     0.038 A 
HETATM   11  C5  UNK     1      19.545   0.590  30.373  1.00  0.00    -0.001 A 
HETATM   12  C17 UNK     1      20.158  -2.136  30.582  1.00  0.00     0.003 A 
HETATM   13  C16 UNK     1      20.425  -1.444  29.399  1.00  0.00     0.001 A 
HETATM   14  C14 UNK     1      20.120  -0.084  29.292  1.00  0.00     0.014 A 
HETATM   15  C9  UNK     1      19.209   2.004  30.315  1.00  0.00     0.037 A 
ENDBRANCH   3   5
BRANCH   2  16
HETATM   16  C2  UNK     1      17.536   5.959  32.621  1.00  0.00     0.037 A 
HETATM   17  C4  UNK     1      18.444   6.826  33.211  1.00  0.00     0.069 A 
HETATM   18  C1  UNK     1      18.030   8.128  33.404  1.00  0.00     0.107 A 
HETATM   19  O1  UNK     1      18.767   9.125  33.964  1.00  0.00    -0.323 OA
HETATM   20  C3  UNK     1      16.776   8.552  33.029  1.00  0.00     0.105 A 
HETATM   21  C12 UNK     1      17.836  10.225  33.900  1.00  0.00     0.352 A 
HETATM   22  O2  UNK     1      16.571   9.868  33.308  1.00  0.00    -0.323 OA
HETATM   23  C10 UNK     1      15.866   7.698  32.441  1.00  0.00     0.042 A 
HETATM   24  C7  UNK     1      16.259   6.373  32.235  1.00  0.00     0.032 A 
ENDBRANCH   2  16
TORSDOF 2
ENDMDL
MODEL 7
REMARK VINA RESULT:      -9.1      1.485      8.190
REMARK  2 active torsions:
REMARK  status: ('A' for Active; 'I' for Inactive)
REMARK       I    between atoms: C11_17  and  N1_6 
REMARK    1  A    between atoms: C2_8  and  N1_6 
REMARK    2  A    between atoms: C11_17  and  C6_12 
ROOT
HETATM    1  O4  UNK     1      17.930   3.256  33.055  1.00  0.00    -0.267 OA
HETATM    2  N1  UNK     1      18.529   3.963  30.890  1.00  0.00    -0.323 N 
HETATM    3  C11 UNK     1      18.167   4.127  32.219  1.00  0.00     0.262 C 
HETATM    4  H5  UNK     1      18.713   4.794  30.332  1.00  0.00     0.169 HD
ENDROOT
BRANCH   3   5
HETATM    5  C6  UNK     1      18.077   5.543  32.598  1.00  0.00     0.108 A 
HETATM    6  C13 UNK     1      16.836   6.328  32.414  1.00  0.00     0.304 A 
HETATM    7  O3  UNK     1      16.874   7.661  32.813  1.00  0.00    -0.274 OA
HETATM    8  O5  UNK     1      15.821   5.833  31.937  1.00  0.00    -0.259 OA
HETATM    9  C8  UNK     1      18.035   8.239  33.362  1.00  0.00     0.089 A 
HETATM   10  C15 UNK     1      17.978   9.581  33.731  1.00  0.00     0.038 A 
HETATM   11  C5  UNK     1      19.191   7.483  33.526  1.00  0.00    -0.001 A 
HETATM   12  C17 UNK     1      19.110  10.181  34.278  1.00  0.00     0.003 A 
HETATM   13  C16 UNK     1      20.280   9.438  34.448  1.00  0.00     0.001 A 
HETATM   14  C14 UNK     1      20.323   8.092  34.075  1.00  0.00     0.014 A 
HETATM   15  C9  UNK     1      19.183   6.086  33.120  1.00  0.00     0.037 A 
ENDBRANCH   3   5
BRANCH   2  16
HETATM   16  C2  UNK     1      18.712   2.746  30.188  1.00  0.00     0.037 A 
HETATM   17  C4  UNK     1      19.618   1.817  30.677  1.00  0.00     0.069 A 
HETATM   18  C1  UNK     1      19.761   0.647  29.960  1.00  0.00     0.107 A 
HETATM   19  O1  UNK     1      20.595  -0.383  30.271  1.00  0.00    -0.323 OA
HETATM   20  C3  UNK     1      19.040   0.408  28.813  1.00  0.00     0.105 A 
HETATM   21  C12 UNK     1      20.317  -1.297  29.190  1.00  0.00     0.352 A 
HETATM   22  O2  UNK     1      19.332  -0.802  28.262  1.00  0.00    -0.323 OA
HETATM   23  C10 UNK     1      18.136   1.326  28.319  1.00  0.00     0.042 A 
HETATM   24  C7  UNK     1      17.973   2.520  29.025  1.00  0.00     0.032 A 
ENDBRANCH   2  16
TORSDOF 2
ENDMDL
MODEL 8
REMARK VINA RESULT:      -9.0     13.600     16.734
REMARK  2 active torsions:
REMARK  status: ('A' for Active; 'I' for Inactive)
REMARK       I    between atoms: C11_17  and  N1_6 
REMARK    1  A    between atoms: C2_8  and  N1_6 
REMARK    2  A    between atoms: C11_17  and  C6_12 
ROOT
HETATM    1  O4  UNK     1      17.195  -1.964  16.855  1.00  0.00    -0.267 OA
HETATM    2  N1  UNK     1      19.152  -0.737  16.401  1.00  0.00    -0.323 N 
HETATM    3  C11 UNK     1      18.189  -1.711  16.177  1.00  0.00     0.262 C 
HETATM    4  H5  UNK     1      19.909  -0.641  15.726  1.00  0.00     0.169 HD
ENDROOT
BRANCH   3   5
HETATM    5  C6  UNK     1      18.460  -2.489  14.962  1.00  0.00     0.108 A 
HETATM    6  C13 UNK     1      18.053  -3.906  14.830  1.00  0.00     0.304 A 
HETATM    7  O3  UNK     1      18.365  -4.537  13.629  1.00  0.00    -0.274 OA
HETATM    8  O5  UNK     1      17.468  -4.499  15.730  1.00  0.00    -0.259 OA
HETATM    9  C8  UNK     1      19.036  -3.864  12.589  1.00  0.00     0.089 A 
HETATM   10  C15 UNK     1      19.305  -4.580  11.424  1.00  0.00     0.038 A 
HETATM   11  C5  UNK     1      19.410  -2.532  12.734  1.00  0.00    -0.001 A 
HETATM   12  C17 UNK     1      19.968  -3.941  10.378  1.00  0.00     0.003 A 
HETATM   13  C16 UNK     1      20.352  -2.605  10.506  1.00  0.00     0.001 A 
HETATM   14  C14 UNK     1      20.074  -1.900  11.680  1.00  0.00     0.014 A 
HETATM   15  C9  UNK     1      19.097  -1.845  13.977  1.00  0.00     0.037 A 
ENDBRANCH   3   5
BRANCH   2  16
HETATM   16  C2  UNK     1      19.211   0.192  17.468  1.00  0.00     0.037 A 
HETATM   17  C4  UNK     1      19.442  -0.274  18.754  1.00  0.00     0.069 A 
HETATM   18  C1  UNK     1      19.491   0.668  19.760  1.00  0.00     0.107 A 
HETATM   19  O1  UNK     1      19.703   0.415  21.080  1.00  0.00    -0.323 OA
HETATM   20  C3  UNK     1      19.321   2.009  19.505  1.00  0.00     0.105 A 
HETATM   21  C12 UNK     1      19.647   1.749  21.628  1.00  0.00     0.352 A 
HETATM   22  O2  UNK     1      19.405   2.764  20.635  1.00  0.00    -0.323 OA
HETATM   23  C10 UNK     1      19.091   2.483  18.230  1.00  0.00     0.042 A 
HETATM   24  C7  UNK     1      19.035   1.549  17.192  1.00  0.00     0.032 A 
ENDBRANCH   2  16
TORSDOF 2
ENDMDL
MODEL 9
REMARK VINA RESULT:      -8.9      8.080     10.162
REMARK  2 active torsions:
REMARK  status: ('A' for Active; 'I' for Inactive)
REMARK       I    between atoms: C11_17  and  N1_6 
REMARK    1  A    between atoms: C2_8  and  N1_6 
REMARK    2  A    between atoms: C11_17  and  C6_12 
ROOT
HETATM    1  O4  UNK     1      20.413  -3.705  35.479  1.00  0.00    -0.267 OA
HETATM    2  N1  UNK     1      18.904  -3.016  37.151  1.00  0.00    -0.323 N 
HETATM    3  C11 UNK     1      19.761  -3.896  36.504  1.00  0.00     0.262 C 
HETATM    4  H5  UNK     1      18.452  -3.324  38.009  1.00  0.00     0.169 HD
ENDROOT
BRANCH   3   5
HETATM    5  C6  UNK     1      19.845  -5.191  37.190  1.00  0.00     0.108 A 
HETATM    6  C13 UNK     1      18.749  -6.184  37.131  1.00  0.00     0.304 A 
HETATM    7  O3  UNK     1      18.948  -7.376  37.822  1.00  0.00    -0.274 OA
HETATM    8  O5  UNK     1      17.716  -5.973  36.505  1.00  0.00    -0.259 OA
HETATM    9  C8  UNK     1      20.130  -7.629  38.544  1.00  0.00     0.089 A 
HETATM   10  C15 UNK     1      20.237  -8.852  39.204  1.00  0.00     0.038 A 
HETATM   11  C5  UNK     1      21.148  -6.682  38.586  1.00  0.00    -0.001 A 
HETATM   12  C17 UNK     1      21.396  -9.130  39.926  1.00  0.00     0.003 A 
HETATM   13  C16 UNK     1      22.427  -8.191  39.982  1.00  0.00     0.001 A 
HETATM   14  C14 UNK     1      22.306  -6.969  39.314  1.00  0.00     0.014 A 
HETATM   15  C9  UNK     1      20.971  -5.426  37.874  1.00  0.00     0.037 A 
ENDBRANCH   3   5
BRANCH   2  16
HETATM   16  C2  UNK     1      18.585  -1.689  36.776  1.00  0.00     0.037 A 
HETATM   17  C4  UNK     1      18.850  -1.274  35.479  1.00  0.00     0.069 A 
HETATM   18  C1  UNK     1      18.521   0.028  35.159  1.00  0.00     0.107 A 
HETATM   19  O1  UNK     1      18.702   0.623  33.949  1.00  0.00    -0.323 OA
HETATM   20  C3  UNK     1      17.954   0.878  36.081  1.00  0.00     0.105 A 
HETATM   21  C12 UNK     1      18.186   1.944  34.212  1.00  0.00     0.352 A 
HETATM   22  O2  UNK     1      17.711   2.113  35.562  1.00  0.00    -0.323 OA
HETATM   23  C10 UNK     1      17.686   0.475  37.373  1.00  0.00     0.042 A 
HETATM   24  C7  UNK     1      18.011  -0.838  37.723  1.00  0.00     0.032 A 
ENDBRANCH   2  16
TORSDOF 2
ENDMDL
MODEL 10
REMARK VINA RESULT:      -8.6      3.294      4.224
REMARK  2 active torsions:
REMARK  status: ('A' for Active; 'I' for Inactive)
REMARK       I    between atoms: C11_17  and  N1_6 
REMARK    1  A    between atoms: C2_8  and  N1_6 
REMARK    2  A    between atoms: C11_17  and  C6_12 
ROOT
HETATM    1  O4  UNK     1      17.768   3.647  32.214  1.00  0.00    -0.267 OA
HETATM    2  N1  UNK     1      18.373   4.527  34.312  1.00  0.00    -0.323 N 
HETATM    3  C11 UNK     1      18.088   3.525  33.395  1.00  0.00     0.262 C 
HETATM    4  H5  UNK     1      18.645   4.257  35.255  1.00  0.00     0.169 HD
ENDROOT
BRANCH   3   5
HETATM    5  C6  UNK     1      18.205   2.186  33.984  1.00  0.00     0.108 A 
HETATM    6  C13 UNK     1      18.544   0.997  33.171  1.00  0.00     0.304 A 
HETATM    7  O3  UNK     1      18.627  -0.218  33.845  1.00  0.00    -0.274 OA
HETATM    8  O5  UNK     1      18.745   1.073  31.964  1.00  0.00    -0.259 OA
HETATM    9  C8  UNK     1      18.399  -0.317  35.231  1.00  0.00     0.089 A 
HETATM   10  C15 UNK     1      18.504  -1.577  35.817  1.00  0.00     0.038 A 
HETATM   11  C5  UNK     1      18.081   0.814  35.977  1.00  0.00    -0.001 A 
HETATM   12  C17 UNK     1      18.284  -1.705  37.187  1.00  0.00     0.003 A 
HETATM   13  C16 UNK     1      17.962  -0.582  37.951  1.00  0.00     0.001 A 
HETATM   14  C14 UNK     1      17.860   0.675  37.350  1.00  0.00     0.014 A 
HETATM   15  C9  UNK     1      17.987   2.099  35.302  1.00  0.00     0.037 A 
ENDBRANCH   3   5
BRANCH   2  16
HETATM   16  C2  UNK     1      18.362   5.926  34.095  1.00  0.00     0.037 A 
HETATM   17  C4  UNK     1      17.184   6.630  34.301  1.00  0.00     0.069 A 
HETATM   18  C1  UNK     1      17.222   7.991  34.078  1.00  0.00     0.107 A 
HETATM   19  O1  UNK     1      16.178   8.852  34.221  1.00  0.00    -0.323 OA
HETATM   20  C3  UNK     1      18.372   8.626  33.670  1.00  0.00     0.105 A 
HETATM   21  C12 UNK     1      16.801  10.102  33.858  1.00  0.00     0.352 A 
HETATM   22  O2  UNK     1      18.192   9.965  33.507  1.00  0.00    -0.323 OA
HETATM   23  C10 UNK     1      19.548   7.935  33.463  1.00  0.00     0.042 A 
HETATM   24  C7  UNK     1      19.537   6.555  33.681  1.00  0.00     0.032 A 
ENDBRANCH   2  16
TORSDOF 2
ENDMDL
