MODEL 1
REMARK VINA RESULT:      -9.8      0.000      0.000
REMARK  3 active torsions:
REMARK  status: ('A' for Active; 'I' for Inactive)
REMARK    1  A    between atoms: C21_29  and  O4_6 
REMARK    2  A    between atoms: C1_9  and  C8_16 
REMARK    3  A    between atoms: C6_14  and  C9_17 
ROOT
HETATM    1  O1  UNK     1      33.112 -10.264  34.214  1.00  0.00    -0.293 OA
HETATM    2  N1  UNK     1      28.932  -9.834  31.852  1.00  0.00    -0.357 N 
HETATM    3  N2  UNK     1      30.897  -7.588  32.199  1.00  0.00    -0.375 N 
HETATM    4  C1  UNK     1      31.399 -12.617  32.101  1.00  0.00     0.031 C 
HETATM    5  C2  UNK     1      30.009 -11.975  32.109  1.00  0.00     0.067 C 
HETATM    6  C3  UNK     1      31.073  -9.899  33.023  1.00  0.00     0.037 C 
HETATM    7  C4  UNK     1      32.122 -12.257  33.391  1.00  0.00     0.093 C 
HETATM    8  C5  UNK     1      30.049 -10.474  32.356  1.00  0.00     0.022 C 
HETATM    9  C6  UNK     1      31.156  -8.430  33.354  1.00  0.00     0.160 C 
HETATM   10  C7  UNK     1      32.186 -10.759  33.571  1.00  0.00     0.160 C 
HETATM   11  C10 UNK     1      28.722  -8.497  31.459  1.00  0.00     0.059 A 
HETATM   12  C11 UNK     1      29.670  -7.467  31.562  1.00  0.00     0.055 A 
HETATM   13  C16 UNK     1      27.470  -8.208  30.863  1.00  0.00     0.032 A 
HETATM   14  C17 UNK     1      29.350  -6.200  31.023  1.00  0.00     0.031 A 
HETATM   15  C22 UNK     1      27.169  -6.945  30.356  1.00  0.00     0.002 A 
HETATM   16  C23 UNK     1      28.117  -5.939  30.427  1.00  0.00     0.002 A 
HETATM   17  H7  UNK     1      28.164 -10.459  31.622  1.00  0.00     0.166 HD
HETATM   18  H8  UNK     1      31.556  -6.829  32.046  1.00  0.00     0.160 HD
ENDROOT
BRANCH   9  19
HETATM   19  C9  UNK     1      30.285  -8.038  34.511  1.00  0.00     0.042 A 
HETATM   20  C14 UNK     1      30.650  -6.834  35.298  1.00  0.00     0.195 A 
HETATM   21  O3  UNK     1      31.634  -6.156  35.031  1.00  0.00    -0.287 OA
HETATM   22  C18 UNK     1      29.761  -6.493  36.423  1.00  0.00     0.052 A 
HETATM   23  C24 UNK     1      28.652  -7.301  36.679  1.00  0.00     0.111 A 
HETATM   24  C25 UNK     1      30.019  -5.379  37.225  1.00  0.00     0.042 A 
HETATM   25  O2  UNK     1      28.351  -8.407  35.925  1.00  0.00    -0.319 OA
HETATM   26  C26 UNK     1      27.796  -6.998  37.739  1.00  0.00     0.070 A 
HETATM   27  C15 UNK     1      29.188  -8.711  34.881  1.00  0.00     0.156 A 
HETATM   28 Cl1  UNK     1      26.415  -7.972  38.092  1.00  0.00    -0.081 Cl
HETATM   29  C28 UNK     1      28.052  -5.886  38.540  1.00  0.00     0.050 A 
HETATM   30  C27 UNK     1      29.161  -5.078  38.284  1.00  0.00     0.036 A 
HETATM   31 Cl2  UNK     1      29.472  -3.706  39.277  1.00  0.00    -0.084 Cl
ENDBRANCH   9  19
BRANCH   4  32
HETATM   32  C8  UNK     1      31.335 -14.117  31.877  1.00  0.00    -0.053 A 
HETATM   33  C12 UNK     1      31.100 -14.969  32.954  1.00  0.00     0.010 A 
HETATM   34  C19 UNK     1      31.042 -16.348  32.749  1.00  0.00     0.037 A 
HETATM   35  C21 UNK     1      31.219 -16.870  31.468  1.00  0.00     0.068 A 
HETATM   36  C20 UNK     1      31.454 -16.015  30.392  1.00  0.00     0.037 A 
HETATM   37  C13 UNK     1      31.512 -14.636  30.597  1.00  0.00     0.010 A 
BRANCH  35  38
HETATM   38  O4  UNK     1      31.161 -18.215  31.269  1.00  0.00    -0.356 OA
HETATM   39  C29 UNK     1      30.347 -18.679  30.193  1.00  0.00     0.210 C 
ENDBRANCH  35  38
ENDBRANCH   4  32
TORSDOF 3
ENDMDL
MODEL 2
REMARK VINA RESULT:      -9.5     33.111     34.769
REMARK  3 active torsions:
REMARK  status: ('A' for Active; 'I' for Inactive)
REMARK    1  A    between atoms: C21_29  and  O4_6 
REMARK    2  A    between atoms: C1_9  and  C8_16 
REMARK    3  A    between atoms: C6_14  and  C9_17 
ROOT
HETATM    1  O1  UNK     1      17.569   7.935  10.113  1.00  0.00    -0.293 OA
HETATM    2  N1  UNK     1      15.138  11.583   8.109  1.00  0.00    -0.357 N 
HETATM    3  N2  UNK     1      18.099  11.178   7.804  1.00  0.00    -0.375 N 
HETATM    4  C1  UNK     1      14.264   8.007   8.696  1.00  0.00     0.031 C 
HETATM    5  C2  UNK     1      14.037   9.522   8.701  1.00  0.00     0.067 C 
HETATM    6  C3  UNK     1      16.501   9.798   9.066  1.00  0.00     0.037 C 
HETATM    7  C4  UNK     1      15.233   7.645   9.812  1.00  0.00     0.093 C 
HETATM    8  C5  UNK     1      15.333  10.317   8.629  1.00  0.00     0.022 C 
HETATM    9  C6  UNK     1      17.812  10.542   9.078  1.00  0.00     0.160 C 
HETATM   10  C7  UNK     1      16.524   8.416   9.674  1.00  0.00     0.160 C 
HETATM   11  C10 UNK     1      16.022  12.475   7.471  1.00  0.00     0.059 A 
HETATM   12  C11 UNK     1      17.393  12.247   7.272  1.00  0.00     0.055 A 
HETATM   13  C16 UNK     1      15.450  13.659   6.947  1.00  0.00     0.032 A 
HETATM   14  C17 UNK     1      18.130  13.187   6.515  1.00  0.00     0.031 A 
HETATM   15  C22 UNK     1      16.200  14.582   6.221  1.00  0.00     0.002 A 
HETATM   16  C23 UNK     1      17.544  14.340   5.995  1.00  0.00     0.002 A 
HETATM   17  H7  UNK     1      14.165  11.876   8.085  1.00  0.00     0.166 HD
HETATM   18  H8  UNK     1      19.036  11.034   7.438  1.00  0.00     0.160 HD
ENDROOT
BRANCH   9  19
HETATM   19  C9  UNK     1      17.918  11.527  10.205  1.00  0.00     0.042 A 
HETATM   20  C14 UNK     1      19.263  12.029  10.584  1.00  0.00     0.195 A 
HETATM   21  O3  UNK     1      20.279  11.666  10.007  1.00  0.00    -0.287 OA
HETATM   22  C18 UNK     1      19.310  12.995  11.697  1.00  0.00     0.052 A 
HETATM   23  C24 UNK     1      18.119  13.374  12.317  1.00  0.00     0.111 A 
HETATM   24  C25 UNK     1      20.527  13.525  12.129  1.00  0.00     0.042 A 
HETATM   25  O2  UNK     1      16.896  12.885  11.934  1.00  0.00    -0.319 OA
HETATM   26  C26 UNK     1      18.140  14.286  13.373  1.00  0.00     0.070 A 
HETATM   27  C15 UNK     1      16.867  11.986  10.896  1.00  0.00     0.156 A 
HETATM   28 Cl1  UNK     1      16.689  14.782  14.168  1.00  0.00    -0.081 Cl
HETATM   29  C28 UNK     1      19.354  14.818  13.805  1.00  0.00     0.050 A 
HETATM   30  C27 UNK     1      20.545  14.439  13.185  1.00  0.00     0.036 A 
HETATM   31 Cl2  UNK     1      22.042  15.098  13.725  1.00  0.00    -0.084 Cl
ENDBRANCH   9  19
BRANCH   4  32
HETATM   32  C8  UNK     1      12.962   7.234   8.793  1.00  0.00    -0.053 A 
HETATM   33  C12 UNK     1      12.958   5.945   9.324  1.00  0.00     0.010 A 
HETATM   34  C19 UNK     1      11.761   5.234   9.412  1.00  0.00     0.037 A 
HETATM   35  C21 UNK     1      10.572   5.813   8.971  1.00  0.00     0.068 A 
HETATM   36  C20 UNK     1      10.578   7.103   8.441  1.00  0.00     0.037 A 
HETATM   37  C13 UNK     1      11.775   7.815   8.352  1.00  0.00     0.010 A 
BRANCH  35  38
HETATM   38  O4  UNK     1       9.404   5.118   9.058  1.00  0.00    -0.356 OA
HETATM   39  C29 UNK     1       8.236   5.742   8.528  1.00  0.00     0.210 C 
ENDBRANCH  35  38
ENDBRANCH   4  32
TORSDOF 3
ENDMDL
MODEL 3
REMARK VINA RESULT:      -9.4      1.121      1.453
REMARK  3 active torsions:
REMARK  status: ('A' for Active; 'I' for Inactive)
REMARK    1  A    between atoms: C21_29  and  O4_6 
REMARK    2  A    between atoms: C1_9  and  C8_16 
REMARK    3  A    between atoms: C6_14  and  C9_17 
ROOT
HETATM    1  O1  UNK     1      33.848 -10.934  33.135  1.00  0.00    -0.293 OA
HETATM    2  N1  UNK     1      29.291 -10.377  31.669  1.00  0.00    -0.357 N 
HETATM    3  N2  UNK     1      31.385  -8.231  31.476  1.00  0.00    -0.375 N 
HETATM    4  C1  UNK     1      31.625 -13.280  31.556  1.00  0.00     0.031 C 
HETATM    5  C2  UNK     1      30.298 -12.561  31.817  1.00  0.00     0.067 C 
HETATM    6  C3  UNK     1      31.624 -10.509  32.373  1.00  0.00     0.037 C 
HETATM    7  C4  UNK     1      32.618 -12.903  32.646  1.00  0.00     0.093 C 
HETATM    8  C5  UNK     1      30.458 -11.055  31.966  1.00  0.00     0.022 C 
HETATM    9  C6  UNK     1      31.842  -9.033  32.598  1.00  0.00     0.160 C 
HETATM   10  C7  UNK     1      32.787 -11.405  32.726  1.00  0.00     0.160 C 
HETATM   11  C10 UNK     1      29.063  -9.049  31.254  1.00  0.00     0.059 A 
HETATM   12  C11 UNK     1      30.059  -8.070  31.101  1.00  0.00     0.055 A 
HETATM   13  C16 UNK     1      27.730  -8.717  30.916  1.00  0.00     0.032 A 
HETATM   14  C17 UNK     1      29.691  -6.813  30.570  1.00  0.00     0.031 A 
HETATM   15  C22 UNK     1      27.387  -7.463  30.412  1.00  0.00     0.002 A 
HETATM   16  C23 UNK     1      28.374  -6.510  30.229  1.00  0.00     0.002 A 
HETATM   17  H7  UNK     1      28.464 -10.967  31.639  1.00  0.00     0.166 HD
HETATM   18  H8  UNK     1      32.031  -7.518  31.148  1.00  0.00     0.160 HD
ENDROOT
BRANCH   9  19
HETATM   19  C9  UNK     1      31.251  -8.542  33.886  1.00  0.00     0.042 A 
HETATM   20  C14 UNK     1      31.423  -7.111  34.245  1.00  0.00     0.195 A 
HETATM   21  O3  UNK     1      32.028  -6.328  33.524  1.00  0.00    -0.287 OA
HETATM   22  C18 UNK     1      30.823  -6.681  35.520  1.00  0.00     0.052 A 
HETATM   23  C24 UNK     1      30.144  -7.617  36.300  1.00  0.00     0.111 A 
HETATM   24  C25 UNK     1      30.931  -5.355  35.947  1.00  0.00     0.042 A 
HETATM   25  O2  UNK     1      30.007  -8.931  35.930  1.00  0.00    -0.319 OA
HETATM   26  C26 UNK     1      29.568  -7.231  37.512  1.00  0.00     0.070 A 
HETATM   27  C15 UNK     1      30.571  -9.318  34.740  1.00  0.00     0.156 A 
HETATM   28 Cl1  UNK     1      28.720  -8.358  38.508  1.00  0.00    -0.081 Cl
HETATM   29  C28 UNK     1      29.673  -5.909  37.939  1.00  0.00     0.050 A 
HETATM   30  C27 UNK     1      30.353  -4.972  37.159  1.00  0.00     0.036 A 
HETATM   31 Cl2  UNK     1      30.481  -3.340  37.693  1.00  0.00    -0.084 Cl
ENDBRANCH   9  19
BRANCH   4  32
HETATM   32  C8  UNK     1      31.447 -14.782  31.435  1.00  0.00    -0.053 A 
HETATM   33  C12 UNK     1      31.546 -15.393  30.187  1.00  0.00     0.010 A 
HETATM   34  C19 UNK     1      31.382 -16.775  30.075  1.00  0.00     0.037 A 
HETATM   35  C21 UNK     1      31.121 -17.540  31.211  1.00  0.00     0.068 A 
HETATM   36  C20 UNK     1      31.023 -16.925  32.460  1.00  0.00     0.037 A 
HETATM   37  C13 UNK     1      31.187 -15.544  32.572  1.00  0.00     0.010 A 
BRANCH  35  38
HETATM   38  O4  UNK     1      30.962 -18.887  31.102  1.00  0.00    -0.356 OA
HETATM   39  C29 UNK     1      29.970 -19.353  30.188  1.00  0.00     0.210 C 
ENDBRANCH  35  38
ENDBRANCH   4  32
TORSDOF 3
ENDMDL
MODEL 4
REMARK VINA RESULT:      -9.2      1.354      1.550
REMARK  3 active torsions:
REMARK  status: ('A' for Active; 'I' for Inactive)
REMARK    1  A    between atoms: C21_29  and  O4_6 
REMARK    2  A    between atoms: C1_9  and  C8_16 
REMARK    3  A    between atoms: C6_14  and  C9_17 
ROOT
HETATM    1  O1  UNK     1      33.996 -10.113  32.810  1.00  0.00    -0.293 OA
HETATM    2  N1  UNK     1      29.422  -9.977  31.295  1.00  0.00    -0.357 N 
HETATM    3  N2  UNK     1      31.185  -7.554  31.514  1.00  0.00    -0.375 N 
HETATM    4  C1  UNK     1      32.154 -12.466  30.807  1.00  0.00     0.031 C 
HETATM    5  C2  UNK     1      30.734 -11.992  31.132  1.00  0.00     0.067 C 
HETATM    6  C3  UNK     1      31.742  -9.890  32.049  1.00  0.00     0.037 C 
HETATM    7  C4  UNK     1      33.070 -12.133  31.976  1.00  0.00     0.093 C 
HETATM    8  C5  UNK     1      30.672 -10.523  31.522  1.00  0.00     0.022 C 
HETATM    9  C6  UNK     1      31.742  -8.454  32.510  1.00  0.00     0.160 C 
HETATM   10  C7  UNK     1      33.019 -10.657  32.296  1.00  0.00     0.160 C 
HETATM   11  C10 UNK     1      29.010  -8.646  31.087  1.00  0.00     0.059 A 
HETATM   12  C11 UNK     1      29.855  -7.525  31.124  1.00  0.00     0.055 A 
HETATM   13  C16 UNK     1      27.646  -8.455  30.760  1.00  0.00     0.032 A 
HETATM   14  C17 UNK     1      29.314  -6.263  30.785  1.00  0.00     0.031 A 
HETATM   15  C22 UNK     1      27.131  -7.199  30.448  1.00  0.00     0.002 A 
HETATM   16  C23 UNK     1      27.971  -6.099  30.451  1.00  0.00     0.002 A 
HETATM   17  H7  UNK     1      28.690 -10.666  31.144  1.00  0.00     0.166 HD
HETATM   18  H8  UNK     1      31.726  -6.715  31.325  1.00  0.00     0.160 HD
ENDROOT
BRANCH   9  19
HETATM   19  C9  UNK     1      31.072  -8.264  33.839  1.00  0.00     0.042 A 
HETATM   20  C14 UNK     1      31.107  -6.918  34.465  1.00  0.00     0.195 A 
HETATM   21  O3  UNK     1      31.661  -5.967  33.931  1.00  0.00    -0.287 OA
HETATM   22  C18 UNK     1      30.433  -6.786  35.769  1.00  0.00     0.052 A 
HETATM   23  C24 UNK     1      29.815  -7.905  36.330  1.00  0.00     0.111 A 
HETATM   24  C25 UNK     1      30.411  -5.561  36.440  1.00  0.00     0.042 A 
HETATM   25  O2  UNK     1      29.806  -9.132  35.716  1.00  0.00    -0.319 OA
HETATM   26  C26 UNK     1      29.172  -7.803  37.564  1.00  0.00     0.070 A 
HETATM   27  C15 UNK     1      30.437  -9.240  34.502  1.00  0.00     0.156 A 
HETATM   28 Cl1  UNK     1      28.396  -9.163  38.293  1.00  0.00    -0.081 Cl
HETATM   29  C28 UNK     1      29.148  -6.581  38.235  1.00  0.00     0.050 A 
HETATM   30  C27 UNK     1      29.766  -5.462  37.674  1.00  0.00     0.036 A 
HETATM   31 Cl2  UNK     1      29.734  -3.955  38.507  1.00  0.00    -0.084 Cl
ENDBRANCH   9  19
BRANCH   4  32
HETATM   32  C8  UNK     1      32.197 -13.939  30.445  1.00  0.00    -0.053 A 
HETATM   33  C12 UNK     1      33.412 -14.535  30.110  1.00  0.00     0.010 A 
HETATM   34  C19 UNK     1      33.452 -15.889  29.777  1.00  0.00     0.037 A 
HETATM   35  C21 UNK     1      32.278 -16.643  29.779  1.00  0.00     0.068 A 
HETATM   36  C20 UNK     1      31.064 -16.043  30.115  1.00  0.00     0.037 A 
HETATM   37  C13 UNK     1      31.024 -14.689  30.449  1.00  0.00     0.010 A 
BRANCH  35  38
HETATM   38  O4  UNK     1      32.318 -17.964  29.454  1.00  0.00    -0.356 OA
HETATM   39  C29 UNK     1      32.251 -18.295  28.069  1.00  0.00     0.210 C 
ENDBRANCH  35  38
ENDBRANCH   4  32
TORSDOF 3
ENDMDL
MODEL 5
REMARK VINA RESULT:      -8.7      4.768      7.276
REMARK  3 active torsions:
REMARK  status: ('A' for Active; 'I' for Inactive)
REMARK    1  A    between atoms: C21_29  and  O4_6 
REMARK    2  A    between atoms: C1_9  and  C8_16 
REMARK    3  A    between atoms: C6_14  and  C9_17 
ROOT
HETATM    1  O1  UNK     1      33.235 -12.274  31.032  1.00  0.00    -0.293 OA
HETATM    2  N1  UNK     1      33.965  -9.076  34.565  1.00  0.00    -0.357 N 
HETATM    3  N2  UNK     1      31.516 -10.803  34.351  1.00  0.00    -0.375 N 
HETATM    4  C1  UNK     1      36.272 -11.355  32.728  1.00  0.00     0.031 C 
HETATM    5  C2  UNK     1      35.810 -10.031  33.342  1.00  0.00     0.067 C 
HETATM    6  C3  UNK     1      33.455 -10.725  32.839  1.00  0.00     0.037 C 
HETATM    7  C4  UNK     1      35.477 -11.621  31.457  1.00  0.00     0.093 C 
HETATM    8  C5  UNK     1      34.307  -9.976  33.572  1.00  0.00     0.022 C 
HETATM    9  C6  UNK     1      31.953 -10.684  32.970  1.00  0.00     0.160 C 
HETATM   10  C7  UNK     1      33.993 -11.609  31.740  1.00  0.00     0.160 C 
HETATM   11  C10 UNK     1      32.831  -8.992  35.397  1.00  0.00     0.059 A 
HETATM   12  C11 UNK     1      31.720  -9.847  35.335  1.00  0.00     0.055 A 
HETATM   13  C16 UNK     1      32.864  -7.997  36.404  1.00  0.00     0.032 A 
HETATM   14  C17 UNK     1      30.706  -9.707  36.311  1.00  0.00     0.031 A 
HETATM   15  C22 UNK     1      31.844  -7.864  37.344  1.00  0.00     0.002 A 
HETATM   16  C23 UNK     1      30.765  -8.729  37.303  1.00  0.00     0.002 A 
HETATM   17  H7  UNK     1      34.709  -8.429  34.811  1.00  0.00     0.166 HD
HETATM   18  H8  UNK     1      30.769 -11.470  34.523  1.00  0.00     0.160 HD
ENDROOT
BRANCH   9  19
HETATM   19  C9  UNK     1      31.339  -9.483  32.315  1.00  0.00     0.042 A 
HETATM   20  C14 UNK     1      29.861  -9.425  32.183  1.00  0.00     0.195 A 
HETATM   21  O3  UNK     1      29.136 -10.322  32.592  1.00  0.00    -0.287 OA
HETATM   22  C18 UNK     1      29.309  -8.223  31.532  1.00  0.00     0.052 A 
HETATM   23  C24 UNK     1      30.184  -7.231  31.087  1.00  0.00     0.111 A 
HETATM   24  C25 UNK     1      27.931  -8.074  31.360  1.00  0.00     0.042 A 
HETATM   25  O2  UNK     1      31.545  -7.324  31.229  1.00  0.00    -0.319 OA
HETATM   26  C26 UNK     1      29.684  -6.084  30.468  1.00  0.00     0.070 A 
HETATM   27  C15 UNK     1      32.045  -8.449  31.838  1.00  0.00     0.156 A 
HETATM   28 Cl1  UNK     1      30.731  -4.834  29.901  1.00  0.00    -0.081 Cl
HETATM   29  C28 UNK     1      28.309  -5.934  30.296  1.00  0.00     0.050 A 
HETATM   30  C27 UNK     1      27.434  -6.926  30.740  1.00  0.00     0.036 A 
HETATM   31 Cl2  UNK     1      25.736  -6.734  30.524  1.00  0.00    -0.084 Cl
ENDBRANCH   9  19
BRANCH   4  32
HETATM   32  C8  UNK     1      37.770 -11.380  32.483  1.00  0.00    -0.053 A 
HETATM   33  C12 UNK     1      38.287 -10.873  31.293  1.00  0.00     0.010 A 
HETATM   34  C19 UNK     1      39.664 -10.897  31.068  1.00  0.00     0.037 A 
HETATM   35  C21 UNK     1      40.519 -11.426  32.034  1.00  0.00     0.068 A 
HETATM   36  C20 UNK     1      39.999 -11.933  33.225  1.00  0.00     0.037 A 
HETATM   37  C13 UNK     1      38.622 -11.909  33.450  1.00  0.00     0.010 A 
BRANCH  35  38
HETATM   38  O4  UNK     1      41.862 -11.448  31.814  1.00  0.00    -0.356 OA
HETATM   39  C29 UNK     1      42.698 -10.929  32.846  1.00  0.00     0.210 C 
ENDBRANCH  35  38
ENDBRANCH   4  32
TORSDOF 3
ENDMDL
MODEL 6
REMARK VINA RESULT:      -8.7      1.601      1.810
REMARK  3 active torsions:
REMARK  status: ('A' for Active; 'I' for Inactive)
REMARK    1  A    between atoms: C21_29  and  O4_6 
REMARK    2  A    between atoms: C1_9  and  C8_16 
REMARK    3  A    between atoms: C6_14  and  C9_17 
ROOT
HETATM    1  O1  UNK     1      34.504  -9.482  33.700  1.00  0.00    -0.293 OA
HETATM    2  N1  UNK     1      30.019  -9.746  31.953  1.00  0.00    -0.357 N 
HETATM    3  N2  UNK     1      31.533  -7.174  32.294  1.00  0.00    -0.375 N 
HETATM    4  C1  UNK     1      32.993 -11.960  31.574  1.00  0.00     0.031 C 
HETATM    5  C2  UNK     1      31.521 -11.627  31.831  1.00  0.00     0.067 C 
HETATM    6  C3  UNK     1      32.279  -9.456  32.827  1.00  0.00     0.037 C 
HETATM    7  C4  UNK     1      33.814 -11.564  32.793  1.00  0.00     0.093 C 
HETATM    8  C5  UNK     1      31.301 -10.177  32.237  1.00  0.00     0.022 C 
HETATM    9  C6  UNK     1      32.121  -8.035  33.306  1.00  0.00     0.160 C 
HETATM   10  C7  UNK     1      33.608 -10.106  33.129  1.00  0.00     0.160 C 
HETATM   11  C10 UNK     1      29.494  -8.456  31.741  1.00  0.00     0.059 A 
HETATM   12  C11 UNK     1      30.227  -7.261  31.836  1.00  0.00     0.055 A 
HETATM   13  C16 UNK     1      28.136  -8.387  31.347  1.00  0.00     0.032 A 
HETATM   14  C17 UNK     1      29.588  -6.050  31.487  1.00  0.00     0.031 A 
HETATM   15  C22 UNK     1      27.521  -7.178  31.026  1.00  0.00     0.002 A 
HETATM   16  C23 UNK     1      28.253  -6.005  31.086  1.00  0.00     0.002 A 
HETATM   17  H7  UNK     1      29.363 -10.497  31.756  1.00  0.00     0.166 HD
HETATM   18  H8  UNK     1      32.001  -6.284  32.143  1.00  0.00     0.160 HD
ENDROOT
BRANCH   9  19
HETATM   19  C9  UNK     1      31.370  -7.932  34.600  1.00  0.00     0.042 A 
HETATM   20  C14 UNK     1      31.287  -6.609  35.268  1.00  0.00     0.195 A 
HETATM   21  O3  UNK     1      31.807  -5.607  34.795  1.00  0.00    -0.287 OA
HETATM   22  C18 UNK     1      30.537  -6.563  36.537  1.00  0.00     0.052 A 
HETATM   23  C24 UNK     1      29.963  -7.736  37.028  1.00  0.00     0.111 A 
HETATM   24  C25 UNK     1      30.402  -5.365  37.242  1.00  0.00     0.042 A 
HETATM   25  O2  UNK     1      30.065  -8.939  36.378  1.00  0.00    -0.319 OA
HETATM   26  C26 UNK     1      29.250  -7.716  38.227  1.00  0.00     0.070 A 
HETATM   27  C15 UNK     1      30.765  -8.967  35.197  1.00  0.00     0.156 A 
HETATM   28 Cl1  UNK     1      28.524  -9.144  38.871  1.00  0.00    -0.081 Cl
HETATM   29  C28 UNK     1      29.113  -6.521  38.932  1.00  0.00     0.050 A 
HETATM   30  C27 UNK     1      29.687  -5.348  38.441  1.00  0.00     0.036 A 
HETATM   31 Cl2  UNK     1      29.515  -3.874  39.317  1.00  0.00    -0.084 Cl
ENDBRANCH   9  19
BRANCH   4  32
HETATM   32  C8  UNK     1      33.192 -13.416  31.196  1.00  0.00    -0.053 A 
HETATM   33  C12 UNK     1      32.151 -14.128  30.605  1.00  0.00     0.010 A 
HETATM   34  C19 UNK     1      32.334 -15.467  30.257  1.00  0.00     0.037 A 
HETATM   35  C21 UNK     1      33.558 -16.089  30.501  1.00  0.00     0.068 A 
HETATM   36  C20 UNK     1      34.599 -15.374  31.092  1.00  0.00     0.037 A 
HETATM   37  C13 UNK     1      34.416 -14.035  31.440  1.00  0.00     0.010 A 
BRANCH  35  38
HETATM   38  O4  UNK     1      33.736 -17.395  30.161  1.00  0.00    -0.356 OA
HETATM   39  C29 UNK     1      34.291 -17.662  28.875  1.00  0.00     0.210 C 
ENDBRANCH  35  38
ENDBRANCH   4  32
TORSDOF 3
ENDMDL
MODEL 7
REMARK VINA RESULT:      -8.7      4.236      5.452
REMARK  3 active torsions:
REMARK  status: ('A' for Active; 'I' for Inactive)
REMARK    1  A    between atoms: C21_29  and  O4_6 
REMARK    2  A    between atoms: C1_9  and  C8_16 
REMARK    3  A    between atoms: C6_14  and  C9_17 
ROOT
HETATM    1  O1  UNK     1      35.455  -6.272  33.857  1.00  0.00    -0.293 OA
HETATM    2  N1  UNK     1      32.680  -9.678  31.874  1.00  0.00    -0.357 N 
HETATM    3  N2  UNK     1      31.881  -6.791  32.100  1.00  0.00    -0.375 N 
HETATM    4  C1  UNK     1      36.364  -9.114  31.847  1.00  0.00     0.031 C 
HETATM    5  C2  UNK     1      35.075  -9.927  31.989  1.00  0.00     0.067 C 
HETATM    6  C3  UNK     1      33.968  -7.852  32.854  1.00  0.00     0.037 C 
HETATM    7  C4  UNK     1      36.538  -8.235  33.077  1.00  0.00     0.093 C 
HETATM    8  C5  UNK     1      33.854  -9.062  32.265  1.00  0.00     0.022 C 
HETATM    9  C6  UNK     1      32.803  -6.962  33.210  1.00  0.00     0.160 C 
HETATM   10  C7  UNK     1      35.328  -7.355  33.285  1.00  0.00     0.160 C 
HETATM   11  C10 UNK     1      31.419  -9.151  31.530  1.00  0.00     0.059 A 
HETATM   12  C11 UNK     1      31.075  -7.790  31.574  1.00  0.00     0.055 A 
HETATM   13  C16 UNK     1      30.461 -10.076  31.052  1.00  0.00     0.032 A 
HETATM   14  C17 UNK     1      29.804  -7.401  31.093  1.00  0.00     0.031 A 
HETATM   15  C22 UNK     1      29.206  -9.671  30.600  1.00  0.00     0.002 A 
HETATM   16  C23 UNK     1      28.880  -8.326  30.612  1.00  0.00     0.002 A 
HETATM   17  H7  UNK     1      32.774 -10.675  31.697  1.00  0.00     0.166 HD
HETATM   18  H8  UNK     1      31.592  -5.836  31.908  1.00  0.00     0.160 HD
ENDROOT
BRANCH   9  19
HETATM   19  C9  UNK     1      32.080  -7.409  34.445  1.00  0.00     0.042 A 
HETATM   20  C14 UNK     1      30.927  -6.604  34.921  1.00  0.00     0.195 A 
HETATM   21  O3  UNK     1      30.552  -5.595  34.338  1.00  0.00    -0.287 OA
HETATM   22  C18 UNK     1      30.251  -7.086  36.139  1.00  0.00     0.052 A 
HETATM   23  C24 UNK     1      30.720  -8.244  36.762  1.00  0.00     0.111 A 
HETATM   24  C25 UNK     1      29.156  -6.399  36.667  1.00  0.00     0.042 A 
HETATM   25  O2  UNK     1      31.791  -8.958  36.288  1.00  0.00    -0.319 OA
HETATM   26  C26 UNK     1      30.096  -8.719  37.916  1.00  0.00     0.070 A 
HETATM   27  C15 UNK     1      32.410  -8.497  35.152  1.00  0.00     0.156 A 
HETATM   28 Cl1  UNK     1      30.646 -10.145  38.719  1.00  0.00    -0.081 Cl
HETATM   29  C28 UNK     1      29.003  -8.034  38.445  1.00  0.00     0.050 A 
HETATM   30  C27 UNK     1      28.533  -6.877  37.822  1.00  0.00     0.036 A 
HETATM   31 Cl2  UNK     1      27.182  -6.035  38.480  1.00  0.00    -0.084 Cl
ENDBRANCH   9  19
BRANCH   4  32
HETATM   32  C8  UNK     1      37.573  -9.997  31.596  1.00  0.00    -0.053 A 
HETATM   33  C12 UNK     1      38.427 -10.318  32.649  1.00  0.00     0.010 A 
HETATM   34  C19 UNK     1      39.539 -11.129  32.419  1.00  0.00     0.037 A 
HETATM   35  C21 UNK     1      39.792 -11.617  31.138  1.00  0.00     0.068 A 
HETATM   36  C20 UNK     1      38.935 -11.295  30.085  1.00  0.00     0.037 A 
HETATM   37  C13 UNK     1      37.823 -10.484  30.315  1.00  0.00     0.010 A 
BRANCH  35  38
HETATM   38  O4  UNK     1      40.876 -12.409  30.914  1.00  0.00    -0.356 OA
HETATM   39  C29 UNK     1      41.964 -12.297  31.830  1.00  0.00     0.210 C 
ENDBRANCH  35  38
ENDBRANCH   4  32
TORSDOF 3
ENDMDL
MODEL 8
REMARK VINA RESULT:      -8.6      5.313      7.633
REMARK  3 active torsions:
REMARK  status: ('A' for Active; 'I' for Inactive)
REMARK    1  A    between atoms: C21_29  and  O4_6 
REMARK    2  A    between atoms: C1_9  and  C8_16 
REMARK    3  A    between atoms: C6_14  and  C9_17 
ROOT
HETATM    1  O1  UNK     1      36.243  -9.177  29.860  1.00  0.00    -0.293 OA
HETATM    2  N1  UNK     1      34.475 -12.243  33.132  1.00  0.00    -0.357 N 
HETATM    3  N2  UNK     1      33.199 -11.727  30.461  1.00  0.00    -0.375 N 
HETATM    4  C1  UNK     1      37.959 -11.378  32.129  1.00  0.00     0.031 C 
HETATM    5  C2  UNK     1      36.812 -11.653  33.105  1.00  0.00     0.067 C 
HETATM    6  C3  UNK     1      35.245 -10.722  31.385  1.00  0.00     0.037 C 
HETATM    7  C4  UNK     1      37.753 -10.013  31.489  1.00  0.00     0.093 C 
HETATM    8  C5  UNK     1      35.439 -11.511  32.464  1.00  0.00     0.022 C 
HETATM    9  C6  UNK     1      33.908 -10.487  30.729  1.00  0.00     0.160 C 
HETATM   10  C7  UNK     1      36.401  -9.932  30.819  1.00  0.00     0.160 C 
HETATM   11  C10 UNK     1      33.236 -12.761  32.705  1.00  0.00     0.059 A 
HETATM   12  C11 UNK     1      32.678 -12.571  31.430  1.00  0.00     0.055 A 
HETATM   13  C16 UNK     1      32.546 -13.580  33.630  1.00  0.00     0.032 A 
HETATM   14  C17 UNK     1      31.477 -13.246  31.113  1.00  0.00     0.031 A 
HETATM   15  C22 UNK     1      31.352 -14.220  33.302  1.00  0.00     0.002 A 
HETATM   16  C23 UNK     1      30.820 -14.060  32.034  1.00  0.00     0.002 A 
HETATM   17  H7  UNK     1      34.758 -12.555  34.057  1.00  0.00     0.166 HD
HETATM   18  H8  UNK     1      32.804 -11.818  29.529  1.00  0.00     0.160 HD
ENDROOT
BRANCH   9  19
HETATM   19  C9  UNK     1      33.042  -9.527  31.490  1.00  0.00     0.042 A 
HETATM   20  C14 UNK     1      31.685  -9.229  30.966  1.00  0.00     0.195 A 
HETATM   21  O3  UNK     1      31.256  -9.741  29.940  1.00  0.00    -0.287 OA
HETATM   22  C18 UNK     1      30.875  -8.280  31.752  1.00  0.00     0.052 A 
HETATM   23  C24 UNK     1      31.414  -7.729  32.915  1.00  0.00     0.111 A 
HETATM   24  C25 UNK     1      29.585  -7.934  31.343  1.00  0.00     0.042 A 
HETATM   25  O2  UNK     1      32.674  -8.033  33.363  1.00  0.00    -0.319 OA
HETATM   26  C26 UNK     1      30.666  -6.828  33.674  1.00  0.00     0.070 A 
HETATM   27  C15 UNK     1      33.417  -8.918  32.622  1.00  0.00     0.156 A 
HETATM   28 Cl1  UNK     1      31.296  -6.122  35.118  1.00  0.00    -0.081 Cl
HETATM   29  C28 UNK     1      29.378  -6.482  33.267  1.00  0.00     0.050 A 
HETATM   30  C27 UNK     1      28.838  -7.033  32.104  1.00  0.00     0.036 A 
HETATM   31 Cl2  UNK     1      27.247  -6.601  31.606  1.00  0.00    -0.084 Cl
ENDBRANCH   9  19
BRANCH   4  32
HETATM   32  C8  UNK     1      39.318 -11.502  32.794  1.00  0.00    -0.053 A 
HETATM   33  C12 UNK     1      39.543 -12.509  33.729  1.00  0.00     0.010 A 
HETATM   34  C19 UNK     1      40.792 -12.622  34.341  1.00  0.00     0.037 A 
HETATM   35  C21 UNK     1      41.811 -11.728  34.015  1.00  0.00     0.068 A 
HETATM   36  C20 UNK     1      41.583 -10.721  33.077  1.00  0.00     0.037 A 
HETATM   37  C13 UNK     1      40.334 -10.608  32.465  1.00  0.00     0.010 A 
BRANCH  35  38
HETATM   38  O4  UNK     1      43.030 -11.839  34.611  1.00  0.00    -0.356 OA
HETATM   39  C29 UNK     1      43.209 -12.918  35.527  1.00  0.00     0.210 C 
ENDBRANCH  35  38
ENDBRANCH   4  32
TORSDOF 3
ENDMDL
MODEL 9
REMARK VINA RESULT:      -8.6      2.964      3.602
REMARK  3 active torsions:
REMARK  status: ('A' for Active; 'I' for Inactive)
REMARK    1  A    between atoms: C21_29  and  O4_6 
REMARK    2  A    between atoms: C1_9  and  C8_16 
REMARK    3  A    between atoms: C6_14  and  C9_17 
ROOT
HETATM    1  O1  UNK     1      34.520 -11.963  30.541  1.00  0.00    -0.293 OA
HETATM    2  N1  UNK     1      29.861 -10.936  31.232  1.00  0.00    -0.357 N 
HETATM    3  N2  UNK     1      31.798  -9.086  29.871  1.00  0.00    -0.375 N 
HETATM    4  C1  UNK     1      31.636 -14.110  30.415  1.00  0.00     0.031 C 
HETATM    5  C2  UNK     1      30.642 -13.215  31.160  1.00  0.00     0.067 C 
HETATM    6  C3  UNK     1      32.237 -11.313  30.820  1.00  0.00     0.037 C 
HETATM    7  C4  UNK     1      33.047 -13.791  30.889  1.00  0.00     0.093 C 
HETATM    8  C5  UNK     1      30.974 -11.734  31.047  1.00  0.00     0.022 C 
HETATM    9  C6  UNK     1      32.653  -9.865  30.751  1.00  0.00     0.160 C 
HETATM   10  C7  UNK     1      33.355 -12.323  30.711  1.00  0.00     0.160 C 
HETATM   11  C10 UNK     1      29.577  -9.620  30.815  1.00  0.00     0.059 A 
HETATM   12  C11 UNK     1      30.467  -8.786  30.118  1.00  0.00     0.055 A 
HETATM   13  C16 UNK     1      28.270  -9.146  31.078  1.00  0.00     0.032 A 
HETATM   14  C17 UNK     1      30.000  -7.529  29.669  1.00  0.00     0.031 A 
HETATM   15  C22 UNK     1      27.837  -7.895  30.642  1.00  0.00     0.002 A 
HETATM   16  C23 UNK     1      28.703  -7.087  29.926  1.00  0.00     0.002 A 
HETATM   17  H7  UNK     1      29.068 -11.419  31.646  1.00  0.00     0.166 HD
HETATM   18  H8  UNK     1      32.277  -8.483  29.208  1.00  0.00     0.160 HD
ENDROOT
BRANCH   9  19
HETATM   19  C9  UNK     1      32.764  -9.221  32.101  1.00  0.00     0.042 A 
HETATM   20  C14 UNK     1      33.205  -7.805  32.177  1.00  0.00     0.195 A 
HETATM   21  O3  UNK     1      33.477  -7.154  31.177  1.00  0.00    -0.287 OA
HETATM   22  C18 UNK     1      33.297  -7.221  33.527  1.00  0.00     0.052 A 
HETATM   23  C24 UNK     1      32.973  -8.010  34.631  1.00  0.00     0.111 A 
HETATM   24  C25 UNK     1      33.702  -5.896  33.705  1.00  0.00     0.042 A 
HETATM   25  O2  UNK     1      32.569  -9.316  34.515  1.00  0.00    -0.319 OA
HETATM   26  C26 UNK     1      33.052  -7.478  35.919  1.00  0.00     0.070 A 
HETATM   27  C15 UNK     1      32.488  -9.847  33.252  1.00  0.00     0.156 A 
HETATM   28 Cl1  UNK     1      32.662  -8.420  37.312  1.00  0.00    -0.081 Cl
HETATM   29  C28 UNK     1      33.456  -6.155  36.098  1.00  0.00     0.050 A 
HETATM   30  C27 UNK     1      33.781  -5.366  34.994  1.00  0.00     0.036 A 
HETATM   31 Cl2  UNK     1      34.280  -3.734  35.222  1.00  0.00    -0.084 Cl
ENDBRANCH   9  19
BRANCH   4  32
HETATM   32  C8  UNK     1      31.301 -15.583  30.560  1.00  0.00    -0.053 A 
HETATM   33  C12 UNK     1      30.952 -16.329  29.436  1.00  0.00     0.010 A 
HETATM   34  C19 UNK     1      30.643 -17.683  29.569  1.00  0.00     0.037 A 
HETATM   35  C21 UNK     1      30.685 -18.287  30.826  1.00  0.00     0.068 A 
HETATM   36  C20 UNK     1      31.035 -17.538  31.949  1.00  0.00     0.037 A 
HETATM   37  C13 UNK     1      31.344 -16.184  31.816  1.00  0.00     0.010 A 
BRANCH  35  38
HETATM   38  O4  UNK     1      30.384 -19.608  30.955  1.00  0.00    -0.356 OA
HETATM   39  C29 UNK     1      29.152 -20.053  30.392  1.00  0.00     0.210 C 
ENDBRANCH  35  38
ENDBRANCH   4  32
TORSDOF 3
ENDMDL
MODEL 10
REMARK VINA RESULT:      -8.6     31.384     34.554
REMARK  3 active torsions:
REMARK  status: ('A' for Active; 'I' for Inactive)
REMARK    1  A    between atoms: C21_29  and  O4_6 
REMARK    2  A    between atoms: C1_9  and  C8_16 
REMARK    3  A    between atoms: C6_14  and  C9_17 
ROOT
HETATM    1  O1  UNK     1      19.095  12.929  13.311  1.00  0.00    -0.293 OA
HETATM    2  N1  UNK     1      19.743  12.978   8.535  1.00  0.00    -0.357 N 
HETATM    3  N2  UNK     1      17.299  14.066   9.903  1.00  0.00    -0.375 N 
HETATM    4  C1  UNK     1      22.092  13.449  11.390  1.00  0.00     0.031 C 
HETATM    5  C2  UNK     1      21.615  12.883  10.050  1.00  0.00     0.067 C 
HETATM    6  C3  UNK     1      19.273  13.015  10.929  1.00  0.00     0.037 C 
HETATM    7  C4  UNK     1      21.326  12.772  12.518  1.00  0.00     0.093 C 
HETATM    8  C5  UNK     1      20.107  12.974   9.868  1.00  0.00     0.022 C 
HETATM    9  C6  UNK     1      17.768  13.050  10.831  1.00  0.00     0.160 C 
HETATM   10  C7  UNK     1      19.837  12.931  12.328  1.00  0.00     0.160 C 
HETATM   11  C10 UNK     1      18.590  13.461   7.884  1.00  0.00     0.059 A 
HETATM   12  C11 UNK     1      17.480  14.031   8.529  1.00  0.00     0.055 A 
HETATM   13  C16 UNK     1      18.600  13.411   6.470  1.00  0.00     0.032 A 
HETATM   14  C17 UNK     1      16.444  14.572   7.733  1.00  0.00     0.031 A 
HETATM   15  C22 UNK     1      17.558  13.933   5.706  1.00  0.00     0.002 A 
HETATM   16  C23 UNK     1      16.479  14.525   6.340  1.00  0.00     0.002 A 
HETATM   17  H7  UNK     1      20.481  12.681   7.902  1.00  0.00     0.166 HD
HETATM   18  H8  UNK     1      16.548  14.660  10.241  1.00  0.00     0.160 HD
ENDROOT
BRANCH   9  19
HETATM   19  C9  UNK     1      17.170  11.713  10.510  1.00  0.00     0.042 A 
HETATM   20  C14 UNK     1      15.695  11.610  10.374  1.00  0.00     0.195 A 
HETATM   21  O3  UNK     1      14.960  12.579  10.513  1.00  0.00    -0.287 OA
HETATM   22  C18 UNK     1      15.159  10.274  10.058  1.00  0.00     0.052 A 
HETATM   23  C24 UNK     1      16.045   9.206   9.908  1.00  0.00     0.111 A 
HETATM   24  C25 UNK     1      13.785  10.073   9.910  1.00  0.00     0.042 A 
HETATM   25  O2  UNK     1      17.403   9.345  10.043  1.00  0.00    -0.319 OA
HETATM   26  C26 UNK     1      15.560   7.932   9.610  1.00  0.00     0.070 A 
HETATM   27  C15 UNK     1      17.888  10.595  10.337  1.00  0.00     0.156 A 
HETATM   28 Cl1  UNK     1      16.620   6.583   9.417  1.00  0.00    -0.081 Cl
HETATM   29  C28 UNK     1      14.188   7.730   9.460  1.00  0.00     0.050 A 
HETATM   30  C27 UNK     1      13.302   8.798   9.610  1.00  0.00     0.036 A 
HETATM   31 Cl2  UNK     1      11.609   8.542   9.426  1.00  0.00    -0.084 Cl
ENDBRANCH   9  19
BRANCH   4  32
HETATM   32  C8  UNK     1      23.595  13.326  11.561  1.00  0.00    -0.053 A 
HETATM   33  C12 UNK     1      24.356  12.704  10.574  1.00  0.00     0.010 A 
HETATM   34  C19 UNK     1      25.738  12.590  10.732  1.00  0.00     0.037 A 
HETATM   35  C21 UNK     1      26.354  13.099  11.875  1.00  0.00     0.068 A 
HETATM   36  C20 UNK     1      25.589  13.722  12.861  1.00  0.00     0.037 A 
HETATM   37  C13 UNK     1      24.207  13.836  12.704  1.00  0.00     0.010 A 
BRANCH  35  38
HETATM   38  O4  UNK     1      27.702  12.989  12.028  1.00  0.00    -0.356 OA
HETATM   39  C29 UNK     1      28.245  11.671  12.071  1.00  0.00     0.210 C 
ENDBRANCH  35  38
ENDBRANCH   4  32
TORSDOF 3
ENDMDL
