MODEL 1
REMARK VINA RESULT:      -8.7      0.000      0.000
REMARK  1 active torsions:
REMARK  status: ('A' for Active; 'I' for Inactive)
REMARK    1  A    between atoms: C1_4  and  C3_6 
ROOT
HETATM    1 Cl1  UNK     1      18.405   2.399  30.495  1.00  0.00    -0.081 Cl
HETATM    2  O1  UNK     1      19.037   0.335  32.470  1.00  0.00    -0.338 OA
HETATM    3  O2  UNK     1      20.870  -3.273  31.799  1.00  0.00    -0.292 OA
HETATM    4  C1  UNK     1      18.811  -0.778  33.349  1.00  0.00     0.169 C 
HETATM    5  C2  UNK     1      20.031  -1.694  33.398  1.00  0.00     0.121 C 
HETATM    6  C4  UNK     1      20.327  -2.195  32.009  1.00  0.00     0.165 C 
HETATM    7  C5  UNK     1      19.990  -1.275  30.904  1.00  0.00     0.045 A 
HETATM    8  C6  UNK     1      19.383  -0.050  31.201  1.00  0.00     0.105 A 
HETATM    9  C9  UNK     1      20.310  -1.601  29.584  1.00  0.00     0.018 A 
HETATM   10  C10 UNK     1      19.129   0.864  30.176  1.00  0.00     0.068 A 
HETATM   11  C14 UNK     1      20.036  -0.692  28.562  1.00  0.00     0.003 A 
HETATM   12  C15 UNK     1      19.451   0.540  28.858  1.00  0.00     0.027 A 
ENDROOT
BRANCH   4  13
HETATM   13  C3  UNK     1      18.476  -0.240  34.725  1.00  0.00    -0.029 A 
HETATM   14  C7  UNK     1      18.332   1.132  34.922  1.00  0.00     0.010 A 
HETATM   15  C12 UNK     1      18.024   1.627  36.190  1.00  0.00     0.007 A 
HETATM   16  C11 UNK     1      17.859   0.747  37.260  1.00  0.00    -0.062 A 
HETATM   17  C13 UNK     1      18.002  -0.626  37.063  1.00  0.00     0.007 A 
HETATM   18  C16 UNK     1      17.530   1.277  38.614  1.00  0.00     0.048 C 
HETATM   19  C8  UNK     1      18.311  -1.120  35.795  1.00  0.00     0.010 A 
ENDBRANCH   4  13
TORSDOF 1
ENDMDL
MODEL 2
REMARK VINA RESULT:      -8.0     24.316     26.452
REMARK  1 active torsions:
REMARK  status: ('A' for Active; 'I' for Inactive)
REMARK    1  A    between atoms: C1_4  and  C3_6 
ROOT
HETATM    1 Cl1  UNK     1      14.700  10.391   9.288  1.00  0.00    -0.081 Cl
HETATM    2  O1  UNK     1      13.738   7.657   8.890  1.00  0.00    -0.338 OA
HETATM    3  O2  UNK     1      15.735   4.171   9.718  1.00  0.00    -0.292 OA
HETATM    4  C1  UNK     1      13.426   6.447   8.182  1.00  0.00     0.169 C 
HETATM    5  C2  UNK     1      13.683   5.220   9.055  1.00  0.00     0.121 C 
HETATM    6  C4  UNK     1      15.130   5.207   9.473  1.00  0.00     0.165 C 
HETATM    7  C5  UNK     1      15.765   6.529   9.645  1.00  0.00     0.045 A 
HETATM    8  C6  UNK     1      15.024   7.682   9.365  1.00  0.00     0.105 A 
HETATM    9  C9  UNK     1      17.074   6.632  10.122  1.00  0.00     0.018 A 
HETATM   10  C10 UNK     1      15.583   8.939   9.596  1.00  0.00     0.068 A 
HETATM   11  C14 UNK     1      17.634   7.892  10.333  1.00  0.00     0.003 A 
HETATM   12  C15 UNK     1      16.890   9.043  10.074  1.00  0.00     0.027 A 
ENDROOT
BRANCH   4  13
HETATM   13  C3  UNK     1      11.979   6.510   7.740  1.00  0.00    -0.029 A 
HETATM   14  C7  UNK     1      10.982   6.829   8.659  1.00  0.00     0.010 A 
HETATM   15  C12 UNK     1       9.649   6.887   8.252  1.00  0.00     0.007 A 
HETATM   16  C11 UNK     1       9.315   6.624   6.923  1.00  0.00    -0.062 A 
HETATM   17  C13 UNK     1      10.313   6.306   6.002  1.00  0.00     0.007 A 
HETATM   18  C16 UNK     1       7.890   6.686   6.487  1.00  0.00     0.048 C 
HETATM   19  C8  UNK     1      11.645   6.248   6.411  1.00  0.00     0.010 A 
ENDBRANCH   4  13
TORSDOF 1
ENDMDL
MODEL 3
REMARK VINA RESULT:      -7.8      6.709      9.383
REMARK  1 active torsions:
REMARK  status: ('A' for Active; 'I' for Inactive)
REMARK    1  A    between atoms: C1_4  and  C3_6 
ROOT
HETATM    1 Cl1  UNK     1      13.674   7.353  32.669  1.00  0.00    -0.081 Cl
HETATM    2  O1  UNK     1      16.575   6.971  32.661  1.00  0.00    -0.338 OA
HETATM    3  O2  UNK     1      19.419   9.477  34.231  1.00  0.00    -0.292 OA
HETATM    4  C1  UNK     1      17.915   6.975  32.146  1.00  0.00     0.169 C 
HETATM    5  C2  UNK     1      18.920   7.354  33.231  1.00  0.00     0.121 C 
HETATM    6  C4  UNK     1      18.576   8.721  33.764  1.00  0.00     0.165 C 
HETATM    7  C5  UNK     1      17.141   9.073  33.762  1.00  0.00     0.045 A 
HETATM    8  C6  UNK     1      16.219   8.166  33.230  1.00  0.00     0.105 A 
HETATM    9  C9  UNK     1      16.705  10.276  34.322  1.00  0.00     0.018 A 
HETATM   10  C10 UNK     1      14.853   8.451  33.290  1.00  0.00     0.068 A 
HETATM   11  C14 UNK     1      15.340  10.563  34.361  1.00  0.00     0.003 A 
HETATM   12  C15 UNK     1      14.416   9.651  33.851  1.00  0.00     0.027 A 
ENDROOT
BRANCH   4  13
HETATM   13  C3  UNK     1      18.215   5.602  31.580  1.00  0.00    -0.029 A 
HETATM   14  C7  UNK     1      18.815   5.479  30.328  1.00  0.00     0.010 A 
HETATM   15  C12 UNK     1      19.090   4.214  29.807  1.00  0.00     0.007 A 
HETATM   16  C11 UNK     1      18.764   3.072  30.541  1.00  0.00    -0.062 A 
HETATM   17  C13 UNK     1      18.165   3.196  31.794  1.00  0.00     0.007 A 
HETATM   18  C16 UNK     1      19.059   1.721  29.984  1.00  0.00     0.048 C 
HETATM   19  C8  UNK     1      17.890   4.460  32.314  1.00  0.00     0.010 A 
ENDBRANCH   4  13
TORSDOF 1
ENDMDL
MODEL 4
REMARK VINA RESULT:      -7.7      3.601      5.405
REMARK  1 active torsions:
REMARK  status: ('A' for Active; 'I' for Inactive)
REMARK    1  A    between atoms: C1_4  and  C3_6 
ROOT
HETATM    1 Cl1  UNK     1      18.536   0.253  34.423  1.00  0.00    -0.081 Cl
HETATM    2  O1  UNK     1      18.630   1.738  31.903  1.00  0.00    -0.338 OA
HETATM    3  O2  UNK     1      19.669   0.299  28.205  1.00  0.00    -0.292 OA
HETATM    4  C1  UNK     1      19.157   2.615  30.895  1.00  0.00     0.169 C 
HETATM    5  C2  UNK     1      18.796   2.122  29.496  1.00  0.00     0.121 C 
HETATM    6  C4  UNK     1      19.353   0.735  29.305  1.00  0.00     0.165 C 
HETATM    7  C5  UNK     1      19.427  -0.105  30.517  1.00  0.00     0.045 A 
HETATM    8  C6  UNK     1      19.039   0.439  31.746  1.00  0.00     0.105 A 
HETATM    9  C9  UNK     1      19.837  -1.438  30.434  1.00  0.00     0.018 A 
HETATM   10  C10 UNK     1      19.030  -0.365  32.888  1.00  0.00     0.068 A 
HETATM   11  C14 UNK     1      19.844  -2.230  31.582  1.00  0.00     0.003 A 
HETATM   12  C15 UNK     1      19.437  -1.697  32.806  1.00  0.00     0.027 A 
ENDROOT
BRANCH   4  13
HETATM   13  C3  UNK     1      18.613   4.007  31.141  1.00  0.00    -0.029 A 
HETATM   14  C7  UNK     1      17.827   4.261  32.264  1.00  0.00     0.010 A 
HETATM   15  C12 UNK     1      17.325   5.543  32.490  1.00  0.00     0.007 A 
HETATM   16  C11 UNK     1      17.611   6.571  31.591  1.00  0.00    -0.062 A 
HETATM   17  C13 UNK     1      18.398   6.318  30.468  1.00  0.00     0.007 A 
HETATM   18  C16 UNK     1      17.075   7.941  31.832  1.00  0.00     0.048 C 
HETATM   19  C8  UNK     1      18.899   5.035  30.243  1.00  0.00     0.010 A 
ENDBRANCH   4  13
TORSDOF 1
ENDMDL
MODEL 5
REMARK VINA RESULT:      -7.6      4.203      5.693
REMARK  1 active torsions:
REMARK  status: ('A' for Active; 'I' for Inactive)
REMARK    1  A    between atoms: C1_4  and  C3_6 
ROOT
HETATM    1 Cl1  UNK     1      17.532   1.186  35.575  1.00  0.00    -0.081 Cl
HETATM    2  O1  UNK     1      17.940   2.776  33.152  1.00  0.00    -0.338 OA
HETATM    3  O2  UNK     1      19.296   1.460  29.511  1.00  0.00    -0.292 OA
HETATM    4  C1  UNK     1      18.601   3.674  32.247  1.00  0.00     0.169 C 
HETATM    5  C2  UNK     1      18.367   3.260  30.796  1.00  0.00     0.121 C 
HETATM    6  C4  UNK     1      18.886   1.860  30.594  1.00  0.00     0.165 C 
HETATM    7  C5  UNK     1      18.803   0.964  31.765  1.00  0.00     0.045 A 
HETATM    8  C6  UNK     1      18.313   1.469  32.974  1.00  0.00     0.105 A 
HETATM    9  C9  UNK     1      19.168  -0.380  31.659  1.00  0.00     0.018 A 
HETATM   10  C10 UNK     1      18.156   0.616  34.069  1.00  0.00     0.068 A 
HETATM   11  C14 UNK     1      19.027  -1.223  32.762  1.00  0.00     0.003 A 
HETATM   12  C15 UNK     1      18.518  -0.727  33.963  1.00  0.00     0.027 A 
ENDROOT
BRANCH   4  13
HETATM   13  C3  UNK     1      18.089   5.076  32.504  1.00  0.00    -0.029 A 
HETATM   14  C7  UNK     1      17.951   5.973  31.446  1.00  0.00     0.010 A 
HETATM   15  C12 UNK     1      17.480   7.265  31.684  1.00  0.00     0.007 A 
HETATM   16  C11 UNK     1      17.147   7.658  32.980  1.00  0.00    -0.062 A 
HETATM   17  C13 UNK     1      17.284   6.760  34.038  1.00  0.00     0.007 A 
HETATM   18  C16 UNK     1      16.643   9.038  33.234  1.00  0.00     0.048 C 
HETATM   19  C8  UNK     1      17.755   5.469  33.800  1.00  0.00     0.010 A 
ENDBRANCH   4  13
TORSDOF 1
ENDMDL
MODEL 6
REMARK VINA RESULT:      -7.6      2.966      6.185
REMARK  1 active torsions:
REMARK  status: ('A' for Active; 'I' for Inactive)
REMARK    1  A    between atoms: C1_4  and  C3_6 
ROOT
HETATM    1 Cl1  UNK     1      20.124  -2.088  33.499  1.00  0.00    -0.081 Cl
HETATM    2  O1  UNK     1      18.958   0.459  34.344  1.00  0.00    -0.338 OA
HETATM    3  O2  UNK     1      17.324   1.358  37.997  1.00  0.00    -0.292 OA
HETATM    4  C1  UNK     1      17.968   1.491  34.471  1.00  0.00     0.169 C 
HETATM    5  C2  UNK     1      18.034   2.149  35.847  1.00  0.00     0.121 C 
HETATM    6  C4  UNK     1      17.815   1.099  36.906  1.00  0.00     0.165 C 
HETATM    7  C5  UNK     1      18.297  -0.258  36.579  1.00  0.00     0.045 A 
HETATM    8  C6  UNK     1      18.863  -0.496  35.322  1.00  0.00     0.105 A 
HETATM    9  C9  UNK     1      18.229  -1.283  37.527  1.00  0.00     0.018 A 
HETATM   10  C10 UNK     1      19.393  -1.753  35.027  1.00  0.00     0.068 A 
HETATM   11  C14 UNK     1      18.743  -2.542  37.218  1.00  0.00     0.003 A 
HETATM   12  C15 UNK     1      19.328  -2.776  35.973  1.00  0.00     0.027 A 
ENDROOT
BRANCH   4  13
HETATM   13  C3  UNK     1      18.190   2.507  33.369  1.00  0.00    -0.029 A 
HETATM   14  C7  UNK     1      18.219   3.867  33.670  1.00  0.00     0.010 A 
HETATM   15  C12 UNK     1      18.423   4.803  32.655  1.00  0.00     0.007 A 
HETATM   16  C11 UNK     1      18.598   4.375  31.338  1.00  0.00    -0.062 A 
HETATM   17  C13 UNK     1      18.569   3.013  31.038  1.00  0.00     0.007 A 
HETATM   18  C16 UNK     1      18.815   5.374  30.254  1.00  0.00     0.048 C 
HETATM   19  C8  UNK     1      18.365   2.079  32.053  1.00  0.00     0.010 A 
ENDBRANCH   4  13
TORSDOF 1
ENDMDL
MODEL 7
REMARK VINA RESULT:      -7.6     12.606     14.742
REMARK  1 active torsions:
REMARK  status: ('A' for Active; 'I' for Inactive)
REMARK    1  A    between atoms: C1_4  and  C3_6 
ROOT
HETATM    1 Cl1  UNK     1      30.826 -10.064  38.187  1.00  0.00    -0.081 Cl
HETATM    2  O1  UNK     1      30.236  -7.231  37.755  1.00  0.00    -0.338 OA
HETATM    3  O2  UNK     1      26.897  -5.172  38.956  1.00  0.00    -0.292 OA
HETATM    4  C1  UNK     1      29.807  -6.054  37.053  1.00  0.00     0.169 C 
HETATM    5  C2  UNK     1      29.092  -5.085  37.991  1.00  0.00     0.121 C 
HETATM    6  C4  UNK     1      27.900  -5.779  38.599  1.00  0.00     0.165 C 
HETATM    7  C5  UNK     1      28.037  -7.234  38.810  1.00  0.00     0.045 A 
HETATM    8  C6  UNK     1      29.209  -7.874  38.395  1.00  0.00     0.105 A 
HETATM    9  C9  UNK     1      27.029  -7.956  39.453  1.00  0.00     0.018 A 
HETATM   10  C10 UNK     1      29.386  -9.234  38.657  1.00  0.00     0.068 A 
HETATM   11  C14 UNK     1      27.204  -9.319  39.695  1.00  0.00     0.003 A 
HETATM   12  C15 UNK     1      28.381  -9.956  39.302  1.00  0.00     0.027 A 
ENDROOT
BRANCH   4  13
HETATM   13  C3  UNK     1      31.021  -5.405  36.420  1.00  0.00    -0.029 A 
HETATM   14  C7  UNK     1      31.704  -6.056  35.393  1.00  0.00     0.010 A 
HETATM   15  C12 UNK     1      32.822  -5.458  34.810  1.00  0.00     0.007 A 
HETATM   16  C11 UNK     1      33.256  -4.209  35.256  1.00  0.00    -0.062 A 
HETATM   17  C13 UNK     1      32.572  -3.558  36.281  1.00  0.00     0.007 A 
HETATM   18  C16 UNK     1      34.450  -3.571  34.633  1.00  0.00     0.048 C 
HETATM   19  C8  UNK     1      31.454  -4.156  36.864  1.00  0.00     0.010 A 
ENDBRANCH   4  13
TORSDOF 1
ENDMDL
MODEL 8
REMARK VINA RESULT:      -7.5      7.849     10.200
REMARK  1 active torsions:
REMARK  status: ('A' for Active; 'I' for Inactive)
REMARK    1  A    between atoms: C1_4  and  C3_6 
ROOT
HETATM    1 Cl1  UNK     1      17.688  11.432  34.198  1.00  0.00    -0.081 Cl
HETATM    2  O1  UNK     1      17.365   8.836  32.888  1.00  0.00    -0.338 OA
HETATM    3  O2  UNK     1      13.850   6.950  31.934  1.00  0.00    -0.292 OA
HETATM    4  C1  UNK     1      17.310   7.407  32.765  1.00  0.00     0.169 C 
HETATM    5  C2  UNK     1      16.242   6.984  31.759  1.00  0.00     0.121 C 
HETATM    6  C4  UNK     1      14.904   7.509  32.211  1.00  0.00     0.165 C 
HETATM    7  C5  UNK     1      14.927   8.787  32.950  1.00  0.00     0.045 A 
HETATM    8  C6  UNK     1      16.158   9.390  33.227  1.00  0.00     0.105 A 
HETATM    9  C9  UNK     1      13.736   9.409  33.331  1.00  0.00     0.018 A 
HETATM   10  C10 UNK     1      16.194  10.636  33.857  1.00  0.00     0.068 A 
HETATM   11  C14 UNK     1      13.779  10.645  33.977  1.00  0.00     0.003 A 
HETATM   12  C15 UNK     1      15.005  11.259  34.236  1.00  0.00     0.027 A 
ENDROOT
BRANCH   4  13
HETATM   13  C3  UNK     1      18.678   6.908  32.351  1.00  0.00    -0.029 A 
HETATM   14  C7  UNK     1      19.760   7.035  33.221  1.00  0.00     0.010 A 
HETATM   15  C12 UNK     1      21.021   6.576  32.840  1.00  0.00     0.007 A 
HETATM   16  C11 UNK     1      21.199   5.989  31.587  1.00  0.00    -0.062 A 
HETATM   17  C13 UNK     1      20.117   5.860  30.717  1.00  0.00     0.007 A 
HETATM   18  C16 UNK     1      22.546   5.498  31.179  1.00  0.00     0.048 C 
HETATM   19  C8  UNK     1      18.856   6.320  31.099  1.00  0.00     0.010 A 
ENDBRANCH   4  13
TORSDOF 1
ENDMDL
MODEL 9
REMARK VINA RESULT:      -7.5     13.435     14.646
REMARK  1 active torsions:
REMARK  status: ('A' for Active; 'I' for Inactive)
REMARK    1  A    between atoms: C1_4  and  C3_6 
ROOT
HETATM    1 Cl1  UNK     1      33.635  -8.217  35.006  1.00  0.00    -0.081 Cl
HETATM    2  O1  UNK     1      31.722  -6.558  36.472  1.00  0.00    -0.338 OA
HETATM    3  O2  UNK     1      31.648  -2.463  36.706  1.00  0.00    -0.292 OA
HETATM    4  C1  UNK     1      31.124  -5.898  37.598  1.00  0.00     0.169 C 
HETATM    5  C2  UNK     1      30.553  -4.539  37.198  1.00  0.00     0.121 C 
HETATM    6  C4  UNK     1      31.660  -3.685  36.637  1.00  0.00     0.165 C 
HETATM    7  C5  UNK     1      32.735  -4.407  35.926  1.00  0.00     0.045 A 
HETATM    8  C6  UNK     1      32.693  -5.803  35.865  1.00  0.00     0.105 A 
HETATM    9  C9  UNK     1      33.759  -3.704  35.286  1.00  0.00     0.018 A 
HETATM   10  C10 UNK     1      33.659  -6.495  35.132  1.00  0.00     0.068 A 
HETATM   11  C14 UNK     1      34.733  -4.402  34.571  1.00  0.00     0.003 A 
HETATM   12  C15 UNK     1      34.680  -5.794  34.490  1.00  0.00     0.027 A 
ENDROOT
BRANCH   4  13
HETATM   13  C3  UNK     1      30.046  -6.798  38.164  1.00  0.00    -0.029 A 
HETATM   14  C7  UNK     1      30.087  -8.171  37.924  1.00  0.00     0.010 A 
HETATM   15  C12 UNK     1      29.093  -9.001  38.445  1.00  0.00     0.007 A 
HETATM   16  C11 UNK     1      28.059  -8.456  39.206  1.00  0.00    -0.062 A 
HETATM   17  C13 UNK     1      28.018  -7.083  39.447  1.00  0.00     0.007 A 
HETATM   18  C16 UNK     1      26.997  -9.343  39.762  1.00  0.00     0.048 C 
HETATM   19  C8  UNK     1      29.012  -6.254  38.925  1.00  0.00     0.010 A 
ENDBRANCH   4  13
TORSDOF 1
ENDMDL
MODEL 10
REMARK VINA RESULT:      -7.2     11.369     13.472
REMARK  1 active torsions:
REMARK  status: ('A' for Active; 'I' for Inactive)
REMARK    1  A    between atoms: C1_4  and  C3_6 
ROOT
HETATM    1 Cl1  UNK     1      26.085  -8.996  37.292  1.00  0.00    -0.081 Cl
HETATM    2  O1  UNK     1      27.985  -7.706  35.478  1.00  0.00    -0.338 OA
HETATM    3  O2  UNK     1      30.906  -4.995  36.451  1.00  0.00    -0.292 OA
HETATM    4  C1  UNK     1      28.465  -6.765  34.506  1.00  0.00     0.169 C 
HETATM    5  C2  UNK     1      29.924  -6.398  34.771  1.00  0.00     0.121 C 
HETATM    6  C4  UNK     1      30.039  -5.808  36.153  1.00  0.00     0.165 C 
HETATM    7  C5  UNK     1      29.088  -6.324  37.158  1.00  0.00     0.045 A 
HETATM    8  C6  UNK     1      28.127  -7.262  36.767  1.00  0.00     0.105 A 
HETATM    9  C9  UNK     1      29.172  -5.914  38.491  1.00  0.00     0.018 A 
HETATM   10  C10 UNK     1      27.271  -7.816  37.720  1.00  0.00     0.068 A 
HETATM   11  C14 UNK     1      28.300  -6.457  39.435  1.00  0.00     0.003 A 
HETATM   12  C15 UNK     1      27.355  -7.409  39.052  1.00  0.00     0.027 A 
ENDROOT
BRANCH   4  13
HETATM   13  C3  UNK     1      28.296  -7.370  33.128  1.00  0.00    -0.029 A 
HETATM   14  C7  UNK     1      27.625  -6.662  32.132  1.00  0.00     0.010 A 
HETATM   15  C12 UNK     1      27.469  -7.221  30.863  1.00  0.00     0.007 A 
HETATM   16  C11 UNK     1      27.985  -8.488  30.591  1.00  0.00    -0.062 A 
HETATM   17  C13 UNK     1      28.658  -9.196  31.587  1.00  0.00     0.007 A 
HETATM   18  C16 UNK     1      27.819  -9.085  29.235  1.00  0.00     0.048 C 
HETATM   19  C8  UNK     1      28.813  -8.637  32.856  1.00  0.00     0.010 A 
ENDBRANCH   4  13
TORSDOF 1
ENDMDL
