MODEL 1
REMARK VINA RESULT:      -8.8      0.000      0.000
REMARK  3 active torsions:
REMARK  status: ('A' for Active; 'I' for Inactive)
REMARK    1  A    between atoms: C6_14  and  S1_1 
REMARK    2  A    between atoms: N1_7  and  S1_1 
REMARK    3  A    between atoms: C5_13  and  N2_8 
ROOT
HETATM    1  S1  UNK     1      18.933   7.108  33.661  1.00  0.00     0.243 S 
HETATM    2  O1  UNK     1      20.044   7.927  33.228  1.00  0.00    -0.206 OA
HETATM    3  O2  UNK     1      18.884   6.563  35.000  1.00  0.00    -0.206 OA
ENDROOT
BRANCH   1   4
HETATM    4  C6  UNK     1      17.448   8.025  33.393  1.00  0.00     0.075 A 
HETATM    5  C7  UNK     1      16.950   8.820  34.416  1.00  0.00     0.039 A 
HETATM    6  C11 UNK     1      15.776   9.548  34.207  1.00  0.00    -0.001 A 
HETATM    7  C13 UNK     1      15.136   9.453  32.975  1.00  0.00     0.089 A 
HETATM    8  C17 UNK     1      15.199  10.400  35.233  1.00  0.00     0.020 A 
HETATM    9  C12 UNK     1      15.637   8.655  31.948  1.00  0.00     0.040 A 
HETATM   10  O3  UNK     1      13.949  10.171  32.726  1.00  0.00    -0.275 OA
HETATM   11  C8  UNK     1      16.808   7.933  32.164  1.00  0.00     0.027 A 
HETATM   12  C19 UNK     1      13.378  10.993  33.692  1.00  0.00     0.288 A 
HETATM   13  C18 UNK     1      14.074  11.077  34.989  1.00  0.00     0.083 A 
HETATM   14  O4  UNK     1      12.346  11.622  33.482  1.00  0.00    -0.260 OA
ENDBRANCH   1   4
BRANCH   1  15
HETATM   15  N1  UNK     1      18.704   5.836  32.535  1.00  0.00    -0.203 NA
HETATM   16  C1  UNK     1      19.742   5.730  31.471  1.00  0.00     0.127 C 
HETATM   17  C3  UNK     1      19.241   4.809  30.362  1.00  0.00     0.138 C 
HETATM   18  N2  UNK     1      18.837   3.510  30.920  1.00  0.00    -0.379 N 
HETATM   19  C4  UNK     1      17.893   3.562  32.041  1.00  0.00     0.138 C 
HETATM   20  C2  UNK     1      18.409   4.503  33.128  1.00  0.00     0.127 C 
BRANCH  18  21
HETATM   21  C5  UNK     1      18.830   2.407  30.059  1.00  0.00     0.030 A 
HETATM   22  C10 UNK     1      19.719   1.332  30.249  1.00  0.00     0.032 A 
HETATM   23  C15 UNK     1      19.712   0.233  29.391  1.00  0.00     0.044 A 
HETATM   24  C16 UNK     1      18.814   0.187  28.325  1.00  0.00     0.116 A 
HETATM   25  C14 UNK     1      17.922   1.240  28.117  1.00  0.00     0.044 A 
HETATM   26  F1  UNK     1      18.806  -0.870  27.500  1.00  0.00    -0.206 F 
HETATM   27  C9  UNK     1      17.931   2.339  28.976  1.00  0.00     0.032 A 
ENDBRANCH  18  21
ENDBRANCH   1  15
TORSDOF 3
ENDMDL
MODEL 2
REMARK VINA RESULT:      -8.7     22.271     23.923
REMARK  3 active torsions:
REMARK  status: ('A' for Active; 'I' for Inactive)
REMARK    1  A    between atoms: C6_14  and  S1_1 
REMARK    2  A    between atoms: N1_7  and  S1_1 
REMARK    3  A    between atoms: C5_13  and  N2_8 
ROOT
HETATM    1  S1  UNK     1       8.403   6.400   8.163  1.00  0.00     0.243 S 
HETATM    2  O1  UNK     1       8.433   5.366   7.152  1.00  0.00    -0.206 OA
HETATM    3  O2  UNK     1       7.875   7.715   7.872  1.00  0.00    -0.206 OA
ENDROOT
BRANCH   1   4
HETATM    4  C6  UNK     1       7.533   5.763   9.561  1.00  0.00     0.075 A 
HETATM    5  C7  UNK     1       7.144   4.430   9.567  1.00  0.00     0.039 A 
HETATM    6  C11 UNK     1       6.456   3.923  10.672  1.00  0.00    -0.001 A 
HETATM    7  C13 UNK     1       6.178   4.772  11.739  1.00  0.00     0.089 A 
HETATM    8  C17 UNK     1       6.020   2.539  10.745  1.00  0.00     0.020 A 
HETATM    9  C12 UNK     1       6.567   6.110  11.732  1.00  0.00     0.040 A 
HETATM   10  O3  UNK     1       5.484   4.298  12.871  1.00  0.00    -0.275 OA
HETATM   11  C8  UNK     1       7.254   6.608  10.627  1.00  0.00     0.027 A 
HETATM   12  C19 UNK     1       5.058   2.978  12.964  1.00  0.00     0.288 A 
HETATM   13  C18 UNK     1       5.365   2.098  11.821  1.00  0.00     0.083 A 
HETATM   14  O4  UNK     1       4.455   2.557  13.946  1.00  0.00    -0.260 OA
ENDBRANCH   1   4
BRANCH   1  15
HETATM   15  N1  UNK     1       9.969   6.567   8.839  1.00  0.00    -0.203 NA
HETATM   16  C1  UNK     1      10.886   5.413   8.618  1.00  0.00     0.127 C 
HETATM   17  C3  UNK     1      12.091   5.536   9.546  1.00  0.00     0.138 C 
HETATM   18  N2  UNK     1      12.740   6.844   9.372  1.00  0.00    -0.379 N 
HETATM   19  C4  UNK     1      11.860   8.013   9.477  1.00  0.00     0.138 C 
HETATM   20  C2  UNK     1      10.655   7.857   8.552  1.00  0.00     0.127 C 
BRANCH  18  21
HETATM   21  C5  UNK     1      14.086   6.956   9.737  1.00  0.00     0.030 A 
HETATM   22  C10 UNK     1      15.040   6.025   9.284  1.00  0.00     0.032 A 
HETATM   23  C15 UNK     1      16.381   6.136   9.647  1.00  0.00     0.044 A 
HETATM   24  C16 UNK     1      16.796   7.181  10.473  1.00  0.00     0.116 A 
HETATM   25  C14 UNK     1      15.868   8.115  10.934  1.00  0.00     0.044 A 
HETATM   26  F1  UNK     1      18.085   7.287  10.823  1.00  0.00    -0.206 F 
HETATM   27  C9  UNK     1      14.526   8.004  10.570  1.00  0.00     0.032 A 
ENDBRANCH  18  21
ENDBRANCH   1  15
TORSDOF 3
ENDMDL
MODEL 3
REMARK VINA RESULT:      -8.4     21.898     23.434
REMARK  3 active torsions:
REMARK  status: ('A' for Active; 'I' for Inactive)
REMARK    1  A    between atoms: C6_14  and  S1_1 
REMARK    2  A    between atoms: N1_7  and  S1_1 
REMARK    3  A    between atoms: C5_13  and  N2_8 
ROOT
HETATM    1  S1  UNK     1       8.155   6.179   8.410  1.00  0.00     0.243 S 
HETATM    2  O1  UNK     1       8.154   5.060   7.492  1.00  0.00    -0.206 OA
HETATM    3  O2  UNK     1       7.606   7.460   8.026  1.00  0.00    -0.206 OA
ENDROOT
BRANCH   1   4
HETATM    4  C6  UNK     1       7.346   5.662   9.892  1.00  0.00     0.075 A 
HETATM    5  C7  UNK     1       7.001   6.614  10.842  1.00  0.00     0.039 A 
HETATM    6  C11 UNK     1       6.360   6.209  12.015  1.00  0.00    -0.001 A 
HETATM    7  C13 UNK     1       6.085   4.857  12.198  1.00  0.00     0.089 A 
HETATM    8  C17 UNK     1       5.972   7.150  13.051  1.00  0.00     0.020 A 
HETATM    9  C12 UNK     1       6.431   3.902  11.244  1.00  0.00     0.040 A 
HETATM   10  O3  UNK     1       5.440   4.409  13.369  1.00  0.00    -0.275 OA
HETATM   11  C8  UNK     1       7.069   4.314  10.077  1.00  0.00     0.027 A 
HETATM   12  C19 UNK     1       5.059   5.291  14.374  1.00  0.00     0.288 A 
HETATM   13  C18 UNK     1       5.361   6.717  14.157  1.00  0.00     0.083 A 
HETATM   14  O4  UNK     1       4.496   4.909  15.395  1.00  0.00    -0.260 OA
ENDBRANCH   1   4
BRANCH   1  15
HETATM   15  N1  UNK     1       9.745   6.411   9.005  1.00  0.00    -0.203 NA
HETATM   16  C1  UNK     1      10.650   5.232   8.890  1.00  0.00     0.127 C 
HETATM   17  C3  UNK     1      11.887   5.455   9.755  1.00  0.00     0.138 C 
HETATM   18  N2  UNK     1      12.534   6.727   9.404  1.00  0.00    -0.379 N 
HETATM   19  C4  UNK     1      11.663   7.907   9.401  1.00  0.00     0.138 C 
HETATM   20  C2  UNK     1      10.425   7.653   8.544  1.00  0.00     0.127 C 
BRANCH  18  21
HETATM   21  C5  UNK     1      13.894   6.870   9.707  1.00  0.00     0.030 A 
HETATM   22  C10 UNK     1      14.808   5.833   9.443  1.00  0.00     0.032 A 
HETATM   23  C15 UNK     1      16.162   5.975   9.744  1.00  0.00     0.044 A 
HETATM   24  C16 UNK     1      16.629   7.159  10.315  1.00  0.00     0.116 A 
HETATM   25  C14 UNK     1      15.741   8.201  10.584  1.00  0.00     0.044 A 
HETATM   26  F1  UNK     1      17.930   7.296  10.604  1.00  0.00    -0.206 F 
HETATM   27  C9  UNK     1      14.386   8.058  10.283  1.00  0.00     0.032 A 
ENDBRANCH  18  21
ENDBRANCH   1  15
TORSDOF 3
ENDMDL
MODEL 4
REMARK VINA RESULT:      -8.4      4.937      8.909
REMARK  3 active torsions:
REMARK  status: ('A' for Active; 'I' for Inactive)
REMARK    1  A    between atoms: C6_14  and  S1_1 
REMARK    2  A    between atoms: N1_7  and  S1_1 
REMARK    3  A    between atoms: C5_13  and  N2_8 
ROOT
HETATM    1  S1  UNK     1      18.307   2.831  31.264  1.00  0.00     0.243 S 
HETATM    2  O1  UNK     1      19.487   2.597  30.460  1.00  0.00    -0.206 OA
HETATM    3  O2  UNK     1      16.984   2.786  30.680  1.00  0.00    -0.206 OA
ENDROOT
BRANCH   1   4
HETATM    4  C6  UNK     1      18.343   1.700  32.619  1.00  0.00     0.075 A 
HETATM    5  C7  UNK     1      18.050   2.162  33.895  1.00  0.00     0.039 A 
HETATM    6  C11 UNK     1      18.077   1.269  34.969  1.00  0.00    -0.001 A 
HETATM    7  C13 UNK     1      18.398  -0.064  34.727  1.00  0.00     0.089 A 
HETATM    8  C17 UNK     1      17.782   1.683  36.330  1.00  0.00     0.020 A 
HETATM    9  C12 UNK     1      18.692  -0.527  33.446  1.00  0.00     0.040 A 
HETATM   10  O3  UNK     1      18.437  -0.995  35.785  1.00  0.00    -0.275 OA
HETATM   11  C8  UNK     1      18.662   0.370  32.381  1.00  0.00     0.027 A 
HETATM   12  C19 UNK     1      18.158  -0.622  37.095  1.00  0.00     0.288 A 
HETATM   13  C18 UNK     1      17.820   0.795  37.325  1.00  0.00     0.083 A 
HETATM   14  O4  UNK     1      18.188  -1.427  38.021  1.00  0.00    -0.260 OA
ENDBRANCH   1   4
BRANCH   1  15
HETATM   15  N1  UNK     1      18.491   4.311  32.108  1.00  0.00    -0.203 NA
HETATM   16  C1  UNK     1      19.586   5.196  31.617  1.00  0.00     0.127 C 
HETATM   17  C3  UNK     1      19.862   6.284  32.649  1.00  0.00     0.138 C 
HETATM   18  N2  UNK     1      18.624   7.008  32.974  1.00  0.00    -0.379 N 
HETATM   19  C4  UNK     1      17.481   6.175  33.365  1.00  0.00     0.138 C 
HETATM   20  C2  UNK     1      17.237   5.084  32.325  1.00  0.00     0.127 C 
BRANCH  18  21
HETATM   21  C5  UNK     1      18.744   8.305  33.487  1.00  0.00     0.030 A 
HETATM   22  C10 UNK     1      17.659   9.201  33.453  1.00  0.00     0.032 A 
HETATM   23  C15 UNK     1      17.778  10.493  33.965  1.00  0.00     0.044 A 
HETATM   24  C16 UNK     1      18.986  10.914  34.520  1.00  0.00     0.116 A 
HETATM   25  C14 UNK     1      20.075  10.042  34.565  1.00  0.00     0.044 A 
HETATM   26  F1  UNK     1      19.101  12.155  35.012  1.00  0.00    -0.206 F 
HETATM   27  C9  UNK     1      19.954   8.750  34.053  1.00  0.00     0.032 A 
ENDBRANCH  18  21
ENDBRANCH   1  15
TORSDOF 3
ENDMDL
MODEL 5
REMARK VINA RESULT:      -8.4      4.374      8.867
REMARK  3 active torsions:
REMARK  status: ('A' for Active; 'I' for Inactive)
REMARK    1  A    between atoms: C6_14  and  S1_1 
REMARK    2  A    between atoms: N1_7  and  S1_1 
REMARK    3  A    between atoms: C5_13  and  N2_8 
ROOT
HETATM    1  S1  UNK     1      19.041   6.200  31.437  1.00  0.00     0.243 S 
HETATM    2  O1  UNK     1      20.317   6.598  31.991  1.00  0.00    -0.206 OA
HETATM    3  O2  UNK     1      18.806   6.224  30.010  1.00  0.00    -0.206 OA
ENDROOT
BRANCH   1   4
HETATM    4  C6  UNK     1      18.684   4.571  32.019  1.00  0.00     0.075 A 
HETATM    5  C7  UNK     1      18.604   4.343  33.386  1.00  0.00     0.039 A 
HETATM    6  C11 UNK     1      18.321   3.056  33.850  1.00  0.00    -0.001 A 
HETATM    7  C13 UNK     1      18.129   2.035  32.924  1.00  0.00     0.089 A 
HETATM    8  C17 UNK     1      18.223   2.747  35.266  1.00  0.00     0.020 A 
HETATM    9  C12 UNK     1      18.210   2.264  31.552  1.00  0.00     0.040 A 
HETATM   10  O3  UNK     1      17.843   0.723  33.353  1.00  0.00    -0.275 OA
HETATM   11  C8  UNK     1      18.491   3.551  31.098  1.00  0.00     0.027 A 
HETATM   12  C19 UNK     1      17.743   0.403  34.702  1.00  0.00     0.288 A 
HETATM   13  C18 UNK     1      17.951   1.502  35.663  1.00  0.00     0.083 A 
HETATM   14  O4  UNK     1      17.493  -0.736  35.083  1.00  0.00    -0.260 OA
ENDBRANCH   1   4
BRANCH   1  15
HETATM   15  N1  UNK     1      17.794   7.075  32.220  1.00  0.00    -0.203 NA
HETATM   16  C1  UNK     1      18.250   8.076  33.226  1.00  0.00     0.127 C 
HETATM   17  C3  UNK     1      17.064   8.517  34.078  1.00  0.00     0.138 C 
HETATM   18  N2  UNK     1      15.971   9.002  33.222  1.00  0.00    -0.379 N 
HETATM   19  C4  UNK     1      15.552   8.095  32.148  1.00  0.00     0.138 C 
HETATM   20  C2  UNK     1      16.758   7.655  31.321  1.00  0.00     0.127 C 
BRANCH  18  21
HETATM   21  C5  UNK     1      15.041   9.880  33.790  1.00  0.00     0.030 A 
HETATM   22  C10 UNK     1      15.072  10.180  35.165  1.00  0.00     0.032 A 
HETATM   23  C15 UNK     1      14.146  11.055  35.731  1.00  0.00     0.044 A 
HETATM   24  C16 UNK     1      13.169  11.648  34.932  1.00  0.00     0.116 A 
HETATM   25  C14 UNK     1      13.119  11.366  33.566  1.00  0.00     0.044 A 
HETATM   26  F1  UNK     1      12.279  12.490  35.475  1.00  0.00    -0.206 F 
HETATM   27  C9  UNK     1      14.046  10.491  33.001  1.00  0.00     0.032 A 
ENDBRANCH  18  21
ENDBRANCH   1  15
TORSDOF 3
ENDMDL
MODEL 6
REMARK VINA RESULT:      -8.4      5.034      9.500
REMARK  3 active torsions:
REMARK  status: ('A' for Active; 'I' for Inactive)
REMARK    1  A    between atoms: C6_14  and  S1_1 
REMARK    2  A    between atoms: N1_7  and  S1_1 
REMARK    3  A    between atoms: C5_13  and  N2_8 
ROOT
HETATM    1  S1  UNK     1      18.611   1.820  29.732  1.00  0.00     0.243 S 
HETATM    2  O1  UNK     1      19.513   1.861  28.601  1.00  0.00    -0.206 OA
HETATM    3  O2  UNK     1      17.189   1.631  29.548  1.00  0.00    -0.206 OA
ENDROOT
BRANCH   1   4
HETATM    4  C6  UNK     1      19.187   0.568  30.836  1.00  0.00     0.075 A 
HETATM    5  C7  UNK     1      18.646   0.489  32.112  1.00  0.00     0.039 A 
HETATM    6  C11 UNK     1      19.098  -0.501  32.988  1.00  0.00    -0.001 A 
HETATM    7  C13 UNK     1      20.084  -1.382  32.554  1.00  0.00     0.089 A 
HETATM    8  C17 UNK     1      18.577  -0.641  34.336  1.00  0.00     0.020 A 
HETATM    9  C12 UNK     1      20.628  -1.302  31.273  1.00  0.00     0.040 A 
HETATM   10  O3  UNK     1      20.568  -2.394  33.408  1.00  0.00    -0.275 OA
HETATM   11  C8  UNK     1      20.170  -0.313  30.406  1.00  0.00     0.027 A 
HETATM   12  C19 UNK     1      20.083  -2.548  34.703  1.00  0.00     0.288 A 
HETATM   13  C18 UNK     1      19.039  -1.602  35.139  1.00  0.00     0.083 A 
HETATM   14  O4  UNK     1      20.498  -3.426  35.452  1.00  0.00    -0.260 OA
ENDBRANCH   1   4
BRANCH   1  15
HETATM   15  N1  UNK     1      18.866   3.210  30.701  1.00  0.00    -0.203 NA
HETATM   16  C1  UNK     1      19.181   4.461  29.954  1.00  0.00     0.127 C 
HETATM   17  C3  UNK     1      19.719   5.510  30.923  1.00  0.00     0.138 C 
HETATM   18  N2  UNK     1      18.778   5.711  32.034  1.00  0.00    -0.379 N 
HETATM   19  C4  UNK     1      18.353   4.497  32.739  1.00  0.00     0.138 C 
HETATM   20  C2  UNK     1      17.836   3.458  31.747  1.00  0.00     0.127 C 
BRANCH  18  21
HETATM   21  C5  UNK     1      18.836   6.929  32.722  1.00  0.00     0.030 A 
HETATM   22  C10 UNK     1      19.961   7.271  33.496  1.00  0.00     0.032 A 
HETATM   23  C15 UNK     1      20.019   8.483  34.182  1.00  0.00     0.044 A 
HETATM   24  C16 UNK     1      18.952   9.378  34.108  1.00  0.00     0.116 A 
HETATM   25  C14 UNK     1      17.827   9.060  33.346  1.00  0.00     0.044 A 
HETATM   26  F1  UNK     1      19.007  10.544  34.767  1.00  0.00    -0.206 F 
HETATM   27  C9  UNK     1      17.769   7.847  32.660  1.00  0.00     0.032 A 
ENDBRANCH  18  21
ENDBRANCH   1  15
TORSDOF 3
ENDMDL
MODEL 7
REMARK VINA RESULT:      -8.3      7.869     10.921
REMARK  3 active torsions:
REMARK  status: ('A' for Active; 'I' for Inactive)
REMARK    1  A    between atoms: C6_14  and  S1_1 
REMARK    2  A    between atoms: N1_7  and  S1_1 
REMARK    3  A    between atoms: C5_13  and  N2_8 
ROOT
HETATM    1  S1  UNK     1      18.142   0.014  35.606  1.00  0.00     0.243 S 
HETATM    2  O1  UNK     1      18.925   0.991  36.331  1.00  0.00    -0.206 OA
HETATM    3  O2  UNK     1      16.698  -0.004  35.699  1.00  0.00    -0.206 OA
ENDROOT
BRANCH   1   4
HETATM    4  C6  UNK     1      18.575   0.134  33.899  1.00  0.00     0.075 A 
HETATM    5  C7  UNK     1      19.066  -0.988  33.245  1.00  0.00     0.039 A 
HETATM    6  C11 UNK     1      19.410  -0.897  31.894  1.00  0.00    -0.001 A 
HETATM    7  C13 UNK     1      19.250   0.322  31.240  1.00  0.00     0.089 A 
HETATM    8  C17 UNK     1      19.929  -2.030  31.148  1.00  0.00     0.020 A 
HETATM    9  C12 UNK     1      18.757   1.447  31.897  1.00  0.00     0.040 A 
HETATM   10  O3  UNK     1      19.586   0.454  29.878  1.00  0.00    -0.275 OA
HETATM   11  C8  UNK     1      18.416   1.347  33.244  1.00  0.00     0.027 A 
HETATM   12  C19 UNK     1      20.085  -0.617  29.143  1.00  0.00     0.288 A 
HETATM   13  C18 UNK     1      20.245  -1.896  29.857  1.00  0.00     0.083 A 
HETATM   14  O4  UNK     1      20.378  -0.510  27.957  1.00  0.00    -0.260 OA
ENDBRANCH   1   4
BRANCH   1  15
HETATM   15  N1  UNK     1      18.741  -1.553  35.956  1.00  0.00    -0.203 NA
HETATM   16  C1  UNK     1      20.179  -1.616  36.343  1.00  0.00     0.127 C 
HETATM   17  C3  UNK     1      20.659  -3.063  36.283  1.00  0.00     0.138 C 
HETATM   18  N2  UNK     1      19.793  -3.924  37.101  1.00  0.00    -0.379 N 
HETATM   19  C4  UNK     1      18.354  -3.824  36.831  1.00  0.00     0.138 C 
HETATM   20  C2  UNK     1      17.903  -2.366  36.880  1.00  0.00     0.127 C 
BRANCH  18  21
HETATM   21  C5  UNK     1      20.328  -5.131  37.566  1.00  0.00     0.030 A 
HETATM   22  C10 UNK     1      19.557  -6.309  37.581  1.00  0.00     0.032 A 
HETATM   23  C15 UNK     1      20.090  -7.511  38.044  1.00  0.00     0.044 A 
HETATM   24  C16 UNK     1      21.406  -7.559  38.502  1.00  0.00     0.116 A 
HETATM   25  C14 UNK     1      22.190  -6.404  38.497  1.00  0.00     0.044 A 
HETATM   26  F1  UNK     1      21.919  -8.714  38.947  1.00  0.00    -0.206 F 
HETATM   27  C9  UNK     1      21.655  -5.202  38.033  1.00  0.00     0.032 A 
ENDBRANCH  18  21
ENDBRANCH   1  15
TORSDOF 3
ENDMDL
MODEL 8
REMARK VINA RESULT:      -8.3     19.527     22.404
REMARK  3 active torsions:
REMARK  status: ('A' for Active; 'I' for Inactive)
REMARK    1  A    between atoms: C6_14  and  S1_1 
REMARK    2  A    between atoms: N1_7  and  S1_1 
REMARK    3  A    between atoms: C5_13  and  N2_8 
ROOT
HETATM    1  S1  UNK     1      34.629  -5.185  35.704  1.00  0.00     0.243 S 
HETATM    2  O1  UNK     1      35.568  -5.068  36.799  1.00  0.00    -0.206 OA
HETATM    3  O2  UNK     1      34.188  -4.018  34.971  1.00  0.00    -0.206 OA
ENDROOT
BRANCH   1   4
HETATM    4  C6  UNK     1      35.293  -6.337  34.543  1.00  0.00     0.075 A 
HETATM    5  C7  UNK     1      34.578  -6.622  33.387  1.00  0.00     0.039 A 
HETATM    6  C11 UNK     1      35.101  -7.533  32.466  1.00  0.00    -0.001 A 
HETATM    7  C13 UNK     1      36.329  -8.131  32.735  1.00  0.00     0.089 A 
HETATM    8  C17 UNK     1      34.407  -7.878  31.237  1.00  0.00     0.020 A 
HETATM    9  C12 UNK     1      37.046  -7.844  33.895  1.00  0.00     0.040 A 
HETATM   10  O3  UNK     1      36.889  -9.056  31.831  1.00  0.00    -0.275 OA
HETATM   11  C8  UNK     1      36.518  -6.935  34.808  1.00  0.00     0.027 A 
HETATM   12  C19 UNK     1      36.244  -9.401  30.648  1.00  0.00     0.288 A 
HETATM   13  C18 UNK     1      34.945  -8.754  30.386  1.00  0.00     0.083 A 
HETATM   14  O4  UNK     1      36.726 -10.204  29.855  1.00  0.00    -0.260 OA
ENDBRANCH   1   4
BRANCH   1  15
HETATM   15  N1  UNK     1      33.255  -6.059  36.237  1.00  0.00    -0.203 NA
HETATM   16  C1  UNK     1      33.436  -6.824  37.503  1.00  0.00     0.127 C 
HETATM   17  C3  UNK     1      32.284  -7.811  37.669  1.00  0.00     0.138 C 
HETATM   18  N2  UNK     1      30.994  -7.111  37.586  1.00  0.00    -0.379 N 
HETATM   19  C4  UNK     1      30.805  -6.259  36.407  1.00  0.00     0.138 C 
HETATM   20  C2  UNK     1      31.977  -5.294  36.253  1.00  0.00     0.127 C 
BRANCH  18  21
HETATM   21  C5  UNK     1      29.885  -7.717  38.188  1.00  0.00     0.030 A 
HETATM   22  C10 UNK     1      28.887  -6.945  38.814  1.00  0.00     0.032 A 
HETATM   23  C15 UNK     1      27.783  -7.548  39.414  1.00  0.00     0.044 A 
HETATM   24  C16 UNK     1      27.654  -8.937  39.400  1.00  0.00     0.116 A 
HETATM   25  C14 UNK     1      28.630  -9.722  38.785  1.00  0.00     0.044 A 
HETATM   26  F1  UNK     1      26.592  -9.517  39.976  1.00  0.00    -0.206 F 
HETATM   27  C9  UNK     1      29.734  -9.118  38.185  1.00  0.00     0.032 A 
ENDBRANCH  18  21
ENDBRANCH   1  15
TORSDOF 3
ENDMDL
MODEL 9
REMARK VINA RESULT:      -8.3     16.853     18.617
REMARK  3 active torsions:
REMARK  status: ('A' for Active; 'I' for Inactive)
REMARK    1  A    between atoms: C6_14  and  S1_1 
REMARK    2  A    between atoms: N1_7  and  S1_1 
REMARK    3  A    between atoms: C5_13  and  N2_8 
ROOT
HETATM    1  S1  UNK     1      32.160  -6.495  38.107  1.00  0.00     0.243 S 
HETATM    2  O1  UNK     1      32.982  -5.399  38.573  1.00  0.00    -0.206 OA
HETATM    3  O2  UNK     1      32.338  -7.834  38.623  1.00  0.00    -0.206 OA
ENDROOT
BRANCH   1   4
HETATM    4  C6  UNK     1      30.470  -6.041  38.345  1.00  0.00     0.075 A 
HETATM    5  C7  UNK     1      29.495  -7.029  38.329  1.00  0.00     0.039 A 
HETATM    6  C11 UNK     1      28.157  -6.673  38.518  1.00  0.00    -0.001 A 
HETATM    7  C13 UNK     1      27.840  -5.332  38.717  1.00  0.00     0.089 A 
HETATM    8  C17 UNK     1      27.086  -7.654  38.513  1.00  0.00     0.020 A 
HETATM    9  C12 UNK     1      28.819  -4.341  38.732  1.00  0.00     0.040 A 
HETATM   10  O3  UNK     1      26.501  -4.933  38.909  1.00  0.00    -0.275 OA
HETATM   11  C8  UNK     1      30.150  -4.704  38.544  1.00  0.00     0.027 A 
HETATM   12  C19 UNK     1      25.459  -5.854  38.909  1.00  0.00     0.288 A 
HETATM   13  C18 UNK     1      25.821  -7.268  38.697  1.00  0.00     0.083 A 
HETATM   14  O4  UNK     1      24.293  -5.515  39.078  1.00  0.00    -0.260 OA
ENDBRANCH   1   4
BRANCH   1  15
HETATM   15  N1  UNK     1      32.215  -6.547  36.395  1.00  0.00    -0.203 NA
HETATM   16  C1  UNK     1      31.778  -7.832  35.780  1.00  0.00     0.127 C 
HETATM   17  C3  UNK     1      32.202  -7.864  34.315  1.00  0.00     0.138 C 
HETATM   18  N2  UNK     1      31.699  -6.675  33.610  1.00  0.00    -0.379 N 
HETATM   19  C4  UNK     1      32.014  -5.384  34.232  1.00  0.00     0.138 C 
HETATM   20  C2  UNK     1      31.596  -5.384  35.700  1.00  0.00     0.127 C 
BRANCH  18  21
HETATM   21  C5  UNK     1      31.549  -6.758  32.221  1.00  0.00     0.030 A 
HETATM   22  C10 UNK     1      30.477  -6.119  31.568  1.00  0.00     0.032 A 
HETATM   23  C15 UNK     1      30.328  -6.201  30.185  1.00  0.00     0.044 A 
HETATM   24  C16 UNK     1      31.249  -6.923  29.425  1.00  0.00     0.116 A 
HETATM   25  C14 UNK     1      32.319  -7.563  30.051  1.00  0.00     0.044 A 
HETATM   26  F1  UNK     1      31.106  -7.002  28.095  1.00  0.00    -0.206 F 
HETATM   27  C9  UNK     1      32.468  -7.481  31.435  1.00  0.00     0.032 A 
ENDBRANCH  18  21
ENDBRANCH   1  15
TORSDOF 3
ENDMDL
MODEL 10
REMARK VINA RESULT:      -8.2     18.280     21.044
REMARK  3 active torsions:
REMARK  status: ('A' for Active; 'I' for Inactive)
REMARK    1  A    between atoms: C6_14  and  S1_1 
REMARK    2  A    between atoms: N1_7  and  S1_1 
REMARK    3  A    between atoms: C5_13  and  N2_8 
ROOT
HETATM    1  S1  UNK     1      29.343  -9.540  32.037  1.00  0.00     0.243 S 
HETATM    2  O1  UNK     1      28.148  -9.126  31.335  1.00  0.00    -0.206 OA
HETATM    3  O2  UNK     1      29.506 -10.902  32.496  1.00  0.00    -0.206 OA
ENDROOT
BRANCH   1   4
HETATM    4  C6  UNK     1      30.732  -9.139  31.022  1.00  0.00     0.075 A 
HETATM    5  C7  UNK     1      31.814  -8.477  31.587  1.00  0.00     0.039 A 
HETATM    6  C11 UNK     1      32.914  -8.159  30.787  1.00  0.00    -0.001 A 
HETATM    7  C13 UNK     1      32.893  -8.515  29.442  1.00  0.00     0.089 A 
HETATM    8  C17 UNK     1      34.080  -7.467  31.311  1.00  0.00     0.020 A 
HETATM    9  C12 UNK     1      31.807  -9.178  28.876  1.00  0.00     0.040 A 
HETATM   10  O3  UNK     1      33.984  -8.209  28.602  1.00  0.00    -0.275 OA
HETATM   11  C8  UNK     1      30.714  -9.493  29.680  1.00  0.00     0.027 A 
HETATM   12  C19 UNK     1      35.110  -7.549  29.081  1.00  0.00     0.288 A 
HETATM   13  C18 UNK     1      35.109  -7.183  30.510  1.00  0.00     0.083 A 
HETATM   14  O4  UNK     1      36.064  -7.282  28.358  1.00  0.00    -0.260 OA
ENDBRANCH   1   4
BRANCH   1  15
HETATM   15  N1  UNK     1      29.617  -8.475  33.351  1.00  0.00    -0.203 NA
HETATM   16  C1  UNK     1      28.803  -7.226  33.342  1.00  0.00     0.127 C 
HETATM   17  C3  UNK     1      29.384  -6.233  34.344  1.00  0.00     0.138 C 
HETATM   18  N2  UNK     1      29.495  -6.853  35.673  1.00  0.00    -0.379 N 
HETATM   19  C4  UNK     1      30.199  -8.138  35.721  1.00  0.00     0.138 C 
HETATM   20  C2  UNK     1      29.611  -9.107  34.699  1.00  0.00     0.127 C 
BRANCH  18  21
HETATM   21  C5  UNK     1      29.524  -6.004  36.786  1.00  0.00     0.030 A 
HETATM   22  C10 UNK     1      28.709  -6.249  37.907  1.00  0.00     0.032 A 
HETATM   23  C15 UNK     1      28.738  -5.404  39.015  1.00  0.00     0.044 A 
HETATM   24  C16 UNK     1      29.584  -4.295  39.024  1.00  0.00     0.116 A 
HETATM   25  C14 UNK     1      30.401  -4.032  37.924  1.00  0.00     0.044 A 
HETATM   26  F1  UNK     1      29.613  -3.483  40.089  1.00  0.00    -0.206 F 
HETATM   27  C9  UNK     1      30.372  -4.878  36.816  1.00  0.00     0.032 A 
ENDBRANCH  18  21
ENDBRANCH   1  15
TORSDOF 3
ENDMDL
