MODEL 1
REMARK VINA RESULT:      -8.5      0.000      0.000
REMARK  6 active torsions:
REMARK  status: ('A' for Active; 'I' for Inactive)
REMARK    1  A    between atoms: C17_22  and  O2_2 
REMARK    2  A    between atoms: C8_13  and  O2_2 
REMARK    3  A    between atoms: C13_18  and  O3_3 
REMARK    4  A    between atoms: C20_25  and  O3_3 
REMARK    5  A    between atoms: C3_8  and  C4_9 
REMARK    6  A    between atoms: C17_22  and  C20_25 
ROOT
HETATM    1  O1  UNK     1      18.482   4.092  34.704  1.00  0.00    -0.309 OA
HETATM    2  O4  UNK     1      18.027   2.042  31.213  1.00  0.00    -0.287 OA
HETATM    3  C1  UNK     1      18.322   1.958  33.556  1.00  0.00     0.051 A 
HETATM    4  C2  UNK     1      18.472   2.719  34.713  1.00  0.00     0.090 A 
HETATM    5  C3  UNK     1      18.342   4.746  33.490  1.00  0.00     0.090 A 
HETATM    6  C5  UNK     1      18.320   0.563  33.624  1.00  0.00     0.055 A 
HETATM    7  C6  UNK     1      18.166   2.648  32.266  1.00  0.00     0.187 A 
HETATM    8  C7  UNK     1      18.185   4.124  32.310  1.00  0.00     0.093 A 
HETATM    9  C8  UNK     1      18.469  -0.065  34.861  1.00  0.00     0.070 A 
HETATM   10  C9  UNK     1      18.620   2.090  35.949  1.00  0.00     0.041 A 
HETATM   11  C10 UNK     1      18.618   0.696  36.021  1.00  0.00     0.039 A 
ENDROOT
BRANCH   9  12
HETATM   12  O2  UNK     1      18.466  -1.425  34.938  1.00  0.00    -0.342 OA
BRANCH  12  13
HETATM   13  C17 UNK     1      19.108  -2.012  36.069  1.00  0.00     0.286 C 
BRANCH  13  14
HETATM   14  C20 UNK     1      20.413  -2.618  35.625  1.00  0.00     0.283 C 
HETATM   15  O5  UNK     1      21.424  -1.985  35.349  1.00  0.00    -0.263 OA
BRANCH  14  16
HETATM   16  O3  UNK     1      20.281  -3.976  35.585  1.00  0.00    -0.315 OA
BRANCH  16  17
HETATM   17  C13 UNK     1      19.873  -4.593  36.810  1.00  0.00     0.123 C 
HETATM   18  C18 UNK     1      19.074  -5.849  36.497  1.00  0.00     0.040 C 
HETATM   19  C19 UNK     1      21.104  -4.899  37.650  1.00  0.00     0.040 C 
ENDBRANCH  16  17
ENDBRANCH  14  16
ENDBRANCH  13  14
ENDBRANCH  12  13
ENDBRANCH   9  12
BRANCH   5  20
HETATM   20  C4  UNK     1      18.358   6.218  33.596  1.00  0.00    -0.002 A 
HETATM   21  C11 UNK     1      17.215   6.958  33.283  1.00  0.00     0.015 A 
HETATM   22  C15 UNK     1      17.231   8.349  33.383  1.00  0.00     0.007 A 
HETATM   23  C14 UNK     1      18.390   9.005  33.796  1.00  0.00    -0.062 A 
HETATM   24  C16 UNK     1      19.533   8.270  34.108  1.00  0.00     0.007 A 
HETATM   25  C21 UNK     1      18.407  10.492  33.903  1.00  0.00     0.048 C 
HETATM   26  C12 UNK     1      19.518   6.880  34.008  1.00  0.00     0.015 A 
ENDBRANCH   5  20
TORSDOF 6
ENDMDL
MODEL 2
REMARK VINA RESULT:      -8.5      4.691      6.397
REMARK  6 active torsions:
REMARK  status: ('A' for Active; 'I' for Inactive)
REMARK    1  A    between atoms: C17_22  and  O2_2 
REMARK    2  A    between atoms: C8_13  and  O2_2 
REMARK    3  A    between atoms: C13_18  and  O3_3 
REMARK    4  A    between atoms: C20_25  and  O3_3 
REMARK    5  A    between atoms: C3_8  and  C4_9 
REMARK    6  A    between atoms: C17_22  and  C20_25 
ROOT
HETATM    1  O1  UNK     1      17.688   8.665  33.529  1.00  0.00    -0.309 OA
HETATM    2  O4  UNK     1      14.668   6.523  31.828  1.00  0.00    -0.287 OA
HETATM    3  C1  UNK     1      16.982   6.714  32.265  1.00  0.00     0.051 A 
HETATM    4  C2  UNK     1      17.967   7.493  32.870  1.00  0.00     0.090 A 
HETATM    5  C3  UNK     1      16.370   9.092  33.589  1.00  0.00     0.090 A 
HETATM    6  C5  UNK     1      17.323   5.530  31.608  1.00  0.00     0.055 A 
HETATM    7  C6  UNK     1      15.582   7.160  32.333  1.00  0.00     0.187 A 
HETATM    8  C7  UNK     1      15.335   8.426  33.052  1.00  0.00     0.093 A 
HETATM    9  C8  UNK     1      18.660   5.132  31.560  1.00  0.00     0.070 A 
HETATM   10  C9  UNK     1      19.302   7.092  32.821  1.00  0.00     0.041 A 
HETATM   11  C10 UNK     1      19.647   5.910  32.166  1.00  0.00     0.039 A 
ENDROOT
BRANCH   9  12
HETATM   12  O2  UNK     1      19.003   3.978  30.922  1.00  0.00    -0.342 OA
BRANCH  12  13
HETATM   13  C17 UNK     1      17.997   2.972  30.816  1.00  0.00     0.286 C 
BRANCH  13  14
HETATM   14  C20 UNK     1      18.184   2.233  29.517  1.00  0.00     0.283 C 
HETATM   15  O5  UNK     1      18.104   2.737  28.405  1.00  0.00    -0.263 OA
BRANCH  14  16
HETATM   16  O3  UNK     1      18.454   0.922  29.787  1.00  0.00    -0.315 OA
BRANCH  16  17
HETATM   17  C13 UNK     1      19.759   0.472  29.411  1.00  0.00     0.123 C 
HETATM   18  C18 UNK     1      20.501  -0.006  30.650  1.00  0.00     0.040 C 
HETATM   19  C19 UNK     1      19.628  -0.630  28.370  1.00  0.00     0.040 C 
ENDBRANCH  16  17
ENDBRANCH  14  16
ENDBRANCH  13  14
ENDBRANCH  12  13
ENDBRANCH   9  12
BRANCH   5  20
HETATM   20  C4  UNK     1      16.182  10.357  34.326  1.00  0.00    -0.002 A 
HETATM   21  C11 UNK     1      15.031  10.559  35.091  1.00  0.00     0.015 A 
HETATM   22  C15 UNK     1      14.854  11.755  35.788  1.00  0.00     0.007 A 
HETATM   23  C14 UNK     1      15.827  12.751  35.722  1.00  0.00    -0.062 A 
HETATM   24  C16 UNK     1      16.977  12.553  34.959  1.00  0.00     0.007 A 
HETATM   25  C21 UNK     1      15.637  14.029  36.467  1.00  0.00     0.048 C 
HETATM   26  C12 UNK     1      17.155  11.358  34.262  1.00  0.00     0.015 A 
ENDBRANCH   5  20
TORSDOF 6
ENDMDL
MODEL 3
REMARK VINA RESULT:      -8.5      2.804     10.097
REMARK  6 active torsions:
REMARK  status: ('A' for Active; 'I' for Inactive)
REMARK    1  A    between atoms: C17_22  and  O2_2 
REMARK    2  A    between atoms: C8_13  and  O2_2 
REMARK    3  A    between atoms: C13_18  and  O3_3 
REMARK    4  A    between atoms: C20_25  and  O3_3 
REMARK    5  A    between atoms: C3_8  and  C4_9 
REMARK    6  A    between atoms: C17_22  and  C20_25 
ROOT
HETATM    1  O1  UNK     1      20.295  -3.288  34.500  1.00  0.00    -0.309 OA
HETATM    2  O4  UNK     1      17.848  -0.533  36.236  1.00  0.00    -0.287 OA
HETATM    3  C1  UNK     1      19.012  -1.236  34.304  1.00  0.00     0.051 A 
HETATM    4  C2  UNK     1      19.849  -2.214  33.771  1.00  0.00     0.090 A 
HETATM    5  C3  UNK     1      19.900  -3.399  35.824  1.00  0.00     0.090 A 
HETATM    6  C5  UNK     1      18.588  -0.163  33.515  1.00  0.00     0.055 A 
HETATM    7  C6  UNK     1      18.584  -1.353  35.706  1.00  0.00     0.187 A 
HETATM    8  C7  UNK     1      19.092  -2.525  36.447  1.00  0.00     0.093 A 
HETATM    9  C8  UNK     1      19.010  -0.078  32.188  1.00  0.00     0.070 A 
HETATM   10  C9  UNK     1      20.268  -2.127  32.444  1.00  0.00     0.041 A 
HETATM   11  C10 UNK     1      19.847  -1.058  31.652  1.00  0.00     0.039 A 
ENDROOT
BRANCH   9  12
HETATM   12  O2  UNK     1      18.601   0.963  31.410  1.00  0.00    -0.342 OA
BRANCH  12  13
HETATM   13  C17 UNK     1      18.967   0.927  30.032  1.00  0.00     0.286 C 
BRANCH  13  14
HETATM   14  C20 UNK     1      18.733   2.287  29.432  1.00  0.00     0.283 C 
HETATM   15  O5  UNK     1      18.065   2.508  28.430  1.00  0.00    -0.263 OA
BRANCH  14  16
HETATM   16  O3  UNK     1      19.384   3.223  30.184  1.00  0.00    -0.315 OA
BRANCH  16  17
HETATM   17  C13 UNK     1      18.666   4.440  30.410  1.00  0.00     0.123 C 
HETATM   18  C18 UNK     1      18.135   4.453  31.835  1.00  0.00     0.040 C 
HETATM   19  C19 UNK     1      19.586   5.621  30.138  1.00  0.00     0.040 C 
ENDBRANCH  16  17
ENDBRANCH  14  16
ENDBRANCH  13  14
ENDBRANCH  12  13
ENDBRANCH   9  12
BRANCH   5  20
HETATM   20  C4  UNK     1      20.430  -4.593  36.511  1.00  0.00    -0.002 A 
HETATM   21  C11 UNK     1      20.128  -5.870  36.033  1.00  0.00     0.015 A 
HETATM   22  C15 UNK     1      20.630  -6.998  36.682  1.00  0.00     0.007 A 
HETATM   23  C14 UNK     1      21.433  -6.853  37.813  1.00  0.00    -0.062 A 
HETATM   24  C16 UNK     1      21.735  -5.579  38.294  1.00  0.00     0.007 A 
HETATM   25  C21 UNK     1      21.968  -8.059  38.507  1.00  0.00     0.048 C 
HETATM   26  C12 UNK     1      21.235  -4.451  37.645  1.00  0.00     0.015 A 
ENDBRANCH   5  20
TORSDOF 6
ENDMDL
MODEL 4
REMARK VINA RESULT:      -8.4      2.987      9.721
REMARK  6 active torsions:
REMARK  status: ('A' for Active; 'I' for Inactive)
REMARK    1  A    between atoms: C17_22  and  O2_2 
REMARK    2  A    between atoms: C8_13  and  O2_2 
REMARK    3  A    between atoms: C13_18  and  O3_3 
REMARK    4  A    between atoms: C20_25  and  O3_3 
REMARK    5  A    between atoms: C3_8  and  C4_9 
REMARK    6  A    between atoms: C17_22  and  C20_25 
ROOT
HETATM    1  O1  UNK     1      18.740  -2.762  36.608  1.00  0.00    -0.309 OA
HETATM    2  O4  UNK     1      20.618  -2.065  33.061  1.00  0.00    -0.287 OA
HETATM    3  C1  UNK     1      19.008  -1.363  34.641  1.00  0.00     0.051 A 
HETATM    4  C2  UNK     1      18.407  -1.659  35.863  1.00  0.00     0.090 A 
HETATM    5  C3  UNK     1      19.714  -3.619  36.120  1.00  0.00     0.090 A 
HETATM    6  C5  UNK     1      18.629  -0.225  33.924  1.00  0.00     0.055 A 
HETATM    7  C6  UNK     1      20.047  -2.266  34.123  1.00  0.00     0.187 A 
HETATM    8  C7  UNK     1      20.369  -3.438  34.961  1.00  0.00     0.093 A 
HETATM    9  C8  UNK     1      17.641   0.614  34.440  1.00  0.00     0.070 A 
HETATM   10  C9  UNK     1      17.420  -0.817  36.377  1.00  0.00     0.041 A 
HETATM   11  C10 UNK     1      17.039   0.320  35.664  1.00  0.00     0.039 A 
ENDROOT
BRANCH   9  12
HETATM   12  O2  UNK     1      17.265   1.726  33.750  1.00  0.00    -0.342 OA
BRANCH  12  13
HETATM   13  C17 UNK     1      18.272   2.705  33.499  1.00  0.00     0.286 C 
BRANCH  13  14
HETATM   14  C20 UNK     1      17.993   3.359  32.172  1.00  0.00     0.283 C 
HETATM   15  O5  UNK     1      18.062   4.561  31.953  1.00  0.00    -0.263 OA
BRANCH  14  16
HETATM   16  O3  UNK     1      17.656   2.396  31.265  1.00  0.00    -0.315 OA
BRANCH  16  17
HETATM   17  C13 UNK     1      18.619   2.157  30.232  1.00  0.00     0.123 C 
HETATM   18  C18 UNK     1      19.388   0.884  30.548  1.00  0.00     0.040 C 
HETATM   19  C19 UNK     1      17.904   2.070  28.892  1.00  0.00     0.040 C 
ENDBRANCH  16  17
ENDBRANCH  14  16
ENDBRANCH  13  14
ENDBRANCH  12  13
ENDBRANCH   9  12
BRANCH   5  20
HETATM   20  C4  UNK     1      20.001  -4.767  37.003  1.00  0.00    -0.002 A 
HETATM   21  C11 UNK     1      19.094  -5.826  37.096  1.00  0.00     0.015 A 
HETATM   22  C15 UNK     1      19.366  -6.910  37.931  1.00  0.00     0.007 A 
HETATM   23  C14 UNK     1      20.544  -6.939  38.675  1.00  0.00    -0.062 A 
HETATM   24  C16 UNK     1      21.451  -5.883  38.586  1.00  0.00     0.007 A 
HETATM   25  C21 UNK     1      20.834  -8.098  39.568  1.00  0.00     0.048 C 
HETATM   26  C12 UNK     1      21.181  -4.799  37.751  1.00  0.00     0.015 A 
ENDBRANCH   5  20
TORSDOF 6
ENDMDL
MODEL 5
REMARK VINA RESULT:      -8.2      1.936     10.300
REMARK  6 active torsions:
REMARK  status: ('A' for Active; 'I' for Inactive)
REMARK    1  A    between atoms: C17_22  and  O2_2 
REMARK    2  A    between atoms: C8_13  and  O2_2 
REMARK    3  A    between atoms: C13_18  and  O3_3 
REMARK    4  A    between atoms: C20_25  and  O3_3 
REMARK    5  A    between atoms: C3_8  and  C4_9 
REMARK    6  A    between atoms: C17_22  and  C20_25 
ROOT
HETATM    1  O1  UNK     1      19.115  -3.137  37.532  1.00  0.00    -0.309 OA
HETATM    2  O4  UNK     1      20.431  -2.127  33.811  1.00  0.00    -0.287 OA
HETATM    3  C1  UNK     1      19.176  -1.522  35.719  1.00  0.00     0.051 A 
HETATM    4  C2  UNK     1      18.762  -1.928  36.987  1.00  0.00     0.090 A 
HETATM    5  C3  UNK     1      19.912  -3.991  36.786  1.00  0.00     0.090 A 
HETATM    6  C5  UNK     1      18.786  -0.279  35.214  1.00  0.00     0.055 A 
HETATM    7  C6  UNK     1      20.028  -2.422  34.928  1.00  0.00     0.187 A 
HETATM    8  C7  UNK     1      20.379  -3.710  35.559  1.00  0.00     0.093 A 
HETATM    9  C8  UNK     1      17.977   0.554  35.987  1.00  0.00     0.070 A 
HETATM   10  C9  UNK     1      17.954  -1.092  37.758  1.00  0.00     0.041 A 
HETATM   11  C10 UNK     1      17.563   0.150  37.257  1.00  0.00     0.039 A 
ENDROOT
BRANCH   9  12
HETATM   12  O2  UNK     1      17.593   1.768  35.504  1.00  0.00    -0.342 OA
BRANCH  12  13
HETATM   13  C17 UNK     1      18.609   2.588  34.926  1.00  0.00     0.286 C 
BRANCH  13  14
HETATM   14  C20 UNK     1      18.118   3.106  33.601  1.00  0.00     0.283 C 
HETATM   15  O5  UNK     1      17.687   2.411  32.691  1.00  0.00    -0.263 OA
BRANCH  14  16
HETATM   16  O3  UNK     1      18.235   4.466  33.585  1.00  0.00    -0.315 OA
BRANCH  16  17
HETATM   17  C13 UNK     1      18.050   5.087  32.309  1.00  0.00     0.123 C 
HETATM   18  C18 UNK     1      16.947   6.128  32.412  1.00  0.00     0.040 C 
HETATM   19  C19 UNK     1      19.367   5.699  31.854  1.00  0.00     0.040 C 
ENDBRANCH  16  17
ENDBRANCH  14  16
ENDBRANCH  13  14
ENDBRANCH  12  13
ENDBRANCH   9  12
BRANCH   5  20
HETATM   20  C4  UNK     1      20.238  -5.258  37.470  1.00  0.00    -0.002 A 
HETATM   21  C11 UNK     1      19.284  -6.275  37.555  1.00  0.00     0.015 A 
HETATM   22  C15 UNK     1      19.593  -7.473  38.201  1.00  0.00     0.007 A 
HETATM   23  C14 UNK     1      20.855  -7.656  38.764  1.00  0.00    -0.062 A 
HETATM   24  C16 UNK     1      21.809  -6.643  38.681  1.00  0.00     0.007 A 
HETATM   25  C21 UNK     1      21.184  -8.937  39.455  1.00  0.00     0.048 C 
HETATM   26  C12 UNK     1      21.502  -5.446  38.036  1.00  0.00     0.015 A 
ENDBRANCH   5  20
TORSDOF 6
ENDMDL
MODEL 6
REMARK VINA RESULT:      -8.1      3.051      4.844
REMARK  6 active torsions:
REMARK  status: ('A' for Active; 'I' for Inactive)
REMARK    1  A    between atoms: C17_22  and  O2_2 
REMARK    2  A    between atoms: C8_13  and  O2_2 
REMARK    3  A    between atoms: C13_18  and  O3_3 
REMARK    4  A    between atoms: C20_25  and  O3_3 
REMARK    5  A    between atoms: C3_8  and  C4_9 
REMARK    6  A    between atoms: C17_22  and  C20_25 
ROOT
HETATM    1  O1  UNK     1      18.482   7.171  31.747  1.00  0.00    -0.309 OA
HETATM    2  O4  UNK     1      18.036   3.926  34.170  1.00  0.00    -0.287 OA
HETATM    3  C1  UNK     1      18.447   4.755  31.996  1.00  0.00     0.051 A 
HETATM    4  C2  UNK     1      18.591   5.906  31.224  1.00  0.00     0.090 A 
HETATM    5  C3  UNK     1      18.213   7.305  33.100  1.00  0.00     0.090 A 
HETATM    6  C5  UNK     1      18.568   3.492  31.410  1.00  0.00     0.055 A 
HETATM    7  C6  UNK     1      18.169   4.893  33.433  1.00  0.00     0.187 A 
HETATM    8  C7  UNK     1      18.061   6.273  33.947  1.00  0.00     0.093 A 
HETATM    9  C8  UNK     1      18.833   3.392  30.044  1.00  0.00     0.070 A 
HETATM   10  C9  UNK     1      18.856   5.803  29.859  1.00  0.00     0.041 A 
HETATM   11  C10 UNK     1      18.978   4.544  29.270  1.00  0.00     0.039 A 
ENDROOT
BRANCH   9  12
HETATM   12  O2  UNK     1      18.953   2.165  29.463  1.00  0.00    -0.342 OA
BRANCH  12  13
HETATM   13  C17 UNK     1      18.775   1.028  30.307  1.00  0.00     0.286 C 
BRANCH  13  14
HETATM   14  C20 UNK     1      20.024   0.188  30.259  1.00  0.00     0.283 C 
HETATM   15  O5  UNK     1      20.650  -0.082  29.243  1.00  0.00    -0.263 OA
BRANCH  14  16
HETATM   16  O3  UNK     1      20.335  -0.216  31.525  1.00  0.00    -0.315 OA
BRANCH  16  17
HETATM   17  C13 UNK     1      19.765  -1.464  31.932  1.00  0.00     0.123 C 
HETATM   18  C18 UNK     1      20.882  -2.448  32.245  1.00  0.00     0.040 C 
HETATM   19  C19 UNK     1      18.861  -1.233  33.134  1.00  0.00     0.040 C 
ENDBRANCH  16  17
ENDBRANCH  14  16
ENDBRANCH  13  14
ENDBRANCH  12  13
ENDBRANCH   9  12
BRANCH   5  20
HETATM   20  C4  UNK     1      18.125   8.706  33.559  1.00  0.00    -0.002 A 
HETATM   21  C11 UNK     1      19.282   9.400  33.922  1.00  0.00     0.015 A 
HETATM   22  C15 UNK     1      19.198  10.723  34.355  1.00  0.00     0.007 A 
HETATM   23  C14 UNK     1      17.958  11.356  34.426  1.00  0.00    -0.062 A 
HETATM   24  C16 UNK     1      16.801  10.666  34.065  1.00  0.00     0.007 A 
HETATM   25  C21 UNK     1      17.868  12.771  34.890  1.00  0.00     0.048 C 
HETATM   26  C12 UNK     1      16.884   9.343  33.632  1.00  0.00     0.015 A 
ENDBRANCH   5  20
TORSDOF 6
ENDMDL
MODEL 7
REMARK VINA RESULT:      -8.0      2.349      4.325
REMARK  6 active torsions:
REMARK  status: ('A' for Active; 'I' for Inactive)
REMARK    1  A    between atoms: C17_22  and  O2_2 
REMARK    2  A    between atoms: C8_13  and  O2_2 
REMARK    3  A    between atoms: C13_18  and  O3_3 
REMARK    4  A    between atoms: C20_25  and  O3_3 
REMARK    5  A    between atoms: C3_8  and  C4_9 
REMARK    6  A    between atoms: C17_22  and  C20_25 
ROOT
HETATM    1  O1  UNK     1      19.005   0.380  34.312  1.00  0.00    -0.309 OA
HETATM    2  O4  UNK     1      17.333   0.512  38.025  1.00  0.00    -0.287 OA
HETATM    3  C1  UNK     1      18.530  -0.737  36.416  1.00  0.00     0.051 A 
HETATM    4  C2  UNK     1      19.081  -0.715  35.136  1.00  0.00     0.090 A 
HETATM    5  C3  UNK     1      18.345   1.509  34.773  1.00  0.00     0.090 A 
HETATM    6  C5  UNK     1      18.638  -1.880  37.212  1.00  0.00     0.055 A 
HETATM    7  C6  UNK     1      17.836   0.461  36.911  1.00  0.00     0.187 A 
HETATM    8  C7  UNK     1      17.780   1.611  35.987  1.00  0.00     0.093 A 
HETATM    9  C8  UNK     1      19.303  -3.002  36.716  1.00  0.00     0.070 A 
HETATM   10  C9  UNK     1      19.746  -1.838  34.644  1.00  0.00     0.041 A 
HETATM   11  C10 UNK     1      19.857  -2.981  35.435  1.00  0.00     0.039 A 
ENDROOT
BRANCH   9  12
HETATM   12  O2  UNK     1      19.415  -4.121  37.485  1.00  0.00    -0.342 OA
BRANCH  12  13
HETATM   13  C17 UNK     1      20.183  -5.199  36.954  1.00  0.00     0.286 C 
BRANCH  13  14
HETATM   14  C20 UNK     1      21.293  -5.525  37.917  1.00  0.00     0.283 C 
HETATM   15  O5  UNK     1      22.460  -5.181  37.787  1.00  0.00    -0.263 OA
BRANCH  14  16
HETATM   16  O3  UNK     1      20.784  -6.259  38.950  1.00  0.00    -0.315 OA
BRANCH  16  17
HETATM   17  C13 UNK     1      21.091  -7.656  38.923  1.00  0.00     0.123 C 
HETATM   18  C18 UNK     1      22.232  -7.937  39.888  1.00  0.00     0.040 C 
HETATM   19  C19 UNK     1      19.842  -8.450  39.276  1.00  0.00     0.040 C 
ENDBRANCH  16  17
ENDBRANCH  14  16
ENDBRANCH  13  14
ENDBRANCH  12  13
ENDBRANCH   9  12
BRANCH   5  20
HETATM   20  C4  UNK     1      18.329   2.629  33.811  1.00  0.00    -0.002 A 
HETATM   21  C11 UNK     1      18.257   2.376  32.439  1.00  0.00     0.015 A 
HETATM   22  C15 UNK     1      18.241   3.435  31.531  1.00  0.00     0.007 A 
HETATM   23  C14 UNK     1      18.298   4.749  31.992  1.00  0.00    -0.062 A 
HETATM   24  C16 UNK     1      18.370   5.006  33.361  1.00  0.00     0.007 A 
HETATM   25  C21 UNK     1      18.281   5.881  31.021  1.00  0.00     0.048 C 
HETATM   26  C12 UNK     1      18.386   3.948  34.270  1.00  0.00     0.015 A 
ENDBRANCH   5  20
TORSDOF 6
ENDMDL
MODEL 8
REMARK VINA RESULT:      -7.9      1.908     10.235
REMARK  6 active torsions:
REMARK  status: ('A' for Active; 'I' for Inactive)
REMARK    1  A    between atoms: C17_22  and  O2_2 
REMARK    2  A    between atoms: C8_13  and  O2_2 
REMARK    3  A    between atoms: C13_18  and  O3_3 
REMARK    4  A    between atoms: C20_25  and  O3_3 
REMARK    5  A    between atoms: C3_8  and  C4_9 
REMARK    6  A    between atoms: C17_22  and  C20_25 
ROOT
HETATM    1  O1  UNK     1      19.658  -2.806  35.090  1.00  0.00    -0.309 OA
HETATM    2  O4  UNK     1      17.951  -0.420  37.917  1.00  0.00    -0.287 OA
HETATM    3  C1  UNK     1      18.512  -0.738  35.644  1.00  0.00     0.051 A 
HETATM    4  C2  UNK     1      19.109  -1.602  34.728  1.00  0.00     0.090 A 
HETATM    5  C3  UNK     1      19.621  -3.174  36.426  1.00  0.00     0.090 A 
HETATM    6  C5  UNK     1      17.968   0.477  35.219  1.00  0.00     0.055 A 
HETATM    7  C6  UNK     1      18.463  -1.128  37.061  1.00  0.00     0.187 A 
HETATM    8  C7  UNK     1      19.068  -2.432  37.399  1.00  0.00     0.093 A 
HETATM    9  C8  UNK     1      18.028   0.820  33.867  1.00  0.00     0.070 A 
HETATM   10  C9  UNK     1      19.166  -1.256  33.378  1.00  0.00     0.041 A 
HETATM   11  C10 UNK     1      18.625  -0.044  32.948  1.00  0.00     0.039 A 
ENDROOT
BRANCH   9  12
HETATM   12  O2  UNK     1      17.499   2.002  33.443  1.00  0.00    -0.342 OA
BRANCH  12  13
HETATM   13  C17 UNK     1      18.280   2.770  32.528  1.00  0.00     0.286 C 
BRANCH  13  14
HETATM   14  C20 UNK     1      18.188   4.222  32.913  1.00  0.00     0.283 C 
HETATM   15  O5  UNK     1      18.585   4.696  33.969  1.00  0.00    -0.263 OA
BRANCH  14  16
HETATM   16  O3  UNK     1      17.595   4.914  31.896  1.00  0.00    -0.315 OA
BRANCH  16  17
HETATM   17  C13 UNK     1      18.238   6.139  31.526  1.00  0.00     0.123 C 
HETATM   18  C18 UNK     1      18.956   5.948  30.199  1.00  0.00     0.040 C 
HETATM   19  C19 UNK     1      17.199   7.247  31.454  1.00  0.00     0.040 C 
ENDBRANCH  16  17
ENDBRANCH  14  16
ENDBRANCH  13  14
ENDBRANCH  12  13
ENDBRANCH   9  12
BRANCH   5  20
HETATM   20  C4  UNK     1      20.232  -4.489  36.704  1.00  0.00    -0.002 A 
HETATM   21  C11 UNK     1      21.104  -4.645  37.783  1.00  0.00     0.015 A 
HETATM   22  C15 UNK     1      21.681  -5.888  38.045  1.00  0.00     0.007 A 
HETATM   23  C14 UNK     1      21.386  -6.979  37.228  1.00  0.00    -0.062 A 
HETATM   24  C16 UNK     1      20.516  -6.827  36.150  1.00  0.00     0.007 A 
HETATM   25  C21 UNK     1      22.003  -8.308  37.509  1.00  0.00     0.048 C 
HETATM   26  C12 UNK     1      19.939  -5.585  35.887  1.00  0.00     0.015 A 
ENDBRANCH   5  20
TORSDOF 6
ENDMDL
MODEL 9
REMARK VINA RESULT:      -7.9      5.219     10.478
REMARK  6 active torsions:
REMARK  status: ('A' for Active; 'I' for Inactive)
REMARK    1  A    between atoms: C17_22  and  O2_2 
REMARK    2  A    between atoms: C8_13  and  O2_2 
REMARK    3  A    between atoms: C13_18  and  O3_3 
REMARK    4  A    between atoms: C20_25  and  O3_3 
REMARK    5  A    between atoms: C3_8  and  C4_9 
REMARK    6  A    between atoms: C17_22  and  C20_25 
ROOT
HETATM    1  O1  UNK     1      16.670   5.861  32.499  1.00  0.00    -0.309 OA
HETATM    2  O4  UNK     1      19.358   7.580  35.032  1.00  0.00    -0.287 OA
HETATM    3  C1  UNK     1      17.163   7.565  34.157  1.00  0.00     0.051 A 
HETATM    4  C2  UNK     1      16.294   6.931  33.273  1.00  0.00     0.090 A 
HETATM    5  C3  UNK     1      17.973   5.399  32.599  1.00  0.00     0.090 A 
HETATM    6  C5  UNK     1      16.726   8.650  34.921  1.00  0.00     0.055 A 
HETATM    7  C6  UNK     1      18.544   7.073  34.273  1.00  0.00     0.187 A 
HETATM    8  C7  UNK     1      18.900   5.922  33.419  1.00  0.00     0.093 A 
HETATM    9  C8  UNK     1      15.410   9.095  34.792  1.00  0.00     0.070 A 
HETATM   10  C9  UNK     1      14.978   7.377  33.146  1.00  0.00     0.041 A 
HETATM   11  C10 UNK     1      14.537   8.460  33.907  1.00  0.00     0.039 A 
ENDROOT
BRANCH   9  12
HETATM   12  O2  UNK     1      14.973  10.152  35.533  1.00  0.00    -0.342 OA
BRANCH  12  13
HETATM   13  C17 UNK     1      14.809  11.396  34.855  1.00  0.00     0.286 C 
BRANCH  13  14
HETATM   14  C20 UNK     1      15.986  12.280  35.173  1.00  0.00     0.283 C 
HETATM   15  O5  UNK     1      16.289  12.670  36.292  1.00  0.00    -0.263 OA
BRANCH  14  16
HETATM   16  O3  UNK     1      16.649  12.569  34.015  1.00  0.00    -0.315 OA
BRANCH  16  17
HETATM   17  C13 UNK     1      18.071  12.689  34.132  1.00  0.00     0.123 C 
HETATM   18  C18 UNK     1      18.705  11.317  33.970  1.00  0.00     0.040 C 
HETATM   19  C19 UNK     1      18.577  13.675  33.090  1.00  0.00     0.040 C 
ENDBRANCH  16  17
ENDBRANCH  14  16
ENDBRANCH  13  14
ENDBRANCH  12  13
ENDBRANCH   9  12
BRANCH   5  20
HETATM   20  C4  UNK     1      18.268   4.243  31.730  1.00  0.00    -0.002 A 
HETATM   21  C11 UNK     1      18.617   4.440  30.392  1.00  0.00     0.015 A 
HETATM   22  C15 UNK     1      18.896   3.347  29.572  1.00  0.00     0.007 A 
HETATM   23  C14 UNK     1      18.827   2.053  30.087  1.00  0.00    -0.062 A 
HETATM   24  C16 UNK     1      18.479   1.852  31.422  1.00  0.00     0.007 A 
HETATM   25  C21 UNK     1      19.125   0.885  29.209  1.00  0.00     0.048 C 
HETATM   26  C12 UNK     1      18.200   2.944  32.243  1.00  0.00     0.015 A 
ENDBRANCH   5  20
TORSDOF 6
ENDMDL
MODEL 10
REMARK VINA RESULT:      -7.9     12.069     14.932
REMARK  6 active torsions:
REMARK  status: ('A' for Active; 'I' for Inactive)
REMARK    1  A    between atoms: C17_22  and  O2_2 
REMARK    2  A    between atoms: C8_13  and  O2_2 
REMARK    3  A    between atoms: C13_18  and  O3_3 
REMARK    4  A    between atoms: C20_25  and  O3_3 
REMARK    5  A    between atoms: C3_8  and  C4_9 
REMARK    6  A    between atoms: C17_22  and  C20_25 
ROOT
HETATM    1  O1  UNK     1      25.728  -6.412  38.621  1.00  0.00    -0.309 OA
HETATM    2  O4  UNK     1      28.287  -9.582  38.712  1.00  0.00    -0.287 OA
HETATM    3  C1  UNK     1      28.013  -7.236  38.642  1.00  0.00     0.051 A 
HETATM    4  C2  UNK     1      27.084  -6.197  38.614  1.00  0.00     0.090 A 
HETATM    5  C3  UNK     1      25.267  -7.719  38.652  1.00  0.00     0.090 A 
HETATM    6  C5  UNK     1      29.382  -6.959  38.634  1.00  0.00     0.055 A 
HETATM    7  C6  UNK     1      27.527  -8.623  38.682  1.00  0.00     0.187 A 
HETATM    8  C7  UNK     1      26.061  -8.801  38.687  1.00  0.00     0.093 A 
HETATM    9  C8  UNK     1      29.814  -5.632  38.596  1.00  0.00     0.070 A 
HETATM   10  C9  UNK     1      27.519  -4.873  38.578  1.00  0.00     0.041 A 
HETATM   11  C10 UNK     1      28.885  -4.591  38.569  1.00  0.00     0.039 A 
ENDROOT
BRANCH   9  12
HETATM   12  O2  UNK     1      31.147  -5.351  38.589  1.00  0.00    -0.342 OA
BRANCH  12  13
HETATM   13  C17 UNK     1      32.032  -6.416  38.243  1.00  0.00     0.286 C 
BRANCH  13  14
HETATM   14  C20 UNK     1      33.293  -5.830  37.666  1.00  0.00     0.283 C 
HETATM   15  O5  UNK     1      34.426  -6.230  37.902  1.00  0.00    -0.263 OA
BRANCH  14  16
HETATM   16  O3  UNK     1      32.964  -4.790  36.845  1.00  0.00    -0.315 OA
BRANCH  16  17
HETATM   17  C13 UNK     1      33.253  -4.986  35.457  1.00  0.00     0.123 C 
HETATM   18  C18 UNK     1      31.950  -5.014  34.672  1.00  0.00     0.040 C 
HETATM   19  C19 UNK     1      34.179  -3.878  34.977  1.00  0.00     0.040 C 
ENDBRANCH  16  17
ENDBRANCH  14  16
ENDBRANCH  13  14
ENDBRANCH  12  13
ENDBRANCH   9  12
BRANCH   5  20
HETATM   20  C4  UNK     1      23.795  -7.835  38.665  1.00  0.00    -0.002 A 
HETATM   21  C11 UNK     1      23.140  -8.577  37.678  1.00  0.00     0.015 A 
HETATM   22  C15 UNK     1      21.750  -8.687  37.691  1.00  0.00     0.007 A 
HETATM   23  C14 UNK     1      21.010  -8.055  38.690  1.00  0.00    -0.062 A 
HETATM   24  C16 UNK     1      21.660  -7.314  39.676  1.00  0.00     0.007 A 
HETATM   25  C21 UNK     1      19.523  -8.172  38.703  1.00  0.00     0.048 C 
HETATM   26  C12 UNK     1      23.050  -7.203  39.664  1.00  0.00     0.015 A 
ENDBRANCH   5  20
TORSDOF 6
ENDMDL
