MODEL 1
REMARK VINA RESULT:      -8.5      0.000      0.000
REMARK  3 active torsions:
REMARK  status: ('A' for Active; 'I' for Inactive)
REMARK    1  A    between atoms: C8_16  and  N1_6 
REMARK    2  A    between atoms: C16_24  and  N2_7 
REMARK    3  A    between atoms: C1_9  and  C3_11 
ROOT
HETATM    1  O1  UNK     1      32.513  -8.809  33.524  1.00  0.00    -0.269 OA
HETATM    2  O2  UNK     1      30.588  -8.887  32.189  1.00  0.00    -0.286 OA
HETATM    3  O3  UNK     1      29.720  -4.996  33.002  1.00  0.00    -0.287 OA
HETATM    4  N3  UNK     1      35.237  -5.585  35.847  1.00  0.00    -0.191 NA
HETATM    5  C1  UNK     1      32.049  -6.093  34.315  1.00  0.00     0.108 C 
HETATM    6  C2  UNK     1      31.149  -6.862  33.373  1.00  0.00     0.065 A 
HETATM    7  C4  UNK     1      33.340  -6.845  34.610  1.00  0.00     0.086 C 
HETATM    8  C5  UNK     1      31.397  -8.140  33.032  1.00  0.00     0.204 A 
HETATM    9  C6  UNK     1      29.970  -6.174  32.781  1.00  0.00     0.197 A 
HETATM   10  C7  UNK     1      29.111  -6.985  31.907  1.00  0.00     0.049 A 
HETATM   11  C8  UNK     1      33.510  -8.129  34.221  1.00  0.00     0.162 C 
HETATM   12  C9  UNK     1      29.467  -8.306  31.658  1.00  0.00     0.092 A 
HETATM   13  C12 UNK     1      27.959  -6.444  31.333  1.00  0.00     0.018 A 
HETATM   14  C15 UNK     1      28.670  -9.099  30.831  1.00  0.00     0.038 A 
HETATM   15  C17 UNK     1      34.388  -6.149  35.293  1.00  0.00     0.100 C 
HETATM   16  C18 UNK     1      27.163  -7.238  30.507  1.00  0.00     0.001 A 
HETATM   17  C19 UNK     1      27.517  -8.564  30.256  1.00  0.00     0.003 A 
ENDROOT
BRANCH   5  18
HETATM   18  C3  UNK     1      31.329  -5.779  35.593  1.00  0.00    -0.044 A 
HETATM   19  C10 UNK     1      30.576  -6.765  36.219  1.00  0.00     0.011 A 
HETATM   20  C13 UNK     1      29.905  -6.472  37.407  1.00  0.00     0.036 A 
HETATM   21  C16 UNK     1      29.993  -5.195  37.961  1.00  0.00     0.102 A 
HETATM   22  C14 UNK     1      30.752  -4.211  37.327  1.00  0.00     0.036 A 
HETATM   23  C11 UNK     1      31.421  -4.504  36.139  1.00  0.00     0.011 A 
BRANCH  21  24
HETATM   24  N2  UNK     1      29.310  -4.897  39.170  1.00  0.00    -0.116 N 
HETATM   25  O4  UNK     1      28.407  -5.672  39.565  1.00  0.00    -0.532 OA
HETATM   26  O5  UNK     1      29.630  -3.867  39.810  1.00  0.00    -0.532 OA
ENDBRANCH  21  24
ENDBRANCH   5  18
BRANCH  11  27
HETATM   27  N1  UNK     1      34.627  -8.881  34.457  1.00  0.00    -0.379 N 
HETATM   28  H10 UNK     1      34.976  -9.016  35.397  1.00  0.00     0.158 HD
HETATM   29  H9  UNK     1      35.102  -9.307  33.671  1.00  0.00     0.158 HD
ENDBRANCH  11  27
TORSDOF 3
ENDMDL
MODEL 2
REMARK VINA RESULT:      -8.4     31.338     33.809
REMARK  3 active torsions:
REMARK  status: ('A' for Active; 'I' for Inactive)
REMARK    1  A    between atoms: C8_16  and  N1_6 
REMARK    2  A    between atoms: C16_24  and  N2_7 
REMARK    3  A    between atoms: C1_9  and  C3_11 
ROOT
HETATM    1  O1  UNK     1      16.977   8.237   9.822  1.00  0.00    -0.269 OA
HETATM    2  O2  UNK     1      16.226  10.299  10.644  1.00  0.00    -0.286 OA
HETATM    3  O3  UNK     1      12.689   8.676  11.832  1.00  0.00    -0.287 OA
HETATM    4  N3  UNK     1      15.722   3.587   9.887  1.00  0.00    -0.191 NA
HETATM    5  C1  UNK     1      14.528   6.902  10.481  1.00  0.00     0.108 C 
HETATM    6  C2  UNK     1      14.791   8.366  10.759  1.00  0.00     0.065 A 
HETATM    7  C4  UNK     1      15.785   6.173  10.024  1.00  0.00     0.086 C 
HETATM    8  C5  UNK     1      15.952   8.957  10.426  1.00  0.00     0.204 A 
HETATM    9  C6  UNK     1      13.744   9.167  11.449  1.00  0.00     0.197 A 
HETATM   10  C7  UNK     1      14.041  10.591  11.654  1.00  0.00     0.049 A 
HETATM   11  C8  UNK     1      16.916   6.849   9.718  1.00  0.00     0.162 C 
HETATM   12  C9  UNK     1      15.273  11.085  11.236  1.00  0.00     0.092 A 
HETATM   13  C12 UNK     1      13.109  11.438  12.257  1.00  0.00     0.018 A 
HETATM   14  C15 UNK     1      15.582  12.433  11.419  1.00  0.00     0.038 A 
HETATM   15  C17 UNK     1      15.750   4.745   9.949  1.00  0.00     0.100 C 
HETATM   16  C18 UNK     1      13.420  12.786  12.439  1.00  0.00     0.001 A 
HETATM   17  C19 UNK     1      14.654  13.284  12.020  1.00  0.00     0.003 A 
ENDROOT
BRANCH   5  18
HETATM   18  C3  UNK     1      13.439   6.747   9.459  1.00  0.00    -0.044 A 
HETATM   19  C10 UNK     1      12.356   5.919   9.729  1.00  0.00     0.011 A 
HETATM   20  C13 UNK     1      11.344   5.774   8.778  1.00  0.00     0.036 A 
HETATM   21  C16 UNK     1      11.423   6.459   7.566  1.00  0.00     0.102 A 
HETATM   22  C14 UNK     1      12.514   7.289   7.304  1.00  0.00     0.036 A 
HETATM   23  C11 UNK     1      13.525   7.433   8.253  1.00  0.00     0.011 A 
BRANCH  21  24
HETATM   24  N2  UNK     1      10.394   6.312   6.598  1.00  0.00    -0.116 N 
HETATM   25  O4  UNK     1       9.363   5.666   6.901  1.00  0.00    -0.532 OA
HETATM   26  O5  UNK     1      10.544   6.833   5.467  1.00  0.00    -0.532 OA
ENDBRANCH  21  24
ENDBRANCH   5  18
BRANCH  11  27
HETATM   27  N1  UNK     1      18.081   6.277   9.288  1.00  0.00    -0.379 N 
HETATM   28  H10 UNK     1      18.727   6.788   8.702  1.00  0.00     0.158 HD
HETATM   29  H9  UNK     1      18.291   5.327   9.570  1.00  0.00     0.158 HD
ENDBRANCH  11  27
TORSDOF 3
ENDMDL
MODEL 3
REMARK VINA RESULT:      -8.2      4.201      7.447
REMARK  3 active torsions:
REMARK  status: ('A' for Active; 'I' for Inactive)
REMARK    1  A    between atoms: C8_16  and  N1_6 
REMARK    2  A    between atoms: C16_24  and  N2_7 
REMARK    3  A    between atoms: C1_9  and  C3_11 
ROOT
HETATM    1  O1  UNK     1      27.640  -4.738  38.752  1.00  0.00    -0.269 OA
HETATM    2  O2  UNK     1      25.378  -5.300  39.004  1.00  0.00    -0.286 OA
HETATM    3  O3  UNK     1      26.162  -9.242  38.369  1.00  0.00    -0.287 OA
HETATM    4  N3  UNK     1      31.936  -6.888  38.402  1.00  0.00    -0.191 NA
HETATM    5  C1  UNK     1      28.412  -7.438  38.180  1.00  0.00     0.108 C 
HETATM    6  C2  UNK     1      26.992  -7.014  38.485  1.00  0.00     0.065 A 
HETATM    7  C4  UNK     1      29.409  -6.315  38.435  1.00  0.00     0.086 C 
HETATM    8  C5  UNK     1      26.669  -5.734  38.740  1.00  0.00     0.204 A 
HETATM    9  C6  UNK     1      25.926  -8.051  38.534  1.00  0.00     0.197 A 
HETATM   10  C7  UNK     1      24.562  -7.573  38.793  1.00  0.00     0.049 A 
HETATM   11  C8  UNK     1      28.995  -5.054  38.695  1.00  0.00     0.162 C 
HETATM   12  C9  UNK     1      24.359  -6.214  39.014  1.00  0.00     0.092 A 
HETATM   13  C12 UNK     1      23.484  -8.461  38.821  1.00  0.00     0.018 A 
HETATM   14  C15 UNK     1      23.073  -5.733  39.264  1.00  0.00     0.038 A 
HETATM   15  C17 UNK     1      30.805  -6.632  38.417  1.00  0.00     0.100 C 
HETATM   16  C18 UNK     1      22.200  -7.978  39.070  1.00  0.00     0.001 A 
HETATM   17  C19 UNK     1      21.993  -6.616  39.291  1.00  0.00     0.003 A 
ENDROOT
BRANCH   5  18
HETATM   18  C3  UNK     1      28.526  -7.920  36.764  1.00  0.00    -0.044 A 
HETATM   19  C10 UNK     1      28.204  -7.064  35.718  1.00  0.00     0.011 A 
HETATM   20  C13 UNK     1      28.309  -7.512  34.400  1.00  0.00     0.036 A 
HETATM   21  C16 UNK     1      28.736  -8.814  34.139  1.00  0.00     0.102 A 
HETATM   22  C14 UNK     1      29.059  -9.667  35.194  1.00  0.00     0.036 A 
HETATM   23  C11 UNK     1      28.953  -9.219  36.511  1.00  0.00     0.011 A 
BRANCH  21  24
HETATM   24  N2  UNK     1      28.842  -9.271  32.798  1.00  0.00    -0.116 N 
HETATM   25  O4  UNK     1      29.426 -10.359  32.572  1.00  0.00    -0.532 OA
HETATM   26  O5  UNK     1      28.350  -8.576  31.878  1.00  0.00    -0.532 OA
ENDBRANCH  21  24
ENDBRANCH   5  18
BRANCH  11  27
HETATM   27  N1  UNK     1      29.820  -3.987  38.920  1.00  0.00    -0.379 N 
HETATM   28  H10 UNK     1      29.450  -3.100  39.237  1.00  0.00     0.158 HD
HETATM   29  H9  UNK     1      30.815  -4.099  38.767  1.00  0.00     0.158 HD
ENDBRANCH  11  27
TORSDOF 3
ENDMDL
MODEL 4
REMARK VINA RESULT:      -8.2      2.533      6.347
REMARK  3 active torsions:
REMARK  status: ('A' for Active; 'I' for Inactive)
REMARK    1  A    between atoms: C8_16  and  N1_6 
REMARK    2  A    between atoms: C16_24  and  N2_7 
REMARK    3  A    between atoms: C1_9  and  C3_11 
ROOT
HETATM    1  O1  UNK     1      30.786  -4.092  37.243  1.00  0.00    -0.269 OA
HETATM    2  O2  UNK     1      29.452  -5.700  38.305  1.00  0.00    -0.286 OA
HETATM    3  O3  UNK     1      31.259  -8.722  36.266  1.00  0.00    -0.287 OA
HETATM    4  N3  UNK     1      34.663  -3.844  34.395  1.00  0.00    -0.191 NA
HETATM    5  C1  UNK     1      32.128  -6.041  35.625  1.00  0.00     0.108 C 
HETATM    6  C2  UNK     1      31.060  -6.381  36.642  1.00  0.00     0.065 A 
HETATM    7  C4  UNK     1      32.565  -4.585  35.722  1.00  0.00     0.086 C 
HETATM    8  C5  UNK     1      30.448  -5.434  37.377  1.00  0.00     0.204 A 
HETATM    9  C6  UNK     1      30.700  -7.808  36.858  1.00  0.00     0.197 A 
HETATM   10  C7  UNK     1      29.628  -8.071  37.828  1.00  0.00     0.049 A 
HETATM   11  C8  UNK     1      31.895  -3.701  36.495  1.00  0.00     0.162 C 
HETATM   12  C9  UNK     1      29.057  -6.996  38.503  1.00  0.00     0.092 A 
HETATM   13  C12 UNK     1      29.189  -9.373  38.075  1.00  0.00     0.018 A 
HETATM   14  C15 UNK     1      28.038  -7.217  39.430  1.00  0.00     0.038 A 
HETATM   15  C17 UNK     1      33.724  -4.176  34.989  1.00  0.00     0.100 C 
HETATM   16  C18 UNK     1      28.170  -9.592  39.003  1.00  0.00     0.001 A 
HETATM   17  C19 UNK     1      27.594  -8.516  39.679  1.00  0.00     0.003 A 
ENDROOT
BRANCH   5  18
HETATM   18  C3  UNK     1      31.648  -6.347  34.237  1.00  0.00    -0.044 A 
HETATM   19  C10 UNK     1      32.404  -7.173  33.414  1.00  0.00     0.011 A 
HETATM   20  C13 UNK     1      31.959  -7.456  32.122  1.00  0.00     0.036 A 
HETATM   21  C16 UNK     1      30.759  -6.912  31.663  1.00  0.00     0.102 A 
HETATM   22  C14 UNK     1      30.005  -6.085  32.496  1.00  0.00     0.036 A 
HETATM   23  C11 UNK     1      30.451  -5.801  33.786  1.00  0.00     0.011 A 
BRANCH  21  24
HETATM   24  N2  UNK     1      30.306  -7.200  30.348  1.00  0.00    -0.116 N 
HETATM   25  O4  UNK     1      30.972  -6.783  29.371  1.00  0.00    -0.532 OA
HETATM   26  O5  UNK     1      29.252  -7.864  30.201  1.00  0.00    -0.532 OA
ENDBRANCH  21  24
ENDBRANCH   5  18
BRANCH  11  27
HETATM   27  N1  UNK     1      32.209  -2.377  36.628  1.00  0.00    -0.379 N 
HETATM   28  H10 UNK     1      31.552  -1.723  37.033  1.00  0.00     0.158 HD
HETATM   29  H9  UNK     1      33.118  -2.058  36.316  1.00  0.00     0.158 HD
ENDBRANCH  11  27
TORSDOF 3
ENDMDL
MODEL 5
REMARK VINA RESULT:      -8.1      2.682      4.178
REMARK  3 active torsions:
REMARK  status: ('A' for Active; 'I' for Inactive)
REMARK    1  A    between atoms: C8_16  and  N1_6 
REMARK    2  A    between atoms: C16_24  and  N2_7 
REMARK    3  A    between atoms: C1_9  and  C3_11 
ROOT
HETATM    1  O1  UNK     1      31.828  -5.374  35.654  1.00  0.00    -0.269 OA
HETATM    2  O2  UNK     1      31.234  -6.350  33.608  1.00  0.00    -0.286 OA
HETATM    3  O3  UNK     1      27.393  -6.883  34.837  1.00  0.00    -0.287 OA
HETATM    4  N3  UNK     1      29.742  -3.722  39.670  1.00  0.00    -0.191 NA
HETATM    5  C1  UNK     1      29.212  -5.739  36.769  1.00  0.00     0.108 C 
HETATM    6  C2  UNK     1      29.595  -6.150  35.364  1.00  0.00     0.065 A 
HETATM    7  C4  UNK     1      30.301  -4.909  37.436  1.00  0.00     0.086 C 
HETATM    8  C5  UNK     1      30.837  -5.969  34.881  1.00  0.00     0.204 A 
HETATM    9  C6  UNK     1      28.556  -6.745  34.480  1.00  0.00     0.197 A 
HETATM   10  C7  UNK     1      28.999  -7.163  33.143  1.00  0.00     0.049 A 
HETATM   11  C8  UNK     1      31.523  -4.772  36.873  1.00  0.00     0.162 C 
HETATM   12  C9  UNK     1      30.322  -6.943  32.776  1.00  0.00     0.092 A 
HETATM   13  C12 UNK     1      28.110  -7.767  32.251  1.00  0.00     0.018 A 
HETATM   14  C15 UNK     1      30.769  -7.329  31.512  1.00  0.00     0.038 A 
HETATM   15  C17 UNK     1      29.993  -4.253  38.670  1.00  0.00     0.100 C 
HETATM   16  C18 UNK     1      28.559  -8.152  30.987  1.00  0.00     0.001 A 
HETATM   17  C19 UNK     1      29.886  -7.934  30.617  1.00  0.00     0.003 A 
ENDROOT
BRANCH   5  18
HETATM   18  C3  UNK     1      28.895  -6.945  37.603  1.00  0.00    -0.044 A 
HETATM   19  C10 UNK     1      27.736  -6.965  38.370  1.00  0.00     0.011 A 
HETATM   20  C13 UNK     1      27.442  -8.086  39.147  1.00  0.00     0.036 A 
HETATM   21  C16 UNK     1      28.308  -9.180  39.150  1.00  0.00     0.102 A 
HETATM   22  C14 UNK     1      29.469  -9.152  38.377  1.00  0.00     0.036 A 
HETATM   23  C11 UNK     1      29.763  -8.030  37.601  1.00  0.00     0.011 A 
BRANCH  21  24
HETATM   24  N2  UNK     1      28.009 -10.321  39.941  1.00  0.00    -0.116 N 
HETATM   25  O4  UNK     1      26.811 -10.572  40.216  1.00  0.00    -0.532 OA
HETATM   26  O5  UNK     1      28.950 -11.047  40.341  1.00  0.00    -0.532 OA
ENDBRANCH  21  24
ENDBRANCH   5  18
BRANCH  11  27
HETATM   27  N1  UNK     1      32.560  -4.060  37.410  1.00  0.00    -0.379 N 
HETATM   28  H10 UNK     1      33.105  -3.425  36.842  1.00  0.00     0.158 HD
HETATM   29  H9  UNK     1      32.773  -4.176  38.393  1.00  0.00     0.158 HD
ENDBRANCH  11  27
TORSDOF 3
ENDMDL
MODEL 6
REMARK VINA RESULT:      -8.0     19.489     23.152
REMARK  3 active torsions:
REMARK  status: ('A' for Active; 'I' for Inactive)
REMARK    1  A    between atoms: C8_16  and  N1_6 
REMARK    2  A    between atoms: C16_24  and  N2_7 
REMARK    3  A    between atoms: C1_9  and  C3_11 
ROOT
HETATM    1  O1  UNK     1      20.839  -2.236  13.789  1.00  0.00    -0.269 OA
HETATM    2  O2  UNK     1      22.325  -2.606  15.563  1.00  0.00    -0.286 OA
HETATM    3  O3  UNK     1      21.580  -6.605  15.513  1.00  0.00    -0.287 OA
HETATM    4  N3  UNK     1      18.297  -4.739  10.551  1.00  0.00    -0.191 NA
HETATM    5  C1  UNK     1      20.084  -4.997  13.635  1.00  0.00     0.108 C 
HETATM    6  C2  UNK     1      21.097  -4.454  14.619  1.00  0.00     0.065 A 
HETATM    7  C4  UNK     1      19.686  -3.958  12.595  1.00  0.00     0.086 C 
HETATM    8  C5  UNK     1      21.418  -3.148  14.664  1.00  0.00     0.204 A 
HETATM    9  C6  UNK     1      21.781  -5.398  15.542  1.00  0.00     0.197 A 
HETATM   10  C7  UNK     1      22.723  -4.805  16.501  1.00  0.00     0.049 A 
HETATM   11  C8  UNK     1      20.061  -2.664  12.715  1.00  0.00     0.162 C 
HETATM   12  C9  UNK     1      22.945  -3.432  16.461  1.00  0.00     0.092 A 
HETATM   13  C12 UNK     1      23.388  -5.601  17.437  1.00  0.00     0.018 A 
HETATM   14  C15 UNK     1      23.835  -2.843  17.360  1.00  0.00     0.038 A 
HETATM   15  C17 UNK     1      18.919  -4.389  11.466  1.00  0.00     0.100 C 
HETATM   16  C18 UNK     1      24.278  -5.010  18.335  1.00  0.00     0.001 A 
HETATM   17  C19 UNK     1      24.501  -3.633  18.298  1.00  0.00     0.003 A 
ENDROOT
BRANCH   5  18
HETATM   18  C3  UNK     1      18.868  -5.501  14.355  1.00  0.00    -0.044 A 
HETATM   19  C10 UNK     1      18.380  -6.772  14.076  1.00  0.00     0.011 A 
HETATM   20  C13 UNK     1      17.249  -7.241  14.745  1.00  0.00     0.036 A 
HETATM   21  C16 UNK     1      16.614  -6.435  15.690  1.00  0.00     0.102 A 
HETATM   22  C14 UNK     1      17.110  -5.160  15.966  1.00  0.00     0.036 A 
HETATM   23  C11 UNK     1      18.241  -4.692  15.296  1.00  0.00     0.011 A 
BRANCH  21  24
HETATM   24  N2  UNK     1      15.463  -6.911  16.371  1.00  0.00    -0.116 N 
HETATM   25  O4  UNK     1      15.574  -7.290  17.562  1.00  0.00    -0.532 OA
HETATM   26  O5  UNK     1      14.365  -6.939  15.765  1.00  0.00    -0.532 OA
ENDBRANCH  21  24
ENDBRANCH   5  18
BRANCH  11  27
HETATM   27  N1  UNK     1      19.736  -1.667  11.838  1.00  0.00    -0.379 N 
HETATM   28  H10 UNK     1      19.015  -1.799  11.141  1.00  0.00     0.158 HD
HETATM   29  H9  UNK     1      20.230  -0.785  11.899  1.00  0.00     0.158 HD
ENDBRANCH  11  27
TORSDOF 3
ENDMDL
MODEL 7
REMARK VINA RESULT:      -7.9      2.958      3.854
REMARK  3 active torsions:
REMARK  status: ('A' for Active; 'I' for Inactive)
REMARK    1  A    between atoms: C8_16  and  N1_6 
REMARK    2  A    between atoms: C16_24  and  N2_7 
REMARK    3  A    between atoms: C1_9  and  C3_11 
ROOT
HETATM    1  O1  UNK     1      34.103  -9.422  29.775  1.00  0.00    -0.269 OA
HETATM    2  O2  UNK     1      31.923  -9.878  29.043  1.00  0.00    -0.286 OA
HETATM    3  O3  UNK     1      30.374  -7.014  31.481  1.00  0.00    -0.287 OA
HETATM    4  N3  UNK     1      36.482  -6.155  32.397  1.00  0.00    -0.191 NA
HETATM    5  C1  UNK     1      33.230  -7.428  31.640  1.00  0.00     0.108 C 
HETATM    6  C2  UNK     1      32.297  -8.200  30.733  1.00  0.00     0.065 A 
HETATM    7  C4  UNK     1      34.692  -7.667  31.289  1.00  0.00     0.086 C 
HETATM    8  C5  UNK     1      32.746  -9.135  29.876  1.00  0.00     0.204 A 
HETATM    9  C6  UNK     1      30.841  -7.893  30.768  1.00  0.00     0.197 A 
HETATM   10  C7  UNK     1      29.982  -8.704  29.895  1.00  0.00     0.049 A 
HETATM   11  C8  UNK     1      35.055  -8.625  30.407  1.00  0.00     0.162 C 
HETATM   12  C9  UNK     1      30.572  -9.660  29.075  1.00  0.00     0.092 A 
HETATM   13  C12 UNK     1      28.597  -8.521  29.883  1.00  0.00     0.018 A 
HETATM   14  C15 UNK     1      29.780 -10.443  28.235  1.00  0.00     0.038 A 
HETATM   15  C17 UNK     1      35.680  -6.832  31.901  1.00  0.00     0.100 C 
HETATM   16  C18 UNK     1      27.807  -9.305  29.042  1.00  0.00     0.001 A 
HETATM   17  C19 UNK     1      28.396 -10.266  28.220  1.00  0.00     0.003 A 
ENDROOT
BRANCH   5  18
HETATM   18  C3  UNK     1      32.978  -7.780  33.077  1.00  0.00    -0.044 A 
HETATM   19  C10 UNK     1      33.018  -9.110  33.477  1.00  0.00     0.011 A 
HETATM   20  C13 UNK     1      32.782  -9.437  34.813  1.00  0.00     0.036 A 
HETATM   21  C16 UNK     1      32.510  -8.431  35.740  1.00  0.00     0.102 A 
HETATM   22  C14 UNK     1      32.473  -7.097  35.331  1.00  0.00     0.036 A 
HETATM   23  C11 UNK     1      32.707  -6.771  33.995  1.00  0.00     0.011 A 
BRANCH  21  24
HETATM   24  N2  UNK     1      32.270  -8.763  37.100  1.00  0.00    -0.116 N 
HETATM   25  O4  UNK     1      31.597  -9.788  37.365  1.00  0.00    -0.532 OA
HETATM   26  O5  UNK     1      32.739  -8.024  37.998  1.00  0.00    -0.532 OA
ENDBRANCH  21  24
ENDBRANCH   5  18
BRANCH  11  27
HETATM   27  N1  UNK     1      36.342  -8.915  30.047  1.00  0.00    -0.379 N 
HETATM   28  H10 UNK     1      36.713  -9.851  30.147  1.00  0.00     0.158 HD
HETATM   29  H9  UNK     1      36.922  -8.175  29.671  1.00  0.00     0.158 HD
ENDBRANCH  11  27
TORSDOF 3
ENDMDL
MODEL 8
REMARK VINA RESULT:      -7.9      3.269      5.734
REMARK  3 active torsions:
REMARK  status: ('A' for Active; 'I' for Inactive)
REMARK    1  A    between atoms: C8_16  and  N1_6 
REMARK    2  A    between atoms: C16_24  and  N2_7 
REMARK    3  A    between atoms: C1_9  and  C3_11 
ROOT
HETATM    1  O1  UNK     1      28.261  -8.536  33.506  1.00  0.00    -0.269 OA
HETATM    2  O2  UNK     1      27.692  -9.150  35.695  1.00  0.00    -0.286 OA
HETATM    3  O3  UNK     1      29.378  -5.772  37.211  1.00  0.00    -0.287 OA
HETATM    4  N3  UNK     1      29.975  -4.736  31.092  1.00  0.00    -0.191 NA
HETATM    5  C1  UNK     1      29.595  -6.144  34.353  1.00  0.00     0.108 C 
HETATM    6  C2  UNK     1      28.916  -7.111  35.299  1.00  0.00     0.065 A 
HETATM    7  C4  UNK     1      29.293  -6.466  32.896  1.00  0.00     0.086 C 
HETATM    8  C5  UNK     1      28.307  -8.228  34.862  1.00  0.00     0.204 A 
HETATM    9  C6  UNK     1      28.895  -6.800  36.754  1.00  0.00     0.197 A 
HETATM   10  C7  UNK     1      28.258  -7.796  37.625  1.00  0.00     0.049 A 
HETATM   11  C8  UNK     1      28.667  -7.612  32.545  1.00  0.00     0.162 C 
HETATM   12  C9  UNK     1      27.688  -8.926  37.046  1.00  0.00     0.092 A 
HETATM   13  C12 UNK     1      28.220  -7.618  39.010  1.00  0.00     0.018 A 
HETATM   14  C15 UNK     1      27.076  -9.888  37.850  1.00  0.00     0.038 A 
HETATM   15  C17 UNK     1      29.670  -5.511  31.899  1.00  0.00     0.100 C 
HETATM   16  C18 UNK     1      27.607  -8.580  39.812  1.00  0.00     0.001 A 
HETATM   17  C19 UNK     1      27.036  -9.715  39.234  1.00  0.00     0.003 A 
ENDROOT
BRANCH   5  18
HETATM   18  C3  UNK     1      31.078  -6.134  34.586  1.00  0.00    -0.044 A 
HETATM   19  C10 UNK     1      31.792  -7.324  34.522  1.00  0.00     0.011 A 
HETATM   20  C13 UNK     1      33.171  -7.314  34.739  1.00  0.00     0.036 A 
HETATM   21  C16 UNK     1      33.825  -6.114  35.017  1.00  0.00     0.102 A 
HETATM   22  C14 UNK     1      33.100  -4.923  35.077  1.00  0.00     0.036 A 
HETATM   23  C11 UNK     1      31.722  -4.933  34.861  1.00  0.00     0.011 A 
BRANCH  21  24
HETATM   24  N2  UNK     1      35.228  -6.103  35.238  1.00  0.00    -0.116 N 
HETATM   25  O4  UNK     1      35.665  -5.725  36.351  1.00  0.00    -0.532 OA
HETATM   26  O5  UNK     1      35.991  -6.474  34.314  1.00  0.00    -0.532 OA
ENDBRANCH  21  24
ENDBRANCH   5  18
BRANCH  11  27
HETATM   27  N1  UNK     1      28.371  -7.986  31.263  1.00  0.00    -0.379 N 
HETATM   28  H10 UNK     1      29.073  -8.403  30.667  1.00  0.00     0.158 HD
HETATM   29  H9  UNK     1      27.430  -7.840  30.918  1.00  0.00     0.158 HD
ENDBRANCH  11  27
TORSDOF 3
ENDMDL
MODEL 9
REMARK VINA RESULT:      -7.8      2.659      6.546
REMARK  3 active torsions:
REMARK  status: ('A' for Active; 'I' for Inactive)
REMARK    1  A    between atoms: C8_16  and  N1_6 
REMARK    2  A    between atoms: C16_24  and  N2_7 
REMARK    3  A    between atoms: C1_9  and  C3_11 
ROOT
HETATM    1  O1  UNK     1      30.156  -4.881  37.010  1.00  0.00    -0.269 OA
HETATM    2  O2  UNK     1      28.619  -6.339  38.014  1.00  0.00    -0.286 OA
HETATM    3  O3  UNK     1      31.271  -9.421  37.879  1.00  0.00    -0.287 OA
HETATM    4  N3  UNK     1      34.813  -4.734  35.789  1.00  0.00    -0.191 NA
HETATM    5  C1  UNK     1      32.146  -6.923  36.719  1.00  0.00     0.108 C 
HETATM    6  C2  UNK     1      30.790  -7.151  37.350  1.00  0.00     0.065 A 
HETATM    7  C4  UNK     1      32.415  -5.445  36.467  1.00  0.00     0.086 C 
HETATM    8  C5  UNK     1      29.879  -6.167  37.461  1.00  0.00     0.204 A 
HETATM    9  C6  UNK     1      30.467  -8.498  37.893  1.00  0.00     0.197 A 
HETATM   10  C7  UNK     1      29.121  -8.669  38.456  1.00  0.00     0.049 A 
HETATM   11  C8  UNK     1      31.440  -4.519  36.611  1.00  0.00     0.162 C 
HETATM   12  C9  UNK     1      28.263  -7.574  38.486  1.00  0.00     0.092 A 
HETATM   13  C12 UNK     1      28.705  -9.905  38.957  1.00  0.00     0.018 A 
HETATM   14  C15 UNK     1      26.979  -7.708  39.015  1.00  0.00     0.038 A 
HETATM   15  C17 UNK     1      33.739  -5.053  36.092  1.00  0.00     0.100 C 
HETATM   16  C18 UNK     1      27.421 -10.037  39.486  1.00  0.00     0.001 A 
HETATM   17  C19 UNK     1      26.558  -8.941  39.516  1.00  0.00     0.003 A 
ENDROOT
BRANCH   5  18
HETATM   18  C3  UNK     1      32.269  -7.698  35.440  1.00  0.00    -0.044 A 
HETATM   19  C10 UNK     1      31.333  -7.510  34.429  1.00  0.00     0.011 A 
HETATM   20  C13 UNK     1      31.447  -8.231  33.240  1.00  0.00     0.036 A 
HETATM   21  C16 UNK     1      32.496  -9.135  33.070  1.00  0.00     0.102 A 
HETATM   22  C14 UNK     1      33.432  -9.317  34.089  1.00  0.00     0.036 A 
HETATM   23  C11 UNK     1      33.317  -8.596  35.277  1.00  0.00     0.011 A 
BRANCH  21  24
HETATM   24  N2  UNK     1      32.612  -9.869  31.860  1.00  0.00    -0.116 N 
HETATM   25  O4  UNK     1      33.753 -10.074  31.380  1.00  0.00    -0.532 OA
HETATM   26  O5  UNK     1      31.571 -10.295  31.305  1.00  0.00    -0.532 OA
ENDBRANCH  21  24
ENDBRANCH   5  18
BRANCH  11  27
HETATM   27  N1  UNK     1      31.591  -3.178  36.392  1.00  0.00    -0.379 N 
HETATM   28  H10 UNK     1      32.496  -2.785  36.167  1.00  0.00     0.158 HD
HETATM   29  H9  UNK     1      30.777  -2.579  36.454  1.00  0.00     0.158 HD
ENDBRANCH  11  27
TORSDOF 3
ENDMDL
MODEL 10
REMARK VINA RESULT:      -7.8      2.401      3.148
REMARK  3 active torsions:
REMARK  status: ('A' for Active; 'I' for Inactive)
REMARK    1  A    between atoms: C8_16  and  N1_6 
REMARK    2  A    between atoms: C16_24  and  N2_7 
REMARK    3  A    between atoms: C1_9  and  C3_11 
ROOT
HETATM    1  O1  UNK     1      32.632  -6.596  34.289  1.00  0.00    -0.269 OA
HETATM    2  O2  UNK     1      31.286  -7.125  32.444  1.00  0.00    -0.286 OA
HETATM    3  O3  UNK     1      27.890  -6.353  34.546  1.00  0.00    -0.287 OA
HETATM    4  N3  UNK     1      32.238  -4.643  38.675  1.00  0.00    -0.191 NA
HETATM    5  C1  UNK     1      30.380  -6.094  35.990  1.00  0.00     0.108 C 
HETATM    6  C2  UNK     1      30.265  -6.498  34.536  1.00  0.00     0.065 A 
HETATM    7  C4  UNK     1      31.816  -5.764  36.377  1.00  0.00     0.086 C 
HETATM    8  C5  UNK     1      31.348  -6.733  33.773  1.00  0.00     0.204 A 
HETATM    9  C6  UNK     1      28.913  -6.610  33.925  1.00  0.00     0.197 A 
HETATM   10  C7  UNK     1      28.865  -7.046  32.523  1.00  0.00     0.049 A 
HETATM   11  C8  UNK     1      32.846  -6.026  35.542  1.00  0.00     0.162 C 
HETATM   12  C9  UNK     1      30.061  -7.284  31.854  1.00  0.00     0.092 A 
HETATM   13  C12 UNK     1      27.643  -7.219  31.868  1.00  0.00     0.018 A 
HETATM   14  C15 UNK     1      30.044  -7.699  30.522  1.00  0.00     0.038 A 
HETATM   15  C17 UNK     1      32.049  -5.145  37.646  1.00  0.00     0.100 C 
HETATM   16  C18 UNK     1      27.628  -7.634  30.536  1.00  0.00     0.001 A 
HETATM   17  C19 UNK     1      28.827  -7.874  29.863  1.00  0.00     0.003 A 
ENDROOT
BRANCH   5  18
HETATM   18  C3  UNK     1      29.836  -7.171  36.881  1.00  0.00    -0.044 A 
HETATM   19  C10 UNK     1      30.291  -8.477  36.739  1.00  0.00     0.011 A 
HETATM   20  C13 UNK     1      29.785  -9.479  37.567  1.00  0.00     0.036 A 
HETATM   21  C16 UNK     1      28.828  -9.168  38.533  1.00  0.00     0.102 A 
HETATM   22  C14 UNK     1      28.378  -7.855  38.671  1.00  0.00     0.036 A 
HETATM   23  C11 UNK     1      28.883  -6.854  37.842  1.00  0.00     0.011 A 
BRANCH  21  24
HETATM   24  N2  UNK     1      28.312 -10.188  39.376  1.00  0.00    -0.116 N 
HETATM   25  O4  UNK     1      27.080 -10.423  39.362  1.00  0.00    -0.532 OA
HETATM   26  O5  UNK     1      29.103 -10.826  40.112  1.00  0.00    -0.532 OA
ENDBRANCH  21  24
ENDBRANCH   5  18
BRANCH  11  27
HETATM   27  N1  UNK     1      34.163  -5.777  35.816  1.00  0.00    -0.379 N 
HETATM   28  H10 UNK     1      34.797  -6.529  36.052  1.00  0.00     0.158 HD
HETATM   29  H9  UNK     1      34.496  -4.822  35.775  1.00  0.00     0.158 HD
ENDBRANCH  11  27
TORSDOF 3
ENDMDL
