MODEL 1
REMARK VINA RESULT:      -8.7      0.000      0.000
REMARK  4 active torsions:
REMARK  status: ('A' for Active; 'I' for Inactive)
REMARK    1  A    between atoms: C1_8  and  N1_6 
REMARK    2  A    between atoms: C3_10  and  N1_6 
REMARK    3  A    between atoms: C5_12  and  N2_7 
REMARK    4  A    between atoms: C3_10  and  C6_13 
ROOT
HETATM    1  O1  UNK     1      19.616  -1.486  32.969  1.00  0.00    -0.273 OA
HETATM    2  O2  UNK     1      18.886  -1.651  35.124  1.00  0.00    -0.257 OA
HETATM    3  C1  UNK     1      18.344   1.079  32.816  1.00  0.00     0.081 A 
HETATM    4  C2  UNK     1      19.067   0.509  31.651  1.00  0.00     0.027 A 
HETATM    5  C4  UNK     1      19.675  -0.746  31.771  1.00  0.00     0.092 A 
HETATM    6  C5  UNK     1      18.326   0.315  33.922  1.00  0.00     0.205 A 
HETATM    7  C7  UNK     1      19.189   1.151  30.407  1.00  0.00     0.017 A 
HETATM    8  C8  UNK     1      18.947  -1.008  34.083  1.00  0.00     0.324 A 
HETATM    9  C9  UNK     1      20.375  -1.351  30.722  1.00  0.00     0.038 A 
HETATM   10  C10 UNK     1      19.886   0.557  29.346  1.00  0.00     0.001 A 
HETATM   11  C13 UNK     1      20.479  -0.691  29.503  1.00  0.00     0.003 A 
ENDROOT
BRANCH   3  12
HETATM   12  N1  UNK     1      17.764   2.313  32.674  1.00  0.00    -0.383 N 
HETATM   13  H3  UNK     1      16.829   2.400  32.299  1.00  0.00     0.160 HD
BRANCH  12  14
HETATM   14  C3  UNK     1      18.379   3.463  33.305  1.00  0.00     0.158 C 
BRANCH  14  15
HETATM   15  C6  UNK     1      18.248   4.689  32.442  1.00  0.00    -0.038 A 
HETATM   16  C11 UNK     1      19.056   4.826  31.321  1.00  0.00     0.051 A 
HETATM   17  C14 UNK     1      18.936   5.961  30.521  1.00  0.00     0.117 A 
HETATM   18  F1  UNK     1      19.710   6.103  29.437  1.00  0.00    -0.206 F 
HETATM   19  C16 UNK     1      18.009   6.950  30.850  1.00  0.00     0.042 A 
HETATM   20  C15 UNK     1      17.202   6.803  31.977  1.00  0.00     0.004 A 
HETATM   21  C12 UNK     1      17.322   5.667  32.778  1.00  0.00     0.009 A 
ENDBRANCH  14  15
ENDBRANCH  12  14
ENDBRANCH   3  12
BRANCH   6  22
HETATM   22  N2  UNK     1      17.638   0.830  35.063  1.00  0.00    -0.107 N 
HETATM   23  O3  UNK     1      16.417   0.650  35.111  1.00  0.00    -0.531 OA
HETATM   24  O4  UNK     1      18.320   1.416  35.911  1.00  0.00    -0.531 OA
ENDBRANCH   6  22
TORSDOF 4
ENDMDL
MODEL 2
REMARK VINA RESULT:      -8.6     23.427     24.999
REMARK  4 active torsions:
REMARK  status: ('A' for Active; 'I' for Inactive)
REMARK    1  A    between atoms: C1_8  and  N1_6 
REMARK    2  A    between atoms: C3_10  and  N1_6 
REMARK    3  A    between atoms: C5_12  and  N2_7 
REMARK    4  A    between atoms: C3_10  and  C6_13 
ROOT
HETATM    1  O1  UNK     1      16.264   6.164   9.899  1.00  0.00    -0.273 OA
HETATM    2  O2  UNK     1      15.290   4.106   9.768  1.00  0.00    -0.257 OA
HETATM    3  C1  UNK     1      13.658   7.329   9.628  1.00  0.00     0.081 A 
HETATM    4  C2  UNK     1      14.870   8.178   9.760  1.00  0.00     0.027 A 
HETATM    5  C4  UNK     1      16.122   7.567   9.892  1.00  0.00     0.092 A 
HETATM    6  C5  UNK     1      13.872   6.002   9.640  1.00  0.00     0.205 A 
HETATM    7  C7  UNK     1      14.852   9.583   9.761  1.00  0.00     0.017 A 
HETATM    8  C8  UNK     1      15.170   5.325   9.770  1.00  0.00     0.324 A 
HETATM    9  C9  UNK     1      17.309   8.294  10.021  1.00  0.00     0.038 A 
HETATM   10  C10 UNK     1      16.033  10.326   9.889  1.00  0.00     0.001 A 
HETATM   11  C13 UNK     1      17.260   9.683  10.020  1.00  0.00     0.003 A 
ENDROOT
BRANCH   3  12
HETATM   12  N1  UNK     1      12.443   7.953   9.509  1.00  0.00    -0.383 N 
HETATM   13  H3  UNK     1      11.942   8.261  10.332  1.00  0.00     0.160 HD
BRANCH  12  14
HETATM   14  C3  UNK     1      12.004   8.409   8.206  1.00  0.00     0.158 C 
BRANCH  14  15
HETATM   15  C6  UNK     1      10.909   7.530   7.665  1.00  0.00    -0.038 A 
HETATM   16  C11 UNK     1       9.792   7.266   8.448  1.00  0.00     0.051 A 
HETATM   17  C14 UNK     1       8.778   6.451   7.948  1.00  0.00     0.117 A 
HETATM   18  F1  UNK     1       7.697   6.192   8.695  1.00  0.00    -0.206 F 
HETATM   19  C16 UNK     1       8.889   5.906   6.669  1.00  0.00     0.042 A 
HETATM   20  C15 UNK     1      10.014   6.176   5.891  1.00  0.00     0.004 A 
HETATM   21  C12 UNK     1      11.029   6.992   6.391  1.00  0.00     0.009 A 
ENDBRANCH  14  15
ENDBRANCH  12  14
ENDBRANCH   3  12
BRANCH   6  22
HETATM   22  N2  UNK     1      12.730   5.153   9.514  1.00  0.00    -0.107 N 
HETATM   23  O3  UNK     1      11.944   5.125  10.467  1.00  0.00    -0.531 OA
HETATM   24  O4  UNK     1      12.620   4.513   8.462  1.00  0.00    -0.531 OA
ENDBRANCH   6  22
TORSDOF 4
ENDMDL
MODEL 3
REMARK VINA RESULT:      -8.4      2.185      5.442
REMARK  4 active torsions:
REMARK  status: ('A' for Active; 'I' for Inactive)
REMARK    1  A    between atoms: C1_8  and  N1_6 
REMARK    2  A    between atoms: C3_10  and  N1_6 
REMARK    3  A    between atoms: C5_12  and  N2_7 
REMARK    4  A    between atoms: C3_10  and  C6_13 
ROOT
HETATM    1  O1  UNK     1      19.112   4.126  35.067  1.00  0.00    -0.273 OA
HETATM    2  O2  UNK     1      18.831   2.089  36.054  1.00  0.00    -0.257 OA
HETATM    3  C1  UNK     1      18.091   3.002  32.635  1.00  0.00     0.081 A 
HETATM    4  C2  UNK     1      18.519   4.422  32.705  1.00  0.00     0.027 A 
HETATM    5  C4  UNK     1      19.009   4.930  33.913  1.00  0.00     0.092 A 
HETATM    6  C5  UNK     1      18.221   2.297  33.772  1.00  0.00     0.205 A 
HETATM    7  C7  UNK     1      18.467   5.316  31.621  1.00  0.00     0.017 A 
HETATM    8  C8  UNK     1      18.737   2.793  35.056  1.00  0.00     0.324 A 
HETATM    9  C9  UNK     1      19.431   6.255  34.062  1.00  0.00     0.038 A 
HETATM   10  C10 UNK     1      18.887   6.646  31.754  1.00  0.00     0.001 A 
HETATM   11  C13 UNK     1      19.367   7.116  32.972  1.00  0.00     0.003 A 
ENDROOT
BRANCH   3  12
HETATM   12  N1  UNK     1      17.606   2.532  31.441  1.00  0.00    -0.383 N 
HETATM   13  H3  UNK     1      16.644   2.232  31.361  1.00  0.00     0.160 HD
BRANCH  12  14
HETATM   14  C3  UNK     1      18.389   2.715  30.236  1.00  0.00     0.158 C 
BRANCH  14  15
HETATM   15  C6  UNK     1      18.997   1.415  29.782  1.00  0.00    -0.038 A 
HETATM   16  C11 UNK     1      18.552   0.825  28.607  1.00  0.00     0.051 A 
HETATM   17  C14 UNK     1      19.114  -0.380  28.187  1.00  0.00     0.117 A 
HETATM   18  F1  UNK     1      18.693  -0.957  27.054  1.00  0.00    -0.206 F 
HETATM   19  C16 UNK     1      20.117  -0.984  28.946  1.00  0.00     0.042 A 
HETATM   20  C15 UNK     1      20.556  -0.382  30.124  1.00  0.00     0.004 A 
HETATM   21  C12 UNK     1      19.994   0.822  30.545  1.00  0.00     0.009 A 
ENDBRANCH  14  15
ENDBRANCH  12  14
ENDBRANCH   3  12
BRANCH   6  22
HETATM   22  N2  UNK     1      17.821   0.926  33.743  1.00  0.00    -0.107 N 
HETATM   23  O3  UNK     1      18.680   0.097  33.425  1.00  0.00    -0.531 OA
HETATM   24  O4  UNK     1      16.645   0.679  34.036  1.00  0.00    -0.531 OA
ENDBRANCH   6  22
TORSDOF 4
ENDMDL
MODEL 4
REMARK VINA RESULT:      -8.3      3.954      5.653
REMARK  4 active torsions:
REMARK  status: ('A' for Active; 'I' for Inactive)
REMARK    1  A    between atoms: C1_8  and  N1_6 
REMARK    2  A    between atoms: C3_10  and  N1_6 
REMARK    3  A    between atoms: C5_12  and  N2_7 
REMARK    4  A    between atoms: C3_10  and  C6_13 
ROOT
HETATM    1  O1  UNK     1      19.326   0.403  28.856  1.00  0.00    -0.273 OA
HETATM    2  O2  UNK     1      18.404   2.437  28.390  1.00  0.00    -0.257 OA
HETATM    3  C1  UNK     1      19.041   1.000  31.646  1.00  0.00     0.081 A 
HETATM    4  C2  UNK     1      19.637  -0.282  31.191  1.00  0.00     0.027 A 
HETATM    5  C4  UNK     1      19.755  -0.533  29.819  1.00  0.00     0.092 A 
HETATM    6  C5  UNK     1      18.658   1.843  30.672  1.00  0.00     0.205 A 
HETATM    7  C7  UNK     1      20.103  -1.287  32.057  1.00  0.00     0.017 A 
HETATM    8  C8  UNK     1      18.772   1.618  29.223  1.00  0.00     0.324 A 
HETATM    9  C9  UNK     1      20.304  -1.714  29.310  1.00  0.00     0.038 A 
HETATM   10  C10 UNK     1      20.657  -2.475  31.561  1.00  0.00     0.001 A 
HETATM   11  C13 UNK     1      20.756  -2.689  30.191  1.00  0.00     0.003 A 
ENDROOT
BRANCH   3  12
HETATM   12  N1  UNK     1      18.929   1.216  32.995  1.00  0.00    -0.383 N 
HETATM   13  H3  UNK     1      19.685   1.649  33.509  1.00  0.00     0.160 HD
BRANCH  12  14
HETATM   14  C3  UNK     1      17.636   1.073  33.633  1.00  0.00     0.158 C 
BRANCH  14  15
HETATM   15  C6  UNK     1      17.768   0.428  34.986  1.00  0.00    -0.038 A 
HETATM   16  C11 UNK     1      17.691   1.213  36.129  1.00  0.00     0.051 A 
HETATM   17  C14 UNK     1      17.814   0.616  37.383  1.00  0.00     0.117 A 
HETATM   18  F1  UNK     1      17.740   1.364  38.492  1.00  0.00    -0.206 F 
HETATM   19  C16 UNK     1      18.013  -0.761  37.482  1.00  0.00     0.042 A 
HETATM   20  C15 UNK     1      18.088  -1.540  36.329  1.00  0.00     0.004 A 
HETATM   21  C12 UNK     1      17.966  -0.943  35.074  1.00  0.00     0.009 A 
ENDBRANCH  14  15
ENDBRANCH  12  14
ENDBRANCH   3  12
BRANCH   6  22
HETATM   22  N2  UNK     1      18.081   3.087  31.071  1.00  0.00    -0.107 N 
HETATM   23  O3  UNK     1      16.850   3.128  31.171  1.00  0.00    -0.531 OA
HETATM   24  O4  UNK     1      18.860   4.024  31.282  1.00  0.00    -0.531 OA
ENDBRANCH   6  22
TORSDOF 4
ENDMDL
MODEL 5
REMARK VINA RESULT:      -8.1      1.626      2.291
REMARK  4 active torsions:
REMARK  status: ('A' for Active; 'I' for Inactive)
REMARK    1  A    between atoms: C1_8  and  N1_6 
REMARK    2  A    between atoms: C3_10  and  N1_6 
REMARK    3  A    between atoms: C5_12  and  N2_7 
REMARK    4  A    between atoms: C3_10  and  C6_13 
ROOT
HETATM    1  O1  UNK     1      19.344  -1.942  35.398  1.00  0.00    -0.273 OA
HETATM    2  O2  UNK     1      18.338  -1.395  37.371  1.00  0.00    -0.257 OA
HETATM    3  C1  UNK     1      18.054   0.323  34.202  1.00  0.00     0.081 A 
HETATM    4  C2  UNK     1      18.936  -0.568  33.406  1.00  0.00     0.027 A 
HETATM    5  C4  UNK     1      19.547  -1.661  34.031  1.00  0.00     0.092 A 
HETATM    6  C5  UNK     1      17.904  -0.009  35.496  1.00  0.00     0.205 A 
HETATM    7  C7  UNK     1      19.209  -0.391  32.039  1.00  0.00     0.017 A 
HETATM    8  C8  UNK     1      18.523  -1.151  36.185  1.00  0.00     0.324 A 
HETATM    9  C9  UNK     1      20.391  -2.546  33.353  1.00  0.00     0.038 A 
HETATM   10  C10 UNK     1      20.052  -1.270  31.346  1.00  0.00     0.001 A 
HETATM   11  C13 UNK     1      20.643  -2.345  32.001  1.00  0.00     0.003 A 
ENDROOT
BRANCH   3  12
HETATM   12  N1  UNK     1      17.474   1.391  33.567  1.00  0.00    -0.383 N 
HETATM   13  H3  UNK     1      16.588   1.285  33.092  1.00  0.00     0.160 HD
BRANCH  12  14
HETATM   14  C3  UNK     1      17.992   2.723  33.803  1.00  0.00     0.158 C 
BRANCH  14  15
HETATM   15  C6  UNK     1      18.320   3.413  32.506  1.00  0.00    -0.038 A 
HETATM   16  C11 UNK     1      18.322   2.685  31.324  1.00  0.00     0.051 A 
HETATM   17  C14 UNK     1      18.627   3.323  30.123  1.00  0.00     0.117 A 
HETATM   18  F1  UNK     1      18.631   2.630  28.977  1.00  0.00    -0.206 F 
HETATM   19  C16 UNK     1      18.927   4.686  30.114  1.00  0.00     0.042 A 
HETATM   20  C15 UNK     1      18.921   5.409  31.306  1.00  0.00     0.004 A 
HETATM   21  C12 UNK     1      18.617   4.770  32.509  1.00  0.00     0.009 A 
ENDBRANCH  14  15
ENDBRANCH  12  14
ENDBRANCH   3  12
BRANCH   6  22
HETATM   22  N2  UNK     1      17.061   0.824  36.293  1.00  0.00    -0.107 N 
HETATM   23  O3  UNK     1      17.613   1.704  36.963  1.00  0.00    -0.531 OA
HETATM   24  O4  UNK     1      15.847   0.597  36.252  1.00  0.00    -0.531 OA
ENDBRANCH   6  22
TORSDOF 4
ENDMDL
MODEL 6
REMARK VINA RESULT:      -8.0      5.321      8.770
REMARK  4 active torsions:
REMARK  status: ('A' for Active; 'I' for Inactive)
REMARK    1  A    between atoms: C1_8  and  N1_6 
REMARK    2  A    between atoms: C3_10  and  N1_6 
REMARK    3  A    between atoms: C5_12  and  N2_7 
REMARK    4  A    between atoms: C3_10  and  C6_13 
ROOT
HETATM    1  O1  UNK     1      17.885  -0.620  33.306  1.00  0.00    -0.273 OA
HETATM    2  O2  UNK     1      19.202  -1.520  31.676  1.00  0.00    -0.257 OA
HETATM    3  C1  UNK     1      19.645  -1.773  35.255  1.00  0.00     0.081 A 
HETATM    4  C2  UNK     1      18.454  -0.985  35.665  1.00  0.00     0.027 A 
HETATM    5  C4  UNK     1      17.623  -0.439  34.680  1.00  0.00     0.092 A 
HETATM    6  C5  UNK     1      19.827  -1.906  33.931  1.00  0.00     0.205 A 
HETATM    7  C7  UNK     1      18.091  -0.742  37.001  1.00  0.00     0.017 A 
HETATM    8  C8  UNK     1      18.975  -1.354  32.868  1.00  0.00     0.324 A 
HETATM    9  C9  UNK     1      16.485   0.315  34.982  1.00  0.00     0.038 A 
HETATM   10  C10 UNK     1      16.952   0.011  37.319  1.00  0.00     0.001 A 
HETATM   11  C13 UNK     1      16.151   0.540  36.313  1.00  0.00     0.003 A 
ENDROOT
BRANCH   3  12
HETATM   12  N1  UNK     1      20.446  -2.290  36.240  1.00  0.00    -0.383 N 
HETATM   13  H3  UNK     1      21.385  -1.938  36.374  1.00  0.00     0.160 HD
BRANCH  12  14
HETATM   14  C3  UNK     1      19.863  -3.145  37.254  1.00  0.00     0.158 C 
BRANCH  14  15
HETATM   15  C6  UNK     1      20.290  -4.575  37.066  1.00  0.00    -0.038 A 
HETATM   16  C11 UNK     1      19.713  -5.336  36.057  1.00  0.00     0.051 A 
HETATM   17  C14 UNK     1      20.107  -6.661  35.884  1.00  0.00     0.117 A 
HETATM   18  F1  UNK     1      19.558  -7.403  34.913  1.00  0.00    -0.206 F 
HETATM   19  C16 UNK     1      21.076  -7.216  36.721  1.00  0.00     0.042 A 
HETATM   20  C15 UNK     1      21.650  -6.444  37.730  1.00  0.00     0.004 A 
HETATM   21  C12 UNK     1      21.255  -5.118  37.905  1.00  0.00     0.009 A 
ENDBRANCH  14  15
ENDBRANCH  12  14
ENDBRANCH   3  12
BRANCH   6  22
HETATM   22  N2  UNK     1      20.962  -2.659  33.498  1.00  0.00    -0.107 N 
HETATM   23  O3  UNK     1      20.786  -3.861  33.274  1.00  0.00    -0.531 OA
HETATM   24  O4  UNK     1      22.030  -2.047  33.384  1.00  0.00    -0.531 OA
ENDBRANCH   6  22
TORSDOF 4
ENDMDL
MODEL 7
REMARK VINA RESULT:      -8.0      3.342      5.786
REMARK  4 active torsions:
REMARK  status: ('A' for Active; 'I' for Inactive)
REMARK    1  A    between atoms: C1_8  and  N1_6 
REMARK    2  A    between atoms: C3_10  and  N1_6 
REMARK    3  A    between atoms: C5_12  and  N2_7 
REMARK    4  A    between atoms: C3_10  and  C6_13 
ROOT
HETATM    1  O1  UNK     1      19.577   1.419  29.268  1.00  0.00    -0.273 OA
HETATM    2  O2  UNK     1      20.457  -0.558  28.548  1.00  0.00    -0.257 OA
HETATM    3  C1  UNK     1      19.324   0.266  31.881  1.00  0.00     0.081 A 
HETATM    4  C2  UNK     1      18.888   1.660  31.611  1.00  0.00     0.027 A 
HETATM    5  C4  UNK     1      19.032   2.183  30.321  1.00  0.00     0.092 A 
HETATM    6  C5  UNK     1      19.829  -0.401  30.830  1.00  0.00     0.205 A 
HETATM    7  C7  UNK     1      18.328   2.513  32.577  1.00  0.00     0.017 A 
HETATM    8  C8  UNK     1      19.990   0.112  29.462  1.00  0.00     0.324 A 
HETATM    9  C9  UNK     1      18.647   3.485  29.984  1.00  0.00     0.038 A 
HETATM   10  C10 UNK     1      17.937   3.820  32.255  1.00  0.00     0.001 A 
HETATM   11  C13 UNK     1      18.097   4.306  30.962  1.00  0.00     0.003 A 
ENDROOT
BRANCH   3  12
HETATM   12  N1  UNK     1      19.179  -0.219  33.156  1.00  0.00    -0.383 N 
HETATM   13  H3  UNK     1      19.908  -0.079  33.843  1.00  0.00     0.160 HD
BRANCH  12  14
HETATM   14  C3  UNK     1      17.882  -0.693  33.592  1.00  0.00     0.158 C 
BRANCH  14  15
HETATM   15  C6  UNK     1      17.462  -0.022  34.871  1.00  0.00    -0.038 A 
HETATM   16  C11 UNK     1      16.112   0.080  35.181  1.00  0.00     0.051 A 
HETATM   17  C14 UNK     1      15.723   0.703  36.365  1.00  0.00     0.117 A 
HETATM   18  F1  UNK     1      14.423   0.805  36.674  1.00  0.00    -0.206 F 
HETATM   19  C16 UNK     1      16.687   1.219  37.231  1.00  0.00     0.042 A 
HETATM   20  C15 UNK     1      18.040   1.112  36.912  1.00  0.00     0.004 A 
HETATM   21  C12 UNK     1      18.430   0.489  35.726  1.00  0.00     0.009 A 
ENDBRANCH  14  15
ENDBRANCH  12  14
ENDBRANCH   3  12
BRANCH   6  22
HETATM   22  N2  UNK     1      20.258  -1.745  31.051  1.00  0.00    -0.107 N 
HETATM   23  O3  UNK     1      19.790  -2.614  30.307  1.00  0.00    -0.531 OA
HETATM   24  O4  UNK     1      21.062  -1.933  31.972  1.00  0.00    -0.531 OA
ENDBRANCH   6  22
TORSDOF 4
ENDMDL
MODEL 8
REMARK VINA RESULT:      -8.0      2.550      4.171
REMARK  4 active torsions:
REMARK  status: ('A' for Active; 'I' for Inactive)
REMARK    1  A    between atoms: C1_8  and  N1_6 
REMARK    2  A    between atoms: C3_10  and  N1_6 
REMARK    3  A    between atoms: C5_12  and  N2_7 
REMARK    4  A    between atoms: C3_10  and  C6_13 
ROOT
HETATM    1  O1  UNK     1      19.153  -0.656  33.148  1.00  0.00    -0.273 OA
HETATM    2  O2  UNK     1      19.536  -1.194  30.965  1.00  0.00    -0.257 OA
HETATM    3  C1  UNK     1      18.285   1.934  32.276  1.00  0.00     0.081 A 
HETATM    4  C2  UNK     1      18.304   1.574  33.717  1.00  0.00     0.027 A 
HETATM    5  C4  UNK     1      18.734   0.298  34.098  1.00  0.00     0.092 A 
HETATM    6  C5  UNK     1      18.702   0.976  31.431  1.00  0.00     0.205 A 
HETATM    7  C7  UNK     1      17.914   2.442  34.752  1.00  0.00     0.017 A 
HETATM    8  C8  UNK     1      19.165  -0.371  31.793  1.00  0.00     0.324 A 
HETATM    9  C9  UNK     1      18.780  -0.119  35.432  1.00  0.00     0.038 A 
HETATM   10  C10 UNK     1      17.956   2.039  36.093  1.00  0.00     0.001 A 
HETATM   11  C13 UNK     1      18.387   0.761  36.433  1.00  0.00     0.003 A 
ENDROOT
BRANCH   3  12
HETATM   12  N1  UNK     1      17.852   3.188  31.930  1.00  0.00    -0.383 N 
HETATM   13  H3  UNK     1      16.902   3.474  32.125  1.00  0.00     0.160 HD
BRANCH  12  14
HETATM   14  C3  UNK     1      18.821   4.189  31.533  1.00  0.00     0.158 C 
BRANCH  14  15
HETATM   15  C6  UNK     1      18.808   5.360  32.477  1.00  0.00    -0.038 A 
HETATM   16  C11 UNK     1      17.669   5.622  33.228  1.00  0.00     0.051 A 
HETATM   17  C14 UNK     1      17.656   6.707  34.103  1.00  0.00     0.117 A 
HETATM   18  F1  UNK     1      16.563   6.968  34.832  1.00  0.00    -0.206 F 
HETATM   19  C16 UNK     1      18.783   7.522  34.219  1.00  0.00     0.042 A 
HETATM   20  C15 UNK     1      19.921   7.250  33.462  1.00  0.00     0.004 A 
HETATM   21  C12 UNK     1      19.935   6.165  32.586  1.00  0.00     0.009 A 
ENDBRANCH  14  15
ENDBRANCH  12  14
ENDBRANCH   3  12
BRANCH   6  22
HETATM   22  N2  UNK     1      18.699   1.286  30.036  1.00  0.00    -0.107 N 
HETATM   23  O3  UNK     1      17.605   1.537  29.519  1.00  0.00    -0.531 OA
HETATM   24  O4  UNK     1      19.792   1.276  29.457  1.00  0.00    -0.531 OA
ENDBRANCH   6  22
TORSDOF 4
ENDMDL
MODEL 9
REMARK VINA RESULT:      -7.9      1.717      2.124
REMARK  4 active torsions:
REMARK  status: ('A' for Active; 'I' for Inactive)
REMARK    1  A    between atoms: C1_8  and  N1_6 
REMARK    2  A    between atoms: C3_10  and  N1_6 
REMARK    3  A    between atoms: C5_12  and  N2_7 
REMARK    4  A    between atoms: C3_10  and  C6_13 
ROOT
HETATM    1  O1  UNK     1      19.135  -0.268  32.404  1.00  0.00    -0.273 OA
HETATM    2  O2  UNK     1      19.060  -1.015  34.558  1.00  0.00    -0.257 OA
HETATM    3  C1  UNK     1      18.234   2.288  33.342  1.00  0.00     0.081 A 
HETATM    4  C2  UNK     1      18.496   2.047  31.900  1.00  0.00     0.027 A 
HETATM    5  C4  UNK     1      18.936   0.784  31.486  1.00  0.00     0.092 A 
HETATM    6  C5  UNK     1      18.441   1.239  34.155  1.00  0.00     0.205 A 
HETATM    7  C7  UNK     1      18.330   3.016  30.895  1.00  0.00     0.017 A 
HETATM    8  C8  UNK     1      18.896  -0.102  33.758  1.00  0.00     0.324 A 
HETATM    9  C9  UNK     1      19.206   0.477  30.149  1.00  0.00     0.038 A 
HETATM   10  C10 UNK     1      18.595   2.723  29.551  1.00  0.00     0.001 A 
HETATM   11  C13 UNK     1      19.033   1.456  29.178  1.00  0.00     0.003 A 
ENDROOT
BRANCH   3  12
HETATM   12  N1  UNK     1      17.811   3.536  33.721  1.00  0.00    -0.383 N 
HETATM   13  H3  UNK     1      16.848   3.691  33.987  1.00  0.00     0.160 HD
BRANCH  12  14
HETATM   14  C3  UNK     1      18.792   4.565  33.996  1.00  0.00     0.158 C 
BRANCH  14  15
HETATM   15  C6  UNK     1      18.283   5.922  33.591  1.00  0.00    -0.038 A 
HETATM   16  C11 UNK     1      17.203   6.017  32.723  1.00  0.00     0.051 A 
HETATM   17  C14 UNK     1      16.731   7.273  32.347  1.00  0.00     0.117 A 
HETATM   18  F1  UNK     1      15.690   7.375  31.510  1.00  0.00    -0.206 F 
HETATM   19  C16 UNK     1      17.343   8.425  32.842  1.00  0.00     0.042 A 
HETATM   20  C15 UNK     1      18.426   8.319  33.714  1.00  0.00     0.004 A 
HETATM   21  C12 UNK     1      18.899   7.062  34.090  1.00  0.00     0.009 A 
ENDBRANCH  14  15
ENDBRANCH  12  14
ENDBRANCH   3  12
BRANCH   6  22
HETATM   22  N2  UNK     1      18.198   1.432  35.549  1.00  0.00    -0.107 N 
HETATM   23  O3  UNK     1      17.051   1.215  35.955  1.00  0.00    -0.531 OA
HETATM   24  O4  UNK     1      19.155   1.804  36.239  1.00  0.00    -0.531 OA
ENDBRANCH   6  22
TORSDOF 4
ENDMDL
MODEL 10
REMARK VINA RESULT:      -7.9      3.747      5.645
REMARK  4 active torsions:
REMARK  status: ('A' for Active; 'I' for Inactive)
REMARK    1  A    between atoms: C1_8  and  N1_6 
REMARK    2  A    between atoms: C3_10  and  N1_6 
REMARK    3  A    between atoms: C5_12  and  N2_7 
REMARK    4  A    between atoms: C3_10  and  C6_13 
ROOT
HETATM    1  O1  UNK     1      19.436   2.453  29.715  1.00  0.00    -0.273 OA
HETATM    2  O2  UNK     1      18.982   4.688  29.748  1.00  0.00    -0.257 OA
HETATM    3  C1  UNK     1      18.343   2.271  32.360  1.00  0.00     0.081 A 
HETATM    4  C2  UNK     1      18.886   1.074  31.668  1.00  0.00     0.027 A 
HETATM    5  C4  UNK     1      19.409   1.208  30.377  1.00  0.00     0.092 A 
HETATM    6  C5  UNK     1      18.407   3.422  31.669  1.00  0.00     0.205 A 
HETATM    7  C7  UNK     1      18.915  -0.215  32.228  1.00  0.00     0.017 A 
HETATM    8  C8  UNK     1      18.953   3.603  30.316  1.00  0.00     0.324 A 
HETATM    9  C9  UNK     1      19.937   0.131  29.658  1.00  0.00     0.038 A 
HETATM   10  C10 UNK     1      19.443  -1.304  31.521  1.00  0.00     0.001 A 
HETATM   11  C13 UNK     1      19.952  -1.132  30.238  1.00  0.00     0.003 A 
ENDROOT
BRANCH   3  12
HETATM   12  N1  UNK     1      17.830   2.110  33.621  1.00  0.00    -0.383 N 
HETATM   13  H3  UNK     1      16.918   1.694  33.754  1.00  0.00     0.160 HD
BRANCH  12  14
HETATM   14  C3  UNK     1      18.697   2.287  34.768  1.00  0.00     0.158 C 
BRANCH  14  15
HETATM   15  C6  UNK     1      18.398   1.269  35.835  1.00  0.00    -0.038 A 
HETATM   16  C11 UNK     1      18.674  -0.072  35.598  1.00  0.00     0.051 A 
HETATM   17  C14 UNK     1      18.396  -1.016  36.586  1.00  0.00     0.117 A 
HETATM   18  F1  UNK     1      18.659  -2.311  36.368  1.00  0.00    -0.206 F 
HETATM   19  C16 UNK     1      17.845  -0.611  37.802  1.00  0.00     0.042 A 
HETATM   20  C15 UNK     1      17.573   0.737  38.030  1.00  0.00     0.004 A 
HETATM   21  C12 UNK     1      17.850   1.682  37.042  1.00  0.00     0.009 A 
ENDBRANCH  14  15
ENDBRANCH  12  14
ENDBRANCH   3  12
BRANCH   6  22
HETATM   22  N2  UNK     1      17.895   4.596  32.302  1.00  0.00    -0.107 N 
HETATM   23  O3  UNK     1      16.748   4.942  32.000  1.00  0.00    -0.531 OA
HETATM   24  O4  UNK     1      18.642   5.173  33.101  1.00  0.00    -0.531 OA
ENDBRANCH   6  22
TORSDOF 4
ENDMDL
