MODEL 1
REMARK VINA RESULT:      -7.9      0.000      0.000
REMARK  3 active torsions:
REMARK  status: ('A' for Active; 'I' for Inactive)
REMARK    1  A    between atoms: C7_11  and  O2_2 
REMARK    2  A    between atoms: C16_20  and  O4_4 
REMARK    3  A    between atoms: C3_7  and  C4_8 
ROOT
HETATM    1  O1  UNK     1      16.938   7.462  32.260  1.00  0.00    -0.306 OA
HETATM    2  O3  UNK     1      19.758   9.342  34.522  1.00  0.00    -0.284 OA
HETATM    3  C1  UNK     1      17.558   9.337  33.670  1.00  0.00     0.051 A 
HETATM    4  C2  UNK     1      16.640   8.646  32.882  1.00  0.00     0.090 A 
HETATM    5  C3  UNK     1      18.203   6.923  32.433  1.00  0.00     0.123 A 
HETATM    6  C5  UNK     1      18.907   8.778  33.846  1.00  0.00     0.220 A 
HETATM    7  C6  UNK     1      17.199  10.541  34.280  1.00  0.00     0.025 A 
HETATM    8  C7  UNK     1      19.182   7.493  33.159  1.00  0.00     0.152 A 
HETATM    9  C8  UNK     1      15.912  11.049  34.095  1.00  0.00    -0.061 A 
HETATM   10  C9  UNK     1      15.354   9.156  32.698  1.00  0.00     0.039 A 
HETATM   11  C10 UNK     1      14.992  10.358  33.306  1.00  0.00     0.009 A 
HETATM   12  C13 UNK     1      15.520  12.334  34.744  1.00  0.00     0.048 C 
ENDROOT
BRANCH   5  13
HETATM   13  C4  UNK     1      18.391   5.651  31.713  1.00  0.00     0.001 A 
HETATM   14  C11 UNK     1      18.912   5.652  30.419  1.00  0.00     0.017 A 
HETATM   15  C14 UNK     1      19.088   4.447  29.737  1.00  0.00     0.037 A 
HETATM   16  C16 UNK     1      18.744   3.243  30.349  1.00  0.00     0.068 A 
HETATM   17  C15 UNK     1      18.222   3.241  31.643  1.00  0.00     0.037 A 
HETATM   18  C12 UNK     1      18.045   4.446  32.325  1.00  0.00     0.017 A 
BRANCH  16  19
HETATM   19  O4  UNK     1      18.915   2.069  29.684  1.00  0.00    -0.356 OA
HETATM   20  C17 UNK     1      17.994   1.775  28.634  1.00  0.00     0.210 C 
ENDBRANCH  16  19
ENDBRANCH   5  13
BRANCH   8  21
HETATM   21  O2  UNK     1      20.441   6.947  33.285  1.00  0.00    -0.355 OA
HETATM   22  H11 UNK     1      20.468   6.078  32.853  1.00  0.00     0.218 HD
ENDBRANCH   8  21
TORSDOF 3
ENDMDL
MODEL 2
REMARK VINA RESULT:      -7.6      1.315      1.777
REMARK  3 active torsions:
REMARK  status: ('A' for Active; 'I' for Inactive)
REMARK    1  A    between atoms: C7_11  and  O2_2 
REMARK    2  A    between atoms: C16_20  and  O4_4 
REMARK    3  A    between atoms: C3_7  and  C4_8 
ROOT
HETATM    1  O1  UNK     1      16.611   6.107  32.420  1.00  0.00    -0.306 OA
HETATM    2  O3  UNK     1      19.375   8.490  34.233  1.00  0.00    -0.284 OA
HETATM    3  C1  UNK     1      17.099   8.047  33.794  1.00  0.00     0.051 A 
HETATM    4  C2  UNK     1      16.205   7.195  33.149  1.00  0.00     0.090 A 
HETATM    5  C3  UNK     1      17.967   5.836  32.333  1.00  0.00     0.123 A 
HETATM    6  C5  UNK     1      18.541   7.774  33.693  1.00  0.00     0.220 A 
HETATM    7  C6  UNK     1      16.630   9.142  34.522  1.00  0.00     0.025 A 
HETATM    8  C7  UNK     1      18.931   6.583  32.900  1.00  0.00     0.152 A 
HETATM    9  C8  UNK     1      15.256   9.379  34.600  1.00  0.00    -0.061 A 
HETATM   10  C9  UNK     1      14.833   7.434  33.228  1.00  0.00     0.039 A 
HETATM   11  C10 UNK     1      14.360   8.527  33.954  1.00  0.00     0.009 A 
HETATM   12  C13 UNK     1      14.746  10.546  35.377  1.00  0.00     0.048 C 
ENDROOT
BRANCH   5  13
HETATM   13  C4  UNK     1      18.264   4.641  31.524  1.00  0.00     0.001 A 
HETATM   14  C11 UNK     1      18.148   3.370  32.087  1.00  0.00     0.017 A 
HETATM   15  C14 UNK     1      18.430   2.239  31.320  1.00  0.00     0.037 A 
HETATM   16  C16 UNK     1      18.828   2.379  29.992  1.00  0.00     0.068 A 
HETATM   17  C15 UNK     1      18.945   3.650  29.428  1.00  0.00     0.037 A 
HETATM   18  C12 UNK     1      18.663   4.781  30.194  1.00  0.00     0.017 A 
BRANCH  16  19
HETATM   19  O4  UNK     1      19.104   1.276  29.244  1.00  0.00    -0.356 OA
HETATM   20  C17 UNK     1      20.036   0.340  29.785  1.00  0.00     0.210 C 
ENDBRANCH  16  19
ENDBRANCH   5  13
BRANCH   8  21
HETATM   21  O2  UNK     1      20.275   6.305  32.767  1.00  0.00    -0.355 OA
HETATM   22  H11 UNK     1      20.636   6.005  33.616  1.00  0.00     0.218 HD
ENDBRANCH   8  21
TORSDOF 3
ENDMDL
MODEL 3
REMARK VINA RESULT:      -7.4      2.305      7.796
REMARK  3 active torsions:
REMARK  status: ('A' for Active; 'I' for Inactive)
REMARK    1  A    between atoms: C7_11  and  O2_2 
REMARK    2  A    between atoms: C16_20  and  O4_4 
REMARK    3  A    between atoms: C3_7  and  C4_8 
ROOT
HETATM    1  O1  UNK     1      18.485   3.749  31.115  1.00  0.00    -0.306 OA
HETATM    2  O3  UNK     1      18.696   1.016  34.130  1.00  0.00    -0.284 OA
HETATM    3  C1  UNK     1      18.903   1.466  31.824  1.00  0.00     0.051 A 
HETATM    4  C2  UNK     1      18.813   2.447  30.839  1.00  0.00     0.090 A 
HETATM    5  C3  UNK     1      18.247   4.107  32.433  1.00  0.00     0.123 A 
HETATM    6  C5  UNK     1      18.637   1.835  33.223  1.00  0.00     0.220 A 
HETATM    7  C6  UNK     1      19.241   0.154  31.484  1.00  0.00     0.025 A 
HETATM    8  C7  UNK     1      18.293   3.255  33.474  1.00  0.00     0.152 A 
HETATM    9  C8  UNK     1      19.486  -0.169  30.148  1.00  0.00    -0.061 A 
HETATM   10  C9  UNK     1      19.058   2.122  29.505  1.00  0.00     0.039 A 
HETATM   11  C10 UNK     1      19.395   0.812  29.161  1.00  0.00     0.009 A 
HETATM   12  C13 UNK     1      19.848  -1.568  29.777  1.00  0.00     0.048 C 
ENDROOT
BRANCH   5  13
HETATM   13  C4  UNK     1      17.907   5.532  32.590  1.00  0.00     0.001 A 
HETATM   14  C11 UNK     1      16.619   5.979  32.299  1.00  0.00     0.017 A 
HETATM   15  C14 UNK     1      16.298   7.328  32.447  1.00  0.00     0.037 A 
HETATM   16  C16 UNK     1      17.266   8.230  32.886  1.00  0.00     0.068 A 
HETATM   17  C15 UNK     1      18.555   7.785  33.178  1.00  0.00     0.037 A 
HETATM   18  C12 UNK     1      18.876   6.435  33.029  1.00  0.00     0.017 A 
BRANCH  16  19
HETATM   19  O4  UNK     1      16.954   9.547  33.031  1.00  0.00    -0.356 OA
HETATM   20  C17 UNK     1      16.437   9.958  34.296  1.00  0.00     0.210 C 
ENDBRANCH  16  19
ENDBRANCH   5  13
BRANCH   8  21
HETATM   21  O2  UNK     1      18.018   3.637  34.770  1.00  0.00    -0.355 OA
HETATM   22  H11 UNK     1      17.316   4.306  34.775  1.00  0.00     0.218 HD
ENDBRANCH   8  21
TORSDOF 3
ENDMDL
MODEL 4
REMARK VINA RESULT:      -7.4     22.356     24.326
REMARK  3 active torsions:
REMARK  status: ('A' for Active; 'I' for Inactive)
REMARK    1  A    between atoms: C7_11  and  O2_2 
REMARK    2  A    between atoms: C16_20  and  O4_4 
REMARK    3  A    between atoms: C3_7  and  C4_8 
ROOT
HETATM    1  O1  UNK     1      14.287   9.223   8.229  1.00  0.00    -0.306 OA
HETATM    2  O3  UNK     1      16.708   7.650  11.104  1.00  0.00    -0.284 OA
HETATM    3  C1  UNK     1      16.292   9.405   9.583  1.00  0.00     0.051 A 
HETATM    4  C2  UNK     1      15.425   9.888   8.606  1.00  0.00     0.090 A 
HETATM    5  C3  UNK     1      13.981   8.026   8.856  1.00  0.00     0.123 A 
HETATM    6  C5  UNK     1      15.981   8.127  10.243  1.00  0.00     0.220 A 
HETATM    7  C6  UNK     1      17.438  10.125   9.927  1.00  0.00     0.025 A 
HETATM    8  C7  UNK     1      14.738   7.448   9.806  1.00  0.00     0.152 A 
HETATM    9  C8  UNK     1      17.710  11.334   9.284  1.00  0.00    -0.061 A 
HETATM   10  C9  UNK     1      15.698  11.096   7.965  1.00  0.00     0.039 A 
HETATM   11  C10 UNK     1      16.842  11.818   8.305  1.00  0.00     0.009 A 
HETATM   12  C13 UNK     1      18.932  12.110   9.647  1.00  0.00     0.048 C 
ENDROOT
BRANCH   5  13
HETATM   13  C4  UNK     1      12.734   7.418   8.358  1.00  0.00     0.001 A 
HETATM   14  C11 UNK     1      11.512   7.756   8.939  1.00  0.00     0.017 A 
HETATM   15  C14 UNK     1      10.332   7.179   8.468  1.00  0.00     0.037 A 
HETATM   16  C16 UNK     1      10.375   6.265   7.417  1.00  0.00     0.068 A 
HETATM   17  C15 UNK     1      11.596   5.925   6.835  1.00  0.00     0.037 A 
HETATM   18  C12 UNK     1      12.776   6.502   7.306  1.00  0.00     0.017 A 
BRANCH  16  19
HETATM   19  O4  UNK     1       9.224   5.702   6.958  1.00  0.00    -0.356 OA
HETATM   20  C17 UNK     1       8.097   5.719   7.833  1.00  0.00     0.210 C 
ENDBRANCH  16  19
ENDBRANCH   5  13
BRANCH   8  21
HETATM   21  O2  UNK     1      14.422   6.238  10.387  1.00  0.00    -0.355 OA
HETATM   22  H11 UNK     1      13.524   6.273  10.755  1.00  0.00     0.218 HD
ENDBRANCH   8  21
TORSDOF 3
ENDMDL
MODEL 5
REMARK VINA RESULT:      -7.4      2.978      7.638
REMARK  3 active torsions:
REMARK  status: ('A' for Active; 'I' for Inactive)
REMARK    1  A    between atoms: C7_11  and  O2_2 
REMARK    2  A    between atoms: C16_20  and  O4_4 
REMARK    3  A    between atoms: C3_7  and  C4_8 
ROOT
HETATM    1  O1  UNK     1      18.282   3.862  34.673  1.00  0.00    -0.306 OA
HETATM    2  O3  UNK     1      18.364   1.493  31.359  1.00  0.00    -0.284 OA
HETATM    3  C1  UNK     1      18.365   1.634  33.713  1.00  0.00     0.051 A 
HETATM    4  C2  UNK     1      18.337   2.499  34.806  1.00  0.00     0.090 A 
HETATM    5  C3  UNK     1      18.241   4.402  33.397  1.00  0.00     0.123 A 
HETATM    6  C5  UNK     1      18.336   2.202  32.356  1.00  0.00     0.220 A 
HETATM    7  C6  UNK     1      18.421   0.253  33.909  1.00  0.00     0.025 A 
HETATM    8  C7  UNK     1      18.271   3.680  32.263  1.00  0.00     0.152 A 
HETATM    9  C8  UNK     1      18.450  -0.259  35.208  1.00  0.00    -0.061 A 
HETATM   10  C9  UNK     1      18.366   1.986  36.103  1.00  0.00     0.039 A 
HETATM   11  C10 UNK     1      18.422   0.606  36.302  1.00  0.00     0.009 A 
HETATM   12  C13 UNK     1      18.509  -1.733  35.424  1.00  0.00     0.048 C 
ENDROOT
BRANCH   5  13
HETATM   13  C4  UNK     1      18.182   5.874  33.397  1.00  0.00     0.001 A 
HETATM   14  C11 UNK     1      19.303   6.617  33.769  1.00  0.00     0.017 A 
HETATM   15  C14 UNK     1      19.247   8.011  33.770  1.00  0.00     0.037 A 
HETATM   16  C16 UNK     1      18.071   8.661  33.398  1.00  0.00     0.068 A 
HETATM   17  C15 UNK     1      16.950   7.920  33.026  1.00  0.00     0.037 A 
HETATM   18  C12 UNK     1      17.006   6.526  33.026  1.00  0.00     0.017 A 
BRANCH  16  19
HETATM   19  O4  UNK     1      18.016  10.021  33.399  1.00  0.00    -0.356 OA
HETATM   20  C17 UNK     1      16.945  10.628  34.119  1.00  0.00     0.210 C 
ENDBRANCH  16  19
ENDBRANCH   5  13
BRANCH   8  21
HETATM   21  O2  UNK     1      18.261   4.250  31.007  1.00  0.00    -0.355 OA
HETATM   22  H11 UNK     1      19.167   4.310  30.665  1.00  0.00     0.218 HD
ENDBRANCH   8  21
TORSDOF 3
ENDMDL
MODEL 6
REMARK VINA RESULT:      -7.4      8.786     12.019
REMARK  3 active torsions:
REMARK  status: ('A' for Active; 'I' for Inactive)
REMARK    1  A    between atoms: C7_11  and  O2_2 
REMARK    2  A    between atoms: C16_20  and  O4_4 
REMARK    3  A    between atoms: C3_7  and  C4_8 
ROOT
HETATM    1  O1  UNK     1      20.354  -3.424  34.652  1.00  0.00    -0.306 OA
HETATM    2  O3  UNK     1      17.848  -0.378  35.675  1.00  0.00    -0.284 OA
HETATM    3  C1  UNK     1      19.218  -1.371  34.030  1.00  0.00     0.051 A 
HETATM    4  C2  UNK     1      20.067  -2.438  33.744  1.00  0.00     0.090 A 
HETATM    5  C3  UNK     1      19.764  -3.364  35.903  1.00  0.00     0.123 A 
HETATM    6  C5  UNK     1      18.599  -1.294  35.363  1.00  0.00     0.220 A 
HETATM    7  C6  UNK     1      18.962  -0.395  33.066  1.00  0.00     0.025 A 
HETATM    8  C7  UNK     1      18.934  -2.385  36.308  1.00  0.00     0.152 A 
HETATM    9  C8  UNK     1      19.564  -0.492  31.810  1.00  0.00    -0.061 A 
HETATM   10  C9  UNK     1      20.668  -2.533  32.488  1.00  0.00     0.039 A 
HETATM   11  C10 UNK     1      20.415  -1.559  31.522  1.00  0.00     0.009 A 
HETATM   12  C13 UNK     1      19.295   0.547  30.775  1.00  0.00     0.048 C 
ENDROOT
BRANCH   5  13
HETATM   13  C4  UNK     1      20.155  -4.482  36.779  1.00  0.00     0.001 A 
HETATM   14  C11 UNK     1      21.332  -4.407  37.524  1.00  0.00     0.017 A 
HETATM   15  C14 UNK     1      21.702  -5.467  38.353  1.00  0.00     0.037 A 
HETATM   16  C16 UNK     1      20.896  -6.601  38.435  1.00  0.00     0.068 A 
HETATM   17  C15 UNK     1      19.720  -6.678  37.690  1.00  0.00     0.037 A 
HETATM   18  C12 UNK     1      19.349  -5.618  36.862  1.00  0.00     0.017 A 
BRANCH  16  19
HETATM   19  O4  UNK     1      21.258  -7.635  39.242  1.00  0.00    -0.356 OA
HETATM   20  C17 UNK     1      22.587  -7.621  39.761  1.00  0.00     0.210 C 
ENDBRANCH  16  19
ENDBRANCH   5  13
BRANCH   8  21
HETATM   21  O2  UNK     1      18.388  -2.337  37.574  1.00  0.00    -0.355 OA
HETATM   22  H11 UNK     1      18.956  -1.809  38.158  1.00  0.00     0.218 HD
ENDBRANCH   8  21
TORSDOF 3
ENDMDL
MODEL 7
REMARK VINA RESULT:      -7.3      2.202      7.494
REMARK  3 active torsions:
REMARK  status: ('A' for Active; 'I' for Inactive)
REMARK    1  A    between atoms: C7_11  and  O2_2 
REMARK    2  A    between atoms: C16_20  and  O4_4 
REMARK    3  A    between atoms: C3_7  and  C4_8 
ROOT
HETATM    1  O1  UNK     1      18.123   4.211  33.393  1.00  0.00    -0.306 OA
HETATM    2  O3  UNK     1      19.014   2.919  29.632  1.00  0.00    -0.284 OA
HETATM    3  C1  UNK     1      18.593   2.367  31.887  1.00  0.00     0.051 A 
HETATM    4  C2  UNK     1      18.290   2.872  33.149  1.00  0.00     0.090 A 
HETATM    5  C3  UNK     1      18.249   5.097  32.335  1.00  0.00     0.123 A 
HETATM    6  C5  UNK     1      18.742   3.303  30.763  1.00  0.00     0.220 A 
HETATM    7  C6  UNK     1      18.753   0.992  31.697  1.00  0.00     0.025 A 
HETATM    8  C7  UNK     1      18.547   4.740  31.073  1.00  0.00     0.152 A 
HETATM    9  C8  UNK     1      18.607   0.126  32.783  1.00  0.00    -0.061 A 
HETATM   10  C9  UNK     1      18.145   2.005  34.233  1.00  0.00     0.039 A 
HETATM   11  C10 UNK     1      18.304   0.632  34.047  1.00  0.00     0.009 A 
HETATM   12  C13 UNK     1      18.775  -1.343  32.588  1.00  0.00     0.048 C 
ENDROOT
BRANCH   5  13
HETATM   13  C4  UNK     1      18.044   6.501  32.733  1.00  0.00     0.001 A 
HETATM   14  C11 UNK     1      16.809   7.114  32.522  1.00  0.00     0.017 A 
HETATM   15  C14 UNK     1      16.617   8.444  32.898  1.00  0.00     0.037 A 
HETATM   16  C16 UNK     1      17.659   9.159  33.486  1.00  0.00     0.068 A 
HETATM   17  C15 UNK     1      18.895   8.547  33.698  1.00  0.00     0.037 A 
HETATM   18  C12 UNK     1      19.087   7.218  33.321  1.00  0.00     0.017 A 
BRANCH  16  19
HETATM   19  O4  UNK     1      17.472  10.456  33.852  1.00  0.00    -0.356 OA
HETATM   20  C17 UNK     1      18.639  11.259  34.023  1.00  0.00     0.210 C 
ENDBRANCH  16  19
ENDBRANCH   5  13
BRANCH   8  21
HETATM   21  O2  UNK     1      18.697   5.651  30.049  1.00  0.00    -0.355 OA
HETATM   22  H11 UNK     1      18.822   6.541  30.415  1.00  0.00     0.218 HD
ENDBRANCH   8  21
TORSDOF 3
ENDMDL
MODEL 8
REMARK VINA RESULT:      -7.3      1.274      1.449
REMARK  3 active torsions:
REMARK  status: ('A' for Active; 'I' for Inactive)
REMARK    1  A    between atoms: C7_11  and  O2_2 
REMARK    2  A    between atoms: C16_20  and  O4_4 
REMARK    3  A    between atoms: C3_7  and  C4_8 
ROOT
HETATM    1  O1  UNK     1      16.428   6.707  33.442  1.00  0.00    -0.306 OA
HETATM    2  O3  UNK     1      19.318   9.491  34.148  1.00  0.00    -0.284 OA
HETATM    3  C1  UNK     1      17.018   8.974  34.076  1.00  0.00     0.051 A 
HETATM    4  C2  UNK     1      16.078   7.978  33.818  1.00  0.00     0.090 A 
HETATM    5  C3  UNK     1      17.774   6.397  33.326  1.00  0.00     0.123 A 
HETATM    6  C5  UNK     1      18.448   8.656  33.940  1.00  0.00     0.220 A 
HETATM    7  C6  UNK     1      16.604  10.253  34.455  1.00  0.00     0.025 A 
HETATM    8  C7  UNK     1      18.777   7.268  33.537  1.00  0.00     0.152 A 
HETATM    9  C8  UNK     1      15.240  10.528  34.575  1.00  0.00    -0.061 A 
HETATM   10  C9  UNK     1      14.716   8.255  33.938  1.00  0.00     0.039 A 
HETATM   11  C10 UNK     1      14.299   9.531  34.317  1.00  0.00     0.009 A 
HETATM   12  C13 UNK     1      14.790  11.891  34.981  1.00  0.00     0.048 C 
ENDROOT
BRANCH   5  13
HETATM   13  C4  UNK     1      18.010   5.001  32.917  1.00  0.00     0.001 A 
HETATM   14  C11 UNK     1      18.169   4.686  31.568  1.00  0.00     0.017 A 
HETATM   15  C14 UNK     1      18.391   3.364  31.182  1.00  0.00     0.037 A 
HETATM   16  C16 UNK     1      18.455   2.358  32.145  1.00  0.00     0.068 A 
HETATM   17  C15 UNK     1      18.296   2.672  33.495  1.00  0.00     0.037 A 
HETATM   18  C12 UNK     1      18.073   3.994  33.881  1.00  0.00     0.017 A 
BRANCH  16  19
HETATM   19  O4  UNK     1      18.672   1.069  31.768  1.00  0.00    -0.356 OA
HETATM   20  C17 UNK     1      19.222   0.854  30.469  1.00  0.00     0.210 C 
ENDBRANCH  16  19
ENDBRANCH   5  13
BRANCH   8  21
HETATM   21  O2  UNK     1      20.106   6.936  33.381  1.00  0.00    -0.355 OA
HETATM   22  H11 UNK     1      20.490   7.446  32.649  1.00  0.00     0.218 HD
ENDBRANCH   8  21
TORSDOF 3
ENDMDL
MODEL 9
REMARK VINA RESULT:      -7.2      2.513      8.032
REMARK  3 active torsions:
REMARK  status: ('A' for Active; 'I' for Inactive)
REMARK    1  A    between atoms: C7_11  and  O2_2 
REMARK    2  A    between atoms: C16_20  and  O4_4 
REMARK    3  A    between atoms: C3_7  and  C4_8 
ROOT
HETATM    1  O1  UNK     1      17.446   9.311  34.263  1.00  0.00    -0.306 OA
HETATM    2  O3  UNK     1      15.468   7.846  31.016  1.00  0.00    -0.284 OA
HETATM    3  C1  UNK     1      17.410   7.813  32.354  1.00  0.00     0.051 A 
HETATM    4  C2  UNK     1      18.034   8.355  33.476  1.00  0.00     0.090 A 
HETATM    5  C3  UNK     1      16.172   9.746  33.936  1.00  0.00     0.123 A 
HETATM    6  C5  UNK     1      16.063   8.281  31.993  1.00  0.00     0.220 A 
HETATM    7  C6  UNK     1      18.058   6.841  31.588  1.00  0.00     0.025 A 
HETATM    8  C7  UNK     1      15.466   9.311  32.877  1.00  0.00     0.152 A 
HETATM    9  C8  UNK     1      19.336   6.416  31.953  1.00  0.00    -0.061 A 
HETATM   10  C9  UNK     1      19.312   7.929  33.839  1.00  0.00     0.039 A 
HETATM   11  C10 UNK     1      19.962   6.959  33.076  1.00  0.00     0.009 A 
HETATM   12  C13 UNK     1      20.034   5.378  31.140  1.00  0.00     0.048 C 
ENDROOT
BRANCH   5  13
HETATM   13  C4  UNK     1      15.659  10.771  34.862  1.00  0.00     0.001 A 
HETATM   14  C11 UNK     1      16.309  12.000  34.974  1.00  0.00     0.017 A 
HETATM   15  C14 UNK     1      15.823  12.969  35.852  1.00  0.00     0.037 A 
HETATM   16  C16 UNK     1      14.687  12.710  36.617  1.00  0.00     0.068 A 
HETATM   17  C15 UNK     1      14.035  11.481  36.506  1.00  0.00     0.037 A 
HETATM   18  C12 UNK     1      14.522  10.512  35.628  1.00  0.00     0.017 A 
BRANCH  16  19
HETATM   19  O4  UNK     1      14.213  13.655  37.473  1.00  0.00    -0.356 OA
HETATM   20  C17 UNK     1      15.047  14.011  38.575  1.00  0.00     0.210 C 
ENDBRANCH  16  19
ENDBRANCH   5  13
BRANCH   8  21
HETATM   21  O2  UNK     1      14.212   9.789  32.560  1.00  0.00    -0.355 OA
HETATM   22  H11 UNK     1      14.043   9.668  31.612  1.00  0.00     0.218 HD
ENDBRANCH   8  21
TORSDOF 3
ENDMDL
MODEL 10
REMARK VINA RESULT:      -7.2     17.030     18.515
REMARK  3 active torsions:
REMARK  status: ('A' for Active; 'I' for Inactive)
REMARK    1  A    between atoms: C7_11  and  O2_2 
REMARK    2  A    between atoms: C16_20  and  O4_4 
REMARK    3  A    between atoms: C3_7  and  C4_8 
ROOT
HETATM    1  O1  UNK     1      25.916  -6.607  38.527  1.00  0.00    -0.306 OA
HETATM    2  O3  UNK     1      28.833  -9.451  38.472  1.00  0.00    -0.284 OA
HETATM    3  C1  UNK     1      28.279  -7.159  38.527  1.00  0.00     0.051 A 
HETATM    4  C2  UNK     1      27.236  -6.236  38.543  1.00  0.00     0.090 A 
HETATM    5  C3  UNK     1      25.608  -7.957  38.508  1.00  0.00     0.123 A 
HETATM    6  C5  UNK     1      27.959  -8.594  38.492  1.00  0.00     0.220 A 
HETATM    7  C6  UNK     1      29.606  -6.723  38.544  1.00  0.00     0.025 A 
HETATM    8  C7  UNK     1      26.519  -8.947  38.483  1.00  0.00     0.152 A 
HETATM    9  C8  UNK     1      29.881  -5.355  38.576  1.00  0.00    -0.061 A 
HETATM   10  C9  UNK     1      27.513  -4.869  38.574  1.00  0.00     0.039 A 
HETATM   11  C10 UNK     1      28.837  -4.430  38.591  1.00  0.00     0.009 A 
HETATM   12  C13 UNK     1      31.296  -4.882  38.594  1.00  0.00     0.048 C 
ENDROOT
BRANCH   5  13
HETATM   13  C4  UNK     1      24.157  -8.217  38.494  1.00  0.00     0.001 A 
HETATM   14  C11 UNK     1      23.529  -8.604  37.311  1.00  0.00     0.017 A 
HETATM   15  C14 UNK     1      22.155  -8.848  37.298  1.00  0.00     0.037 A 
HETATM   16  C16 UNK     1      21.411  -8.706  38.468  1.00  0.00     0.068 A 
HETATM   17  C15 UNK     1      22.039  -8.318  39.652  1.00  0.00     0.037 A 
HETATM   18  C12 UNK     1      23.412  -8.074  39.665  1.00  0.00     0.017 A 
BRANCH  16  19
HETATM   19  O4  UNK     1      20.071  -8.944  38.456  1.00  0.00    -0.356 OA
HETATM   20  C17 UNK     1      19.652 -10.292  38.248  1.00  0.00     0.210 C 
ENDBRANCH  16  19
ENDBRANCH   5  13
BRANCH   8  21
HETATM   21  O2  UNK     1      26.179 -10.282  38.431  1.00  0.00    -0.355 OA
HETATM   22  H11 UNK     1      26.506 -10.674  37.605  1.00  0.00     0.218 HD
ENDBRANCH   8  21
TORSDOF 3
ENDMDL
