MODEL 1
REMARK VINA RESULT:      -8.5      0.000      0.000
REMARK  3 active torsions:
REMARK  status: ('A' for Active; 'I' for Inactive)
REMARK    1  A    between atoms: C5_9  and  O2_2 
REMARK    2  A    between atoms: C15_19  and  O4_4 
REMARK    3  A    between atoms: C1_5  and  C4_8 
ROOT
HETATM    1  O1  UNK     1      19.063  -0.074  32.661  1.00  0.00    -0.306 OA
HETATM    2  O3  UNK     1      18.616   2.909  29.921  1.00  0.00    -0.284 OA
HETATM    3  C1  UNK     1      18.501   1.146  33.005  1.00  0.00     0.123 A 
HETATM    4  C2  UNK     1      19.333   0.710  30.380  1.00  0.00     0.051 A 
HETATM    5  C3  UNK     1      19.461  -0.268  31.363  1.00  0.00     0.090 A 
HETATM    6  C5  UNK     1      18.331   2.174  32.154  1.00  0.00     0.152 A 
HETATM    7  C6  UNK     1      18.749   2.010  30.741  1.00  0.00     0.220 A 
HETATM    8  C7  UNK     1      19.757   0.455  29.073  1.00  0.00     0.018 A 
HETATM    9  C8  UNK     1      20.015  -1.509  31.047  1.00  0.00     0.038 A 
HETATM   10  C11 UNK     1      20.310  -0.787  28.758  1.00  0.00     0.001 A 
HETATM   11  C12 UNK     1      20.439  -1.767  29.744  1.00  0.00     0.003 A 
ENDROOT
BRANCH   3  12
HETATM   12  C4  UNK     1      18.119   1.223  34.427  1.00  0.00     0.001 A 
HETATM   13  C10 UNK     1      16.954   0.597  34.870  1.00  0.00     0.017 A 
HETATM   14  C14 UNK     1      16.592   0.668  36.215  1.00  0.00     0.037 A 
HETATM   15  C15 UNK     1      17.395   1.367  37.117  1.00  0.00     0.065 A 
HETATM   16  C13 UNK     1      18.559   1.994  36.673  1.00  0.00     0.037 A 
HETATM   17  C9  UNK     1      18.921   1.921  35.328  1.00  0.00     0.017 A 
BRANCH  15  18
HETATM   18  O4  UNK     1      17.042   1.437  38.430  1.00  0.00    -0.361 OA
HETATM   19  H10 UNK     1      16.224   0.930  38.563  1.00  0.00     0.217 HD
ENDBRANCH  15  18
ENDBRANCH   3  12
BRANCH   6  20
HETATM   20  O2  UNK     1      17.797   3.386  32.536  1.00  0.00    -0.355 OA
HETATM   21  H9  UNK     1      17.546   3.898  31.750  1.00  0.00     0.218 HD
ENDBRANCH   6  20
TORSDOF 3
ENDMDL
MODEL 2
REMARK VINA RESULT:      -8.2      1.522      3.137
REMARK  3 active torsions:
REMARK  status: ('A' for Active; 'I' for Inactive)
REMARK    1  A    between atoms: C5_9  and  O2_2 
REMARK    2  A    between atoms: C15_19  and  O4_4 
REMARK    3  A    between atoms: C1_5  and  C4_8 
ROOT
HETATM    1  O1  UNK     1      18.642   0.313  32.449  1.00  0.00    -0.306 OA
HETATM    2  O3  UNK     1      20.828  -3.120  32.669  1.00  0.00    -0.284 OA
HETATM    3  C1  UNK     1      18.721  -0.420  33.623  1.00  0.00     0.123 A 
HETATM    4  C2  UNK     1      20.096  -1.298  31.362  1.00  0.00     0.051 A 
HETATM    5  C3  UNK     1      19.330  -0.135  31.351  1.00  0.00     0.090 A 
HETATM    6  C5  UNK     1      19.418  -1.563  33.763  1.00  0.00     0.152 A 
HETATM    7  C6  UNK     1      20.175  -2.086  32.601  1.00  0.00     0.220 A 
HETATM    8  C7  UNK     1      20.776  -1.706  30.212  1.00  0.00     0.018 A 
HETATM    9  C8  UNK     1      19.237   0.629  30.187  1.00  0.00     0.038 A 
HETATM   10  C11 UNK     1      20.682  -0.940  29.048  1.00  0.00     0.001 A 
HETATM   11  C12 UNK     1      19.914   0.225  29.036  1.00  0.00     0.003 A 
ENDROOT
BRANCH   3  12
HETATM   12  C4  UNK     1      17.937   0.170  34.723  1.00  0.00     0.001 A 
HETATM   13  C10 UNK     1      18.535   1.075  35.599  1.00  0.00     0.017 A 
HETATM   14  C14 UNK     1      17.793   1.634  36.639  1.00  0.00     0.037 A 
HETATM   15  C15 UNK     1      16.453   1.286  36.805  1.00  0.00     0.065 A 
HETATM   16  C13 UNK     1      15.855   0.380  35.930  1.00  0.00     0.037 A 
HETATM   17  C9  UNK     1      16.597  -0.178  34.889  1.00  0.00     0.017 A 
BRANCH  15  18
HETATM   18  O4  UNK     1      15.729   1.831  37.820  1.00  0.00    -0.361 OA
HETATM   19  H10 UNK     1      15.413   1.118  38.400  1.00  0.00     0.217 HD
ENDBRANCH  15  18
ENDBRANCH   3  12
BRANCH   6  20
HETATM   20  O2  UNK     1      19.450  -2.285  34.937  1.00  0.00    -0.355 OA
HETATM   21  H9  UNK     1      19.830  -1.743  35.647  1.00  0.00     0.218 HD
ENDBRANCH   6  20
TORSDOF 3
ENDMDL
MODEL 3
REMARK VINA RESULT:      -8.0     23.912     26.064
REMARK  3 active torsions:
REMARK  status: ('A' for Active; 'I' for Inactive)
REMARK    1  A    between atoms: C5_9  and  O2_2 
REMARK    2  A    between atoms: C15_19  and  O4_4 
REMARK    3  A    between atoms: C1_5  and  C4_8 
ROOT
HETATM    1  O1  UNK     1      13.322   7.700   8.735  1.00  0.00    -0.306 OA
HETATM    2  O3  UNK     1      15.229   4.214   9.635  1.00  0.00    -0.284 OA
HETATM    3  C1  UNK     1      12.693   6.474   8.588  1.00  0.00     0.123 A 
HETATM    4  C2  UNK     1      15.314   6.568   9.533  1.00  0.00     0.051 A 
HETATM    5  C3  UNK     1      14.609   7.724   9.205  1.00  0.00     0.090 A 
HETATM    6  C5  UNK     1      13.265   5.286   8.859  1.00  0.00     0.152 A 
HETATM    7  C6  UNK     1      14.658   5.263   9.368  1.00  0.00     0.220 A 
HETATM    8  C7  UNK     1      16.625   6.654  10.008  1.00  0.00     0.018 A 
HETATM    9  C8  UNK     1      15.211   8.974   9.350  1.00  0.00     0.038 A 
HETATM   10  C11 UNK     1      17.226   7.906  10.153  1.00  0.00     0.001 A 
HETATM   11  C12 UNK     1      16.520   9.064   9.824  1.00  0.00     0.003 A 
ENDROOT
BRANCH   3  12
HETATM   12  C4  UNK     1      11.316   6.591   8.074  1.00  0.00     0.001 A 
HETATM   13  C10 UNK     1      10.284   6.980   8.928  1.00  0.00     0.017 A 
HETATM   14  C14 UNK     1       8.982   7.092   8.442  1.00  0.00     0.037 A 
HETATM   15  C15 UNK     1       8.711   6.812   7.103  1.00  0.00     0.065 A 
HETATM   16  C13 UNK     1       9.742   6.422   6.250  1.00  0.00     0.037 A 
HETATM   17  C9  UNK     1      11.045   6.311   6.735  1.00  0.00     0.017 A 
BRANCH  15  18
HETATM   18  O4  UNK     1       7.439   6.921   6.629  1.00  0.00    -0.361 OA
HETATM   19  H10 UNK     1       7.200   6.095   6.177  1.00  0.00     0.217 HD
ENDBRANCH  15  18
ENDBRANCH   3  12
BRANCH   6  20
HETATM   20  O2  UNK     1      12.623   4.081   8.672  1.00  0.00    -0.355 OA
HETATM   21  H9  UNK     1      12.457   3.940   7.726  1.00  0.00     0.218 HD
ENDBRANCH   6  20
TORSDOF 3
ENDMDL
MODEL 4
REMARK VINA RESULT:      -7.9     13.699     17.301
REMARK  3 active torsions:
REMARK  status: ('A' for Active; 'I' for Inactive)
REMARK    1  A    between atoms: C5_9  and  O2_2 
REMARK    2  A    between atoms: C15_19  and  O4_4 
REMARK    3  A    between atoms: C1_5  and  C4_8 
ROOT
HETATM    1  O1  UNK     1      18.848  -1.072  17.733  1.00  0.00    -0.306 OA
HETATM    2  O3  UNK     1      19.420   2.179  15.344  1.00  0.00    -0.284 OA
HETATM    3  C1  UNK     1      19.068  -1.206  16.371  1.00  0.00     0.123 A 
HETATM    4  C2  UNK     1      19.029   1.338  17.512  1.00  0.00     0.051 A 
HETATM    5  C3  UNK     1      18.837   0.188  18.274  1.00  0.00     0.090 A 
HETATM    6  C5  UNK     1      19.257  -0.177  15.525  1.00  0.00     0.152 A 
HETATM    7  C6  UNK     1      19.252   1.204  16.065  1.00  0.00     0.220 A 
HETATM    8  C7  UNK     1      19.008   2.596  18.119  1.00  0.00     0.018 A 
HETATM    9  C8  UNK     1      18.622   0.288  19.649  1.00  0.00     0.038 A 
HETATM   10  C11 UNK     1      18.792   2.695  19.494  1.00  0.00     0.001 A 
HETATM   11  C12 UNK     1      18.600   1.542  20.258  1.00  0.00     0.003 A 
ENDROOT
BRANCH   3  12
HETATM   12  C4  UNK     1      19.053  -2.609  15.921  1.00  0.00     0.001 A 
HETATM   13  C10 UNK     1      20.239  -3.342  15.884  1.00  0.00     0.017 A 
HETATM   14  C14 UNK     1      20.226  -4.670  15.459  1.00  0.00     0.037 A 
HETATM   15  C15 UNK     1      19.027  -5.265  15.069  1.00  0.00     0.065 A 
HETATM   16  C13 UNK     1      17.841  -4.533  15.105  1.00  0.00     0.037 A 
HETATM   17  C9  UNK     1      17.854  -3.205  15.531  1.00  0.00     0.017 A 
BRANCH  15  18
HETATM   18  O4  UNK     1      19.013  -6.562  14.654  1.00  0.00    -0.361 OA
HETATM   19  H10 UNK     1      18.855  -6.584  13.695  1.00  0.00     0.217 HD
ENDBRANCH  15  18
ENDBRANCH   3  12
BRANCH   6  20
HETATM   20  O2  UNK     1      19.442  -0.342  14.169  1.00  0.00    -0.355 OA
HETATM   21  H9  UNK     1      19.809   0.470  13.785  1.00  0.00     0.218 HD
ENDBRANCH   6  20
TORSDOF 3
ENDMDL
MODEL 5
REMARK VINA RESULT:      -7.8     25.357     26.852
REMARK  3 active torsions:
REMARK  status: ('A' for Active; 'I' for Inactive)
REMARK    1  A    between atoms: C5_9  and  O2_2 
REMARK    2  A    between atoms: C15_19  and  O4_4 
REMARK    3  A    between atoms: C1_5  and  C4_8 
ROOT
HETATM    1  O1  UNK     1       7.563   4.350   9.273  1.00  0.00    -0.306 OA
HETATM    2  O3  UNK     1       6.343   7.219  11.897  1.00  0.00    -0.284 OA
HETATM    3  C1  UNK     1       8.145   5.608   9.290  1.00  0.00     0.123 A 
HETATM    4  C2  UNK     1       6.105   5.013  11.096  1.00  0.00     0.051 A 
HETATM    5  C3  UNK     1       6.565   4.078  10.172  1.00  0.00     0.090 A 
HETATM    6  C5  UNK     1       7.786   6.602  10.123  1.00  0.00     0.152 A 
HETATM    7  C6  UNK     1       6.710   6.354  11.112  1.00  0.00     0.220 A 
HETATM    8  C7  UNK     1       5.084   4.679  11.989  1.00  0.00     0.018 A 
HETATM    9  C8  UNK     1       6.006   2.800  10.135  1.00  0.00     0.038 A 
HETATM   10  C11 UNK     1       4.526   3.400  11.951  1.00  0.00     0.001 A 
HETATM   11  C12 UNK     1       4.987   2.462  11.025  1.00  0.00     0.003 A 
ENDROOT
BRANCH   3  12
HETATM   12  C4  UNK     1       9.201   5.768   8.274  1.00  0.00     0.001 A 
HETATM   13  C10 UNK     1      10.537   5.575   8.621  1.00  0.00     0.017 A 
HETATM   14  C14 UNK     1      11.537   5.725   7.660  1.00  0.00     0.037 A 
HETATM   15  C15 UNK     1      11.199   6.070   6.352  1.00  0.00     0.065 A 
HETATM   16  C13 UNK     1       9.863   6.263   6.004  1.00  0.00     0.037 A 
HETATM   17  C9  UNK     1       8.864   6.112   6.965  1.00  0.00     0.017 A 
BRANCH  15  18
HETATM   18  O4  UNK     1      12.175   6.216   5.414  1.00  0.00    -0.361 OA
HETATM   19  H10 UNK     1      12.444   5.337   5.100  1.00  0.00     0.217 HD
ENDBRANCH  15  18
ENDBRANCH   3  12
BRANCH   6  20
HETATM   20  O2  UNK     1       8.364   7.853  10.093  1.00  0.00    -0.355 OA
HETATM   21  H9  UNK     1       8.047   8.380  10.844  1.00  0.00     0.218 HD
ENDBRANCH   6  20
TORSDOF 3
ENDMDL
MODEL 6
REMARK VINA RESULT:      -7.6     25.456     27.119
REMARK  3 active torsions:
REMARK  status: ('A' for Active; 'I' for Inactive)
REMARK    1  A    between atoms: C5_9  and  O2_2 
REMARK    2  A    between atoms: C15_19  and  O4_4 
REMARK    3  A    between atoms: C1_5  and  C4_8 
ROOT
HETATM    1  O1  UNK     1       7.427   7.144   9.598  1.00  0.00    -0.306 OA
HETATM    2  O3  UNK     1       6.132   3.755  11.453  1.00  0.00    -0.284 OA
HETATM    3  C1  UNK     1       7.972   5.905   9.302  1.00  0.00     0.123 A 
HETATM    4  C2  UNK     1       5.935   6.091  11.196  1.00  0.00     0.051 A 
HETATM    5  C3  UNK     1       6.423   7.212  10.530  1.00  0.00     0.090 A 
HETATM    6  C5  UNK     1       7.597   4.749   9.880  1.00  0.00     0.152 A 
HETATM    7  C6  UNK     1       6.517   4.774  10.895  1.00  0.00     0.220 A 
HETATM    8  C7  UNK     1       4.910   6.220  12.137  1.00  0.00     0.018 A 
HETATM    9  C8  UNK     1       5.889   8.473  10.800  1.00  0.00     0.038 A 
HETATM   10  C11 UNK     1       4.377   7.483  12.405  1.00  0.00     0.001 A 
HETATM   11  C12 UNK     1       4.866   8.606  11.738  1.00  0.00     0.003 A 
ENDROOT
BRANCH   3  12
HETATM   12  C4  UNK     1       9.039   5.974   8.287  1.00  0.00     0.001 A 
HETATM   13  C10 UNK     1      10.377   5.917   8.678  1.00  0.00     0.017 A 
HETATM   14  C14 UNK     1      11.388   5.981   7.719  1.00  0.00     0.037 A 
HETATM   15  C15 UNK     1      11.060   6.104   6.369  1.00  0.00     0.065 A 
HETATM   16  C13 UNK     1       9.723   6.162   5.978  1.00  0.00     0.037 A 
HETATM   17  C9  UNK     1       8.713   6.096   6.937  1.00  0.00     0.017 A 
BRANCH  15  18
HETATM   18  O4  UNK     1      12.047   6.167   5.433  1.00  0.00    -0.361 OA
HETATM   19  H10 UNK     1      11.949   6.992   4.928  1.00  0.00     0.217 HD
ENDBRANCH  15  18
ENDBRANCH   3  12
BRANCH   6  20
HETATM   20  O2  UNK     1       8.182   3.536   9.585  1.00  0.00    -0.355 OA
HETATM   21  H9  UNK     1       9.131   3.570   9.788  1.00  0.00     0.218 HD
ENDBRANCH   6  20
TORSDOF 3
ENDMDL
MODEL 7
REMARK VINA RESULT:      -7.6     23.810     25.987
REMARK  3 active torsions:
REMARK  status: ('A' for Active; 'I' for Inactive)
REMARK    1  A    between atoms: C5_9  and  O2_2 
REMARK    2  A    between atoms: C15_19  and  O4_4 
REMARK    3  A    between atoms: C1_5  and  C4_8 
ROOT
HETATM    1  O1  UNK     1      13.165   8.682   8.581  1.00  0.00    -0.306 OA
HETATM    2  O3  UNK     1      15.202   6.013  10.889  1.00  0.00    -0.284 OA
HETATM    3  C1  UNK     1      12.561   7.528   9.054  1.00  0.00     0.123 A 
HETATM    4  C2  UNK     1      15.222   8.051   9.702  1.00  0.00     0.051 A 
HETATM    5  C3  UNK     1      14.473   8.921   8.915  1.00  0.00     0.090 A 
HETATM    6  C5  UNK     1      13.176   6.603   9.814  1.00  0.00     0.152 A 
HETATM    7  C6  UNK     1      14.591   6.818  10.198  1.00  0.00     0.220 A 
HETATM    8  C7  UNK     1      16.552   8.347  10.011  1.00  0.00     0.018 A 
HETATM    9  C8  UNK     1      15.049  10.096   8.430  1.00  0.00     0.038 A 
HETATM   10  C11 UNK     1      17.127   9.522   9.525  1.00  0.00     0.001 A 
HETATM   11  C12 UNK     1      16.377  10.395   8.736  1.00  0.00     0.003 A 
ENDROOT
BRANCH   3  12
HETATM   12  C4  UNK     1      11.159   7.393   8.621  1.00  0.00     0.001 A 
HETATM   13  C10 UNK     1      10.848   6.641   7.488  1.00  0.00     0.017 A 
HETATM   14  C14 UNK     1       9.521   6.512   7.078  1.00  0.00     0.037 A 
HETATM   15  C15 UNK     1       8.505   7.137   7.801  1.00  0.00     0.065 A 
HETATM   16  C13 UNK     1       8.815   7.889   8.933  1.00  0.00     0.037 A 
HETATM   17  C9  UNK     1      10.142   8.016   9.344  1.00  0.00     0.017 A 
BRANCH  15  18
HETATM   18  O4  UNK     1       7.210   7.011   7.401  1.00  0.00    -0.361 OA
HETATM   19  H10 UNK     1       6.786   7.885   7.429  1.00  0.00     0.217 HD
ENDBRANCH  15  18
ENDBRANCH   3  12
BRANCH   6  20
HETATM   20  O2  UNK     1      12.556   5.448  10.242  1.00  0.00    -0.355 OA
HETATM   21  H9  UNK     1      13.091   4.677   9.997  1.00  0.00     0.218 HD
ENDBRANCH   6  20
TORSDOF 3
ENDMDL
MODEL 8
REMARK VINA RESULT:      -7.5      2.045      3.970
REMARK  3 active torsions:
REMARK  status: ('A' for Active; 'I' for Inactive)
REMARK    1  A    between atoms: C5_9  and  O2_2 
REMARK    2  A    between atoms: C15_19  and  O4_4 
REMARK    3  A    between atoms: C1_5  and  C4_8 
ROOT
HETATM    1  O1  UNK     1      18.041   3.550  33.237  1.00  0.00    -0.306 OA
HETATM    2  O3  UNK     1      19.161   1.889  29.688  1.00  0.00    -0.284 OA
HETATM    3  C1  UNK     1      18.194   2.179  33.097  1.00  0.00     0.123 A 
HETATM    4  C2  UNK     1      18.676   3.845  30.913  1.00  0.00     0.051 A 
HETATM    5  C3  UNK     1      18.288   4.350  32.152  1.00  0.00     0.090 A 
HETATM    6  C5  UNK     1      18.553   1.565  31.954  1.00  0.00     0.152 A 
HETATM    7  C6  UNK     1      18.828   2.391  30.754  1.00  0.00     0.220 A 
HETATM    8  C7  UNK     1      18.914   4.709  29.842  1.00  0.00     0.018 A 
HETATM    9  C8  UNK     1      18.134   5.726  32.328  1.00  0.00     0.038 A 
HETATM   10  C11 UNK     1      18.759   6.086  30.020  1.00  0.00     0.001 A 
HETATM   11  C12 UNK     1      18.371   6.593  31.261  1.00  0.00     0.003 A 
ENDROOT
BRANCH   3  12
HETATM   12  C4  UNK     1      17.897   1.437  34.336  1.00  0.00     0.001 A 
HETATM   13  C10 UNK     1      18.728   1.576  35.447  1.00  0.00     0.017 A 
HETATM   14  C14 UNK     1      18.448   0.876  36.620  1.00  0.00     0.037 A 
HETATM   15  C15 UNK     1      17.337   0.034  36.680  1.00  0.00     0.065 A 
HETATM   16  C13 UNK     1      16.507  -0.105  35.569  1.00  0.00     0.037 A 
HETATM   17  C9  UNK     1      16.786   0.597  34.397  1.00  0.00     0.017 A 
BRANCH  15  18
HETATM   18  O4  UNK     1      17.063  -0.650  37.825  1.00  0.00    -0.361 OA
HETATM   19  H10 UNK     1      17.790  -1.270  38.002  1.00  0.00     0.217 HD
ENDBRANCH  15  18
ENDBRANCH   3  12
BRANCH   6  20
HETATM   20  O2  UNK     1      18.665   0.196  31.839  1.00  0.00    -0.355 OA
HETATM   21  H9  UNK     1      19.440  -0.114  32.334  1.00  0.00     0.218 HD
ENDBRANCH   6  20
TORSDOF 3
ENDMDL
MODEL 9
REMARK VINA RESULT:      -7.5      3.263      5.091
REMARK  3 active torsions:
REMARK  status: ('A' for Active; 'I' for Inactive)
REMARK    1  A    between atoms: C5_9  and  O2_2 
REMARK    2  A    between atoms: C15_19  and  O4_4 
REMARK    3  A    between atoms: C1_5  and  C4_8 
ROOT
HETATM    1  O1  UNK     1      18.082   3.242  33.319  1.00  0.00    -0.306 OA
HETATM    2  O3  UNK     1      19.216   1.634  29.750  1.00  0.00    -0.284 OA
HETATM    3  C1  UNK     1      18.276   4.034  32.198  1.00  0.00     0.123 A 
HETATM    4  C2  UNK     1      18.653   1.278  32.013  1.00  0.00     0.051 A 
HETATM    5  C3  UNK     1      18.269   1.889  33.204  1.00  0.00     0.090 A 
HETATM    6  C5  UNK     1      18.656   3.571  30.993  1.00  0.00     0.152 A 
HETATM    7  C6  UNK     1      18.872   2.114  30.823  1.00  0.00     0.220 A 
HETATM    8  C7  UNK     1      18.829  -0.107  31.955  1.00  0.00     0.018 A 
HETATM    9  C8  UNK     1      18.057   1.118  34.348  1.00  0.00     0.038 A 
HETATM   10  C11 UNK     1      18.616  -0.876  33.100  1.00  0.00     0.001 A 
HETATM   11  C12 UNK     1      18.231  -0.265  34.294  1.00  0.00     0.003 A 
ENDROOT
BRANCH   3  12
HETATM   12  C4  UNK     1      18.043   5.467  32.458  1.00  0.00     0.001 A 
HETATM   13  C10 UNK     1      19.077   6.262  32.953  1.00  0.00     0.017 A 
HETATM   14  C14 UNK     1      18.858   7.617  33.199  1.00  0.00     0.037 A 
HETATM   15  C15 UNK     1      17.605   8.177  32.952  1.00  0.00     0.065 A 
HETATM   16  C13 UNK     1      16.571   7.382  32.458  1.00  0.00     0.037 A 
HETATM   17  C9  UNK     1      16.791   6.027  32.211  1.00  0.00     0.017 A 
BRANCH  15  18
HETATM   18  O4  UNK     1      17.391   9.500  33.192  1.00  0.00    -0.361 OA
HETATM   19  H10 UNK     1      16.488   9.728  32.915  1.00  0.00     0.217 HD
ENDBRANCH  15  18
ENDBRANCH   3  12
BRANCH   6  20
HETATM   20  O2  UNK     1      18.871   4.390  29.906  1.00  0.00    -0.355 OA
HETATM   21  H9  UNK     1      18.349   4.078  29.150  1.00  0.00     0.218 HD
ENDBRANCH   6  20
TORSDOF 3
ENDMDL
MODEL 10
REMARK VINA RESULT:      -7.5     23.642     26.196
REMARK  3 active torsions:
REMARK  status: ('A' for Active; 'I' for Inactive)
REMARK    1  A    between atoms: C5_9  and  O2_2 
REMARK    2  A    between atoms: C15_19  and  O4_4 
REMARK    3  A    between atoms: C1_5  and  C4_8 
ROOT
HETATM    1  O1  UNK     1      11.763   6.414   9.212  1.00  0.00    -0.306 OA
HETATM    2  O3  UNK     1      11.107   6.391   5.190  1.00  0.00    -0.284 OA
HETATM    3  C1  UNK     1      12.806   6.551   8.309  1.00  0.00     0.123 A 
HETATM    4  C2  UNK     1      10.198   6.268   7.363  1.00  0.00     0.051 A 
HETATM    5  C3  UNK     1      10.488   6.281   8.725  1.00  0.00     0.090 A 
HETATM    6  C5  UNK     1      12.661   6.545   6.971  1.00  0.00     0.152 A 
HETATM    7  C6  UNK     1      11.301   6.401   6.399  1.00  0.00     0.220 A 
HETATM    8  C7  UNK     1       8.879   6.129   6.925  1.00  0.00     0.018 A 
HETATM    9  C8  UNK     1       9.460   6.154   9.660  1.00  0.00     0.038 A 
HETATM   10  C11 UNK     1       7.851   6.003   7.861  1.00  0.00     0.001 A 
HETATM   11  C12 UNK     1       8.142   6.015   9.226  1.00  0.00     0.003 A 
ENDROOT
BRANCH   3  12
HETATM   12  C4  UNK     1      14.120   6.684   8.963  1.00  0.00     0.001 A 
HETATM   13  C10 UNK     1      14.916   5.557   9.165  1.00  0.00     0.017 A 
HETATM   14  C14 UNK     1      16.160   5.682   9.783  1.00  0.00     0.037 A 
HETATM   15  C15 UNK     1      16.607   6.936  10.201  1.00  0.00     0.065 A 
HETATM   16  C13 UNK     1      15.811   8.063  10.001  1.00  0.00     0.037 A 
HETATM   17  C9  UNK     1      14.567   7.937   9.381  1.00  0.00     0.017 A 
BRANCH  15  18
HETATM   18  O4  UNK     1      17.821   7.058  10.805  1.00  0.00    -0.361 OA
HETATM   19  H10 UNK     1      17.688   7.353  11.721  1.00  0.00     0.217 HD
ENDBRANCH  15  18
ENDBRANCH   3  12
BRANCH   6  20
HETATM   20  O2  UNK     1      13.723   6.651   6.099  1.00  0.00    -0.355 OA
HETATM   21  H9  UNK     1      13.716   5.905   5.479  1.00  0.00     0.218 HD
ENDBRANCH   6  20
TORSDOF 3
ENDMDL
