MODEL 1
REMARK VINA RESULT:      -8.3      0.000      0.000
REMARK  8 active torsions:
REMARK  status: ('A' for Active; 'I' for Inactive)
REMARK    1  A    between atoms: C3_9  and  O2_2 
REMARK    2  A    between atoms: C6_12  and  O3_3 
REMARK    3  A    between atoms: C16_22  and  O5_5 
REMARK    4  A    between atoms: C20_26  and  O6_6 
REMARK    5  A    between atoms: C1_7  and  C4_10 
REMARK    6  A    between atoms: C10_16  and  C4_10 
REMARK    7  A    between atoms: C11_17  and  C8_14 
REMARK    8  A    between atoms: C13_19  and  C16_22 
ROOT
HETATM    1  O1  UNK     1       6.820   7.337  10.909  1.00  0.00    -0.321 OA
HETATM    2  O4  UNK     1       7.909   3.710   9.389  1.00  0.00    -0.286 OA
HETATM    3  C1  UNK     1       5.039   3.920  12.474  1.00  0.00     0.013 A 
HETATM    4  C2  UNK     1       6.598   4.920  10.925  1.00  0.00     0.083 A 
HETATM    5  C3  UNK     1       5.990   3.781  11.462  1.00  0.00     0.092 A 
HETATM    6  C5  UNK     1       6.256   6.186  11.398  1.00  0.00     0.094 A 
HETATM    7  C6  UNK     1       4.697   5.187  12.948  1.00  0.00     0.077 A 
HETATM    8  C7  UNK     1       7.603   4.801   9.852  1.00  0.00     0.200 A 
HETATM    9  C8  UNK     1       8.204   6.072   9.364  1.00  0.00     0.048 A 
HETATM   10  C9  UNK     1       5.306   6.322  12.410  1.00  0.00     0.075 A 
HETATM   11  C12 UNK     1       7.770   7.211   9.923  1.00  0.00     0.159 A 
ENDROOT
BRANCH   9  12
HETATM   12  C11 UNK     1       9.245   6.093   8.325  1.00  0.00    -0.020 A 
HETATM   13  C14 UNK     1       8.891   6.204   6.979  1.00  0.00     0.015 A 
HETATM   14  C18 UNK     1       9.879   6.222   5.994  1.00  0.00     0.037 A 
HETATM   15  C20 UNK     1      11.224   6.130   6.354  1.00  0.00     0.065 A 
HETATM   16  C19 UNK     1      11.581   6.019   7.697  1.00  0.00     0.037 A 
HETATM   17  C15 UNK     1      10.593   6.000   8.682  1.00  0.00     0.015 A 
BRANCH  15  18
HETATM   18  O6  UNK     1      12.187   6.147   5.393  1.00  0.00    -0.361 OA
HETATM   19  H18 UNK     1      13.060   6.112   5.820  1.00  0.00     0.217 HD
ENDBRANCH  15  18
ENDBRANCH   9  12
BRANCH   5  20
HETATM   20  O2  UNK     1       6.298   2.527  11.024  1.00  0.00    -0.359 OA
HETATM   21  H8  UNK     1       6.151   2.446  10.070  1.00  0.00     0.217 HD
ENDBRANCH   5  20
BRANCH   3  22
HETATM   22  C4  UNK     1       4.382   2.709  13.057  1.00  0.00     0.072 C 
BRANCH  22  23
HETATM   23  C10 UNK     1       5.184   2.089  14.172  1.00  0.00    -0.018 C 
HETATM   24  C13 UNK     1       4.892   2.050  15.486  1.00  0.00    -0.064 C 
HETATM   25  C17 UNK     1       3.656   2.635  16.113  1.00  0.00     0.045 C 
BRANCH  24  26
HETATM   26  C16 UNK     1       5.848   1.396  16.453  1.00  0.00     0.197 C 
BRANCH  26  27
HETATM   27  O5  UNK     1       6.528   2.395  17.202  1.00  0.00    -0.397 OA
HETATM   28  H17 UNK     1       7.270   1.966  17.660  1.00  0.00     0.209 HD
ENDBRANCH  26  27
ENDBRANCH  24  26
ENDBRANCH  22  23
ENDBRANCH   3  22
BRANCH   7  29
HETATM   29  O3  UNK     1       3.771   5.336  13.935  1.00  0.00    -0.360 OA
HETATM   30  H14 UNK     1       2.891   5.498  13.560  1.00  0.00     0.217 HD
ENDBRANCH   7  29
TORSDOF 8
ENDMDL
MODEL 2
REMARK VINA RESULT:      -7.9      3.171      8.940
REMARK  8 active torsions:
REMARK  status: ('A' for Active; 'I' for Inactive)
REMARK    1  A    between atoms: C3_9  and  O2_2 
REMARK    2  A    between atoms: C6_12  and  O3_3 
REMARK    3  A    between atoms: C16_22  and  O5_5 
REMARK    4  A    between atoms: C20_26  and  O6_6 
REMARK    5  A    between atoms: C1_7  and  C4_10 
REMARK    6  A    between atoms: C10_16  and  C4_10 
REMARK    7  A    between atoms: C11_17  and  C8_14 
REMARK    8  A    between atoms: C13_19  and  C16_22 
ROOT
HETATM    1  O1  UNK     1       9.053   5.977   7.005  1.00  0.00    -0.321 OA
HETATM    2  O4  UNK     1       9.775   4.625  10.787  1.00  0.00    -0.286 OA
HETATM    3  C1  UNK     1      12.989   5.842   8.340  1.00  0.00     0.013 A 
HETATM    4  C2  UNK     1      10.644   5.453   8.761  1.00  0.00     0.083 A 
HETATM    5  C3  UNK     1      11.972   5.415   9.195  1.00  0.00     0.092 A 
HETATM    6  C5  UNK     1      10.337   5.917   7.483  1.00  0.00     0.094 A 
HETATM    7  C6  UNK     1      12.682   6.306   7.060  1.00  0.00     0.077 A 
HETATM    8  C7  UNK     1       9.551   5.011   9.647  1.00  0.00     0.200 A 
HETATM    9  C8  UNK     1       8.174   5.075   9.082  1.00  0.00     0.048 A 
HETATM   10  C9  UNK     1      11.355   6.343   6.630  1.00  0.00     0.075 A 
HETATM   11  C12 UNK     1       8.044   5.543   7.832  1.00  0.00     0.159 A 
ENDROOT
BRANCH   9  12
HETATM   12  C11 UNK     1       6.999   4.627   9.845  1.00  0.00    -0.020 A 
HETATM   13  C14 UNK     1       6.273   5.538  10.615  1.00  0.00     0.015 A 
HETATM   14  C18 UNK     1       5.160   5.114  11.339  1.00  0.00     0.037 A 
HETATM   15  C20 UNK     1       4.767   3.776  11.293  1.00  0.00     0.065 A 
HETATM   16  C19 UNK     1       5.489   2.863  10.526  1.00  0.00     0.037 A 
HETATM   17  C15 UNK     1       6.604   3.287   9.802  1.00  0.00     0.015 A 
BRANCH  15  18
HETATM   18  O6  UNK     1       3.681   3.361  12.000  1.00  0.00    -0.361 OA
HETATM   19  H18 UNK     1       3.608   2.394  11.929  1.00  0.00     0.217 HD
ENDBRANCH  15  18
ENDBRANCH   9  12
BRANCH   5  20
HETATM   20  O2  UNK     1      12.311   4.968  10.438  1.00  0.00    -0.359 OA
HETATM   21  H8  UNK     1      11.748   4.225  10.705  1.00  0.00     0.217 HD
ENDBRANCH   5  20
BRANCH   3  22
HETATM   22  C4  UNK     1      14.415   5.805   8.792  1.00  0.00     0.072 C 
BRANCH  22  23
HETATM   23  C10 UNK     1      14.873   7.113   9.384  1.00  0.00    -0.018 C 
HETATM   24  C13 UNK     1      16.111   7.455   9.789  1.00  0.00    -0.064 C 
HETATM   25  C17 UNK     1      17.321   6.564   9.715  1.00  0.00     0.045 C 
BRANCH  24  26
HETATM   26  C16 UNK     1      16.361   8.819  10.384  1.00  0.00     0.197 C 
BRANCH  26  27
HETATM   27  O5  UNK     1      17.572   9.352   9.865  1.00  0.00    -0.397 OA
HETATM   28  H17 UNK     1      18.300   8.791  10.181  1.00  0.00     0.209 HD
ENDBRANCH  26  27
ENDBRANCH  24  26
ENDBRANCH  22  23
ENDBRANCH   3  22
BRANCH   7  29
HETATM   29  O3  UNK     1      13.665   6.726   6.215  1.00  0.00    -0.360 OA
HETATM   30  H14 UNK     1      14.157   5.971   5.858  1.00  0.00     0.217 HD
ENDBRANCH   7  29
TORSDOF 8
ENDMDL
MODEL 3
REMARK VINA RESULT:      -7.6     22.547     25.709
REMARK  8 active torsions:
REMARK  status: ('A' for Active; 'I' for Inactive)
REMARK    1  A    between atoms: C3_9  and  O2_2 
REMARK    2  A    between atoms: C6_12  and  O3_3 
REMARK    3  A    between atoms: C16_22  and  O5_5 
REMARK    4  A    between atoms: C20_26  and  O6_6 
REMARK    5  A    between atoms: C1_7  and  C4_10 
REMARK    6  A    between atoms: C10_16  and  C4_10 
REMARK    7  A    between atoms: C11_17  and  C8_14 
REMARK    8  A    between atoms: C13_19  and  C16_22 
ROOT
HETATM    1  O1  UNK     1      18.793   1.285  31.067  1.00  0.00    -0.321 OA
HETATM    2  O4  UNK     1      18.076   2.515  34.891  1.00  0.00    -0.286 OA
HETATM    3  C1  UNK     1      18.363   5.358  31.788  1.00  0.00     0.013 A 
HETATM    4  C2  UNK     1      18.411   3.098  32.635  1.00  0.00     0.083 A 
HETATM    5  C3  UNK     1      18.268   4.470  32.860  1.00  0.00     0.092 A 
HETATM    6  C5  UNK     1      18.646   2.619  31.347  1.00  0.00     0.094 A 
HETATM    7  C6  UNK     1      18.599   4.879  30.498  1.00  0.00     0.077 A 
HETATM    8  C7  UNK     1      18.310   2.138  33.750  1.00  0.00     0.200 A 
HETATM    9  C8  UNK     1      18.496   0.701  33.406  1.00  0.00     0.048 A 
HETATM   10  C9  UNK     1      18.740   3.509  30.276  1.00  0.00     0.075 A 
HETATM   11  C12 UNK     1      18.718   0.402  32.118  1.00  0.00     0.159 A 
ENDROOT
BRANCH   9  12
HETATM   12  C11 UNK     1      18.460  -0.355  34.430  1.00  0.00    -0.020 A 
HETATM   13  C14 UNK     1      19.574  -1.171  34.635  1.00  0.00     0.015 A 
HETATM   14  C18 UNK     1      19.540  -2.173  35.605  1.00  0.00     0.037 A 
HETATM   15  C20 UNK     1      18.390  -2.361  36.373  1.00  0.00     0.065 A 
HETATM   16  C19 UNK     1      17.275  -1.548  36.170  1.00  0.00     0.037 A 
HETATM   17  C15 UNK     1      17.310  -0.546  35.199  1.00  0.00     0.015 A 
BRANCH  15  18
HETATM   18  O6  UNK     1      18.356  -3.338  37.318  1.00  0.00    -0.361 OA
HETATM   19  H18 UNK     1      19.099  -3.948  37.170  1.00  0.00     0.217 HD
ENDBRANCH  15  18
ENDBRANCH   9  12
BRANCH   5  20
HETATM   20  O2  UNK     1      18.037   4.974  34.106  1.00  0.00    -0.359 OA
HETATM   21  H8  UNK     1      17.133   5.314  34.181  1.00  0.00     0.217 HD
ENDBRANCH   5  20
BRANCH   3  22
HETATM   22  C4  UNK     1      18.213   6.829  32.016  1.00  0.00     0.072 C 
BRANCH  22  23
HETATM   23  C10 UNK     1      16.800   7.310  31.807  1.00  0.00    -0.018 C 
HETATM   24  C13 UNK     1      15.872   7.597  32.741  1.00  0.00    -0.064 C 
HETATM   25  C17 UNK     1      16.082   7.495  34.227  1.00  0.00     0.045 C 
BRANCH  24  26
HETATM   26  C16 UNK     1      14.494   8.045  32.322  1.00  0.00     0.197 C 
BRANCH  26  27
HETATM   27  O5  UNK     1      14.020   7.214  31.270  1.00  0.00    -0.397 OA
HETATM   28  H17 UNK     1      14.790   6.767  30.879  1.00  0.00     0.209 HD
ENDBRANCH  26  27
ENDBRANCH  24  26
ENDBRANCH  22  23
ENDBRANCH   3  22
BRANCH   7  29
HETATM   29  O3  UNK     1      18.694   5.735  29.443  1.00  0.00    -0.360 OA
HETATM   30  H14 UNK     1      18.520   5.273  28.608  1.00  0.00     0.217 HD
ENDBRANCH   7  29
TORSDOF 8
ENDMDL
MODEL 4
REMARK VINA RESULT:      -7.6     23.127     25.221
REMARK  8 active torsions:
REMARK  status: ('A' for Active; 'I' for Inactive)
REMARK    1  A    between atoms: C3_9  and  O2_2 
REMARK    2  A    between atoms: C6_12  and  O3_3 
REMARK    3  A    between atoms: C16_22  and  O5_5 
REMARK    4  A    between atoms: C20_26  and  O6_6 
REMARK    5  A    between atoms: C1_7  and  C4_10 
REMARK    6  A    between atoms: C10_16  and  C4_10 
REMARK    7  A    between atoms: C11_17  and  C8_14 
REMARK    8  A    between atoms: C13_19  and  C16_22 
ROOT
HETATM    1  O1  UNK     1      19.227   3.353  30.042  1.00  0.00    -0.321 OA
HETATM    2  O4  UNK     1      17.866   3.697  33.873  1.00  0.00    -0.286 OA
HETATM    3  C1  UNK     1      18.700  -0.116  32.274  1.00  0.00     0.013 A 
HETATM    4  C2  UNK     1      18.566   2.290  32.121  1.00  0.00     0.083 A 
HETATM    5  C3  UNK     1      18.395   1.114  32.858  1.00  0.00     0.092 A 
HETATM    6  C5  UNK     1      19.039   2.233  30.811  1.00  0.00     0.094 A 
HETATM    7  C6  UNK     1      19.173  -0.173  30.962  1.00  0.00     0.077 A 
HETATM    8  C7  UNK     1      18.255   3.602  32.717  1.00  0.00     0.200 A 
HETATM    9  C8  UNK     1      18.454   4.790  31.841  1.00  0.00     0.048 A 
HETATM   10  C9  UNK     1      19.343   1.002  30.229  1.00  0.00     0.075 A 
HETATM   11  C12 UNK     1      18.914   4.569  30.601  1.00  0.00     0.159 A 
ENDROOT
BRANCH   9  12
HETATM   12  C11 UNK     1      18.144   6.154  32.298  1.00  0.00    -0.020 A 
HETATM   13  C14 UNK     1      16.923   6.745  31.965  1.00  0.00     0.015 A 
HETATM   14  C18 UNK     1      16.630   8.038  32.397  1.00  0.00     0.037 A 
HETATM   15  C20 UNK     1      17.557   8.744  33.164  1.00  0.00     0.065 A 
HETATM   16  C19 UNK     1      18.777   8.157  33.498  1.00  0.00     0.037 A 
HETATM   17  C15 UNK     1      19.071   6.864  33.065  1.00  0.00     0.015 A 
BRANCH  15  18
HETATM   18  O6  UNK     1      17.271  10.006  33.586  1.00  0.00    -0.361 OA
HETATM   19  H18 UNK     1      16.705  10.439  32.924  1.00  0.00     0.217 HD
ENDBRANCH  15  18
ENDBRANCH   9  12
BRANCH   5  20
HETATM   20  O2  UNK     1      17.935   1.130  34.142  1.00  0.00    -0.359 OA
HETATM   21  H8  UNK     1      18.530   0.640  34.730  1.00  0.00     0.217 HD
ENDBRANCH   5  20
BRANCH   3  22
HETATM   22  C4  UNK     1      18.521  -1.381  33.052  1.00  0.00     0.072 C 
BRANCH  22  23
HETATM   23  C10 UNK     1      19.695  -1.687  33.946  1.00  0.00    -0.018 C 
HETATM   24  C13 UNK     1      19.702  -1.852  35.283  1.00  0.00    -0.064 C 
HETATM   25  C17 UNK     1      18.490  -1.767  36.170  1.00  0.00     0.045 C 
BRANCH  24  26
HETATM   26  C16 UNK     1      20.999  -2.131  36.002  1.00  0.00     0.197 C 
BRANCH  26  27
HETATM   27  O5  UNK     1      22.093  -1.738  35.184  1.00  0.00    -0.397 OA
HETATM   28  H17 UNK     1      22.265  -0.797  35.354  1.00  0.00     0.209 HD
ENDBRANCH  26  27
ENDBRANCH  24  26
ENDBRANCH  22  23
ENDBRANCH   3  22
BRANCH   7  29
HETATM   29  O3  UNK     1      19.475  -1.367  30.380  1.00  0.00    -0.360 OA
HETATM   30  H14 UNK     1      20.433  -1.464  30.271  1.00  0.00     0.217 HD
ENDBRANCH   7  29
TORSDOF 8
ENDMDL
MODEL 5
REMARK VINA RESULT:      -7.5      6.005     11.051
REMARK  8 active torsions:
REMARK  status: ('A' for Active; 'I' for Inactive)
REMARK    1  A    between atoms: C3_9  and  O2_2 
REMARK    2  A    between atoms: C6_12  and  O3_3 
REMARK    3  A    between atoms: C16_22  and  O5_5 
REMARK    4  A    between atoms: C20_26  and  O6_6 
REMARK    5  A    between atoms: C1_7  and  C4_10 
REMARK    6  A    between atoms: C10_16  and  C4_10 
REMARK    7  A    between atoms: C11_17  and  C8_14 
REMARK    8  A    between atoms: C13_19  and  C16_22 
ROOT
HETATM    1  O1  UNK     1      14.285   5.294   8.939  1.00  0.00    -0.321 OA
HETATM    2  O4  UNK     1      12.643   9.002   8.480  1.00  0.00    -0.286 OA
HETATM    3  C1  UNK     1      16.542   8.609  10.044  1.00  0.00     0.013 A 
HETATM    4  C2  UNK     1      14.482   7.703   9.168  1.00  0.00     0.083 A 
HETATM    5  C3  UNK     1      15.254   8.806   9.543  1.00  0.00     0.092 A 
HETATM    6  C5  UNK     1      14.996   6.413   9.292  1.00  0.00     0.094 A 
HETATM    7  C6  UNK     1      17.056   7.318  10.168  1.00  0.00     0.077 A 
HETATM    8  C7  UNK     1      13.120   7.885   8.632  1.00  0.00     0.200 A 
HETATM    9  C8  UNK     1      12.376   6.644   8.281  1.00  0.00     0.048 A 
HETATM   10  C9  UNK     1      16.284   6.218   9.793  1.00  0.00     0.075 A 
HETATM   11  C12 UNK     1      13.009   5.475   8.461  1.00  0.00     0.159 A 
ENDROOT
BRANCH   9  12
HETATM   12  C11 UNK     1      10.995   6.681   7.774  1.00  0.00    -0.020 A 
HETATM   13  C14 UNK     1      10.738   6.450   6.421  1.00  0.00     0.015 A 
HETATM   14  C18 UNK     1       9.429   6.486   5.941  1.00  0.00     0.037 A 
HETATM   15  C20 UNK     1       8.373   6.754   6.813  1.00  0.00     0.065 A 
HETATM   16  C19 UNK     1       8.627   6.986   8.165  1.00  0.00     0.037 A 
HETATM   17  C15 UNK     1       9.936   6.950   8.645  1.00  0.00     0.015 A 
BRANCH  15  18
HETATM   18  O6  UNK     1       7.096   6.790   6.344  1.00  0.00    -0.361 OA
HETATM   19  H18 UNK     1       7.113   7.014   5.398  1.00  0.00     0.217 HD
ENDBRANCH  15  18
ENDBRANCH   9  12
BRANCH   5  20
HETATM   20  O2  UNK     1      14.784  10.082   9.435  1.00  0.00    -0.359 OA
HETATM   21  H8  UNK     1      15.187  10.658  10.103  1.00  0.00     0.217 HD
ENDBRANCH   5  20
BRANCH   3  22
HETATM   22  C4  UNK     1      17.377   9.782  10.449  1.00  0.00     0.072 C 
BRANCH  22  23
HETATM   23  C10 UNK     1      18.202  10.330   9.314  1.00  0.00    -0.018 C 
HETATM   24  C13 UNK     1      18.098  11.531   8.712  1.00  0.00    -0.064 C 
HETATM   25  C17 UNK     1      17.103  12.598   9.081  1.00  0.00     0.045 C 
BRANCH  24  26
HETATM   26  C16 UNK     1      19.013  11.883   7.565  1.00  0.00     0.197 C 
BRANCH  26  27
HETATM   27  O5  UNK     1      19.805  10.753   7.222  1.00  0.00    -0.397 OA
HETATM   28  H17 UNK     1      20.025  10.824   6.278  1.00  0.00     0.209 HD
ENDBRANCH  26  27
ENDBRANCH  24  26
ENDBRANCH  22  23
ENDBRANCH   3  22
BRANCH   7  29
HETATM   29  O3  UNK     1      18.312   7.111  10.655  1.00  0.00    -0.360 OA
HETATM   30  H14 UNK     1      18.488   7.694  11.410  1.00  0.00     0.217 HD
ENDBRANCH   7  29
TORSDOF 8
ENDMDL
MODEL 6
REMARK VINA RESULT:      -7.4     22.859     25.177
REMARK  8 active torsions:
REMARK  status: ('A' for Active; 'I' for Inactive)
REMARK    1  A    between atoms: C3_9  and  O2_2 
REMARK    2  A    between atoms: C6_12  and  O3_3 
REMARK    3  A    between atoms: C16_22  and  O5_5 
REMARK    4  A    between atoms: C20_26  and  O6_6 
REMARK    5  A    between atoms: C1_7  and  C4_10 
REMARK    6  A    between atoms: C10_16  and  C4_10 
REMARK    7  A    between atoms: C11_17  and  C8_14 
REMARK    8  A    between atoms: C13_19  and  C16_22 
ROOT
HETATM    1  O1  UNK     1      19.540   7.982  33.400  1.00  0.00    -0.321 OA
HETATM    2  O4  UNK     1      16.008   6.369  32.148  1.00  0.00    -0.286 OA
HETATM    3  C1  UNK     1      16.081  10.260  33.774  1.00  0.00     0.013 A 
HETATM    4  C2  UNK     1      17.141   8.196  33.106  1.00  0.00     0.083 A 
HETATM    5  C3  UNK     1      15.987   8.975  33.238  1.00  0.00     0.092 A 
HETATM    6  C5  UNK     1      18.377   8.701  33.507  1.00  0.00     0.094 A 
HETATM    7  C6  UNK     1      17.319  10.765  34.176  1.00  0.00     0.077 A 
HETATM    8  C7  UNK     1      17.069   6.837  32.539  1.00  0.00     0.200 A 
HETATM    9  C8  UNK     1      18.352   6.084  32.459  1.00  0.00     0.048 A 
HETATM   10  C9  UNK     1      18.468   9.986  34.042  1.00  0.00     0.075 A 
HETATM   11  C12 UNK     1      19.458   6.709  32.889  1.00  0.00     0.159 A 
ENDROOT
BRANCH   9  12
HETATM   12  C11 UNK     1      18.415   4.705  31.951  1.00  0.00    -0.020 A 
HETATM   13  C14 UNK     1      18.720   4.465  30.610  1.00  0.00     0.015 A 
HETATM   14  C18 UNK     1      18.779   3.158  30.128  1.00  0.00     0.037 A 
HETATM   15  C20 UNK     1      18.534   2.086  30.987  1.00  0.00     0.065 A 
HETATM   16  C19 UNK     1      18.228   2.323  32.327  1.00  0.00     0.037 A 
HETATM   17  C15 UNK     1      18.169   3.631  32.809  1.00  0.00     0.015 A 
BRANCH  15  18
HETATM   18  O6  UNK     1      18.590   0.811  30.517  1.00  0.00    -0.361 OA
HETATM   19  H18 UNK     1      18.957   0.235  31.209  1.00  0.00     0.217 HD
ENDBRANCH  15  18
ENDBRANCH   9  12
BRANCH   5  20
HETATM   20  O2  UNK     1      14.761   8.516  32.856  1.00  0.00    -0.359 OA
HETATM   21  H8  UNK     1      14.144   9.249  32.715  1.00  0.00     0.217 HD
ENDBRANCH   5  20
BRANCH   3  22
HETATM   22  C4  UNK     1      14.854  11.103  33.921  1.00  0.00     0.072 C 
BRANCH  22  23
HETATM   23  C10 UNK     1      14.235  10.999  35.291  1.00  0.00    -0.018 C 
HETATM   24  C13 UNK     1      14.086  11.970  36.213  1.00  0.00    -0.064 C 
HETATM   25  C17 UNK     1      14.518  13.400  36.039  1.00  0.00     0.045 C 
BRANCH  24  26
HETATM   26  C16 UNK     1      13.456  11.653  37.547  1.00  0.00     0.197 C 
BRANCH  26  27
HETATM   27  O5  UNK     1      14.139  10.562  38.150  1.00  0.00    -0.397 OA
HETATM   28  H17 UNK     1      14.430  10.848  39.033  1.00  0.00     0.209 HD
ENDBRANCH  26  27
ENDBRANCH  24  26
ENDBRANCH  22  23
ENDBRANCH   3  22
BRANCH   7  29
HETATM   29  O3  UNK     1      17.424  12.018  34.700  1.00  0.00    -0.360 OA
HETATM   30  H14 UNK     1      16.688  12.577  34.407  1.00  0.00     0.217 HD
ENDBRANCH   7  29
TORSDOF 8
ENDMDL
MODEL 7
REMARK VINA RESULT:      -7.4      5.456      9.249
REMARK  8 active torsions:
REMARK  status: ('A' for Active; 'I' for Inactive)
REMARK    1  A    between atoms: C3_9  and  O2_2 
REMARK    2  A    between atoms: C6_12  and  O3_3 
REMARK    3  A    between atoms: C16_22  and  O5_5 
REMARK    4  A    between atoms: C20_26  and  O6_6 
REMARK    5  A    between atoms: C1_7  and  C4_10 
REMARK    6  A    between atoms: C10_16  and  C4_10 
REMARK    7  A    between atoms: C11_17  and  C8_14 
REMARK    8  A    between atoms: C13_19  and  C16_22 
ROOT
HETATM    1  O1  UNK     1      15.998   6.461   9.950  1.00  0.00    -0.321 OA
HETATM    2  O4  UNK     1      14.137   9.859   8.668  1.00  0.00    -0.286 OA
HETATM    3  C1  UNK     1      12.234   6.121   8.214  1.00  0.00     0.013 A 
HETATM    4  C2  UNK     1      14.078   7.517   8.905  1.00  0.00     0.083 A 
HETATM    5  C3  UNK     1      12.813   7.386   8.325  1.00  0.00     0.092 A 
HETATM    6  C5  UNK     1      14.756   6.391   9.371  1.00  0.00     0.094 A 
HETATM    7  C6  UNK     1      12.912   4.994   8.680  1.00  0.00     0.077 A 
HETATM    8  C7  UNK     1      14.711   8.843   9.038  1.00  0.00     0.200 A 
HETATM    9  C8  UNK     1      16.067   8.871   9.653  1.00  0.00     0.048 A 
HETATM   10  C9  UNK     1      14.174   5.129   9.260  1.00  0.00     0.075 A 
HETATM   11  C12 UNK     1      16.586   7.699  10.049  1.00  0.00     0.159 A 
ENDROOT
BRANCH   9  12
HETATM   12  C11 UNK     1      16.826  10.122   9.808  1.00  0.00    -0.020 A 
HETATM   13  C14 UNK     1      16.544  10.986  10.867  1.00  0.00     0.015 A 
HETATM   14  C18 UNK     1      17.262  12.172  11.013  1.00  0.00     0.037 A 
HETATM   15  C20 UNK     1      18.266  12.496  10.101  1.00  0.00     0.065 A 
HETATM   16  C19 UNK     1      18.550  11.635   9.041  1.00  0.00     0.037 A 
HETATM   17  C15 UNK     1      17.831  10.449   8.894  1.00  0.00     0.015 A 
BRANCH  15  18
HETATM   18  O6  UNK     1      18.968  13.654  10.243  1.00  0.00    -0.361 OA
HETATM   19  H18 UNK     1      18.537  14.203  10.921  1.00  0.00     0.217 HD
ENDBRANCH  15  18
ENDBRANCH   9  12
BRANCH   5  20
HETATM   20  O2  UNK     1      12.121   8.464   7.858  1.00  0.00    -0.359 OA
HETATM   21  H8  UNK     1      11.849   9.043   8.586  1.00  0.00     0.217 HD
ENDBRANCH   5  20
BRANCH   3  22
HETATM   22  C4  UNK     1      10.881   5.968   7.594  1.00  0.00     0.072 C 
BRANCH  22  23
HETATM   23  C10 UNK     1       9.761   6.153   8.585  1.00  0.00    -0.018 C 
HETATM   24  C13 UNK     1       8.500   6.567   8.350  1.00  0.00    -0.064 C 
HETATM   25  C17 UNK     1       7.949   6.928   6.998  1.00  0.00     0.045 C 
BRANCH  24  26
HETATM   26  C16 UNK     1       7.527   6.712   9.494  1.00  0.00     0.197 C 
BRANCH  26  27
HETATM   27  O5  UNK     1       6.393   7.454   9.065  1.00  0.00    -0.397 OA
HETATM   28  H17 UNK     1       6.167   7.154   8.168  1.00  0.00     0.209 HD
ENDBRANCH  26  27
ENDBRANCH  24  26
ENDBRANCH  22  23
ENDBRANCH   3  22
BRANCH   7  29
HETATM   29  O3  UNK     1      12.357   3.754   8.578  1.00  0.00    -0.360 OA
HETATM   30  H14 UNK     1      12.744   3.150   9.230  1.00  0.00     0.217 HD
ENDBRANCH   7  29
TORSDOF 8
ENDMDL
MODEL 8
REMARK VINA RESULT:      -7.4     32.969     36.395
REMARK  8 active torsions:
REMARK  status: ('A' for Active; 'I' for Inactive)
REMARK    1  A    between atoms: C3_9  and  O2_2 
REMARK    2  A    between atoms: C6_12  and  O3_3 
REMARK    3  A    between atoms: C16_22  and  O5_5 
REMARK    4  A    between atoms: C20_26  and  O6_6 
REMARK    5  A    between atoms: C1_7  and  C4_10 
REMARK    6  A    between atoms: C10_16  and  C4_10 
REMARK    7  A    between atoms: C11_17  and  C8_14 
REMARK    8  A    between atoms: C13_19  and  C16_22 
ROOT
HETATM    1  O1  UNK     1      34.608  -7.951  33.457  1.00  0.00    -0.321 OA
HETATM    2  O4  UNK     1      30.562  -8.475  33.374  1.00  0.00    -0.286 OA
HETATM    3  C1  UNK     1      32.473  -7.432  36.988  1.00  0.00     0.013 A 
HETATM    4  C2  UNK     1      32.485  -7.967  34.633  1.00  0.00     0.083 A 
HETATM    5  C3  UNK     1      31.782  -7.788  35.828  1.00  0.00     0.092 A 
HETATM    6  C5  UNK     1      33.868  -7.790  34.600  1.00  0.00     0.094 A 
HETATM    7  C6  UNK     1      33.857  -7.255  36.954  1.00  0.00     0.077 A 
HETATM    8  C7  UNK     1      31.779  -8.339  33.393  1.00  0.00     0.200 A 
HETATM    9  C8  UNK     1      32.623  -8.524  32.180  1.00  0.00     0.048 A 
HETATM   10  C9  UNK     1      34.556  -7.434  35.760  1.00  0.00     0.075 A 
HETATM   11  C12 UNK     1      33.941  -8.319  32.313  1.00  0.00     0.159 A 
ENDROOT
BRANCH   9  12
HETATM   12  C11 UNK     1      32.050  -8.934  30.889  1.00  0.00    -0.020 A 
HETATM   13  C14 UNK     1      31.762  -7.976  29.914  1.00  0.00     0.015 A 
HETATM   14  C18 UNK     1      31.218  -8.365  28.690  1.00  0.00     0.037 A 
HETATM   15  C20 UNK     1      30.961  -9.712  28.437  1.00  0.00     0.065 A 
HETATM   16  C19 UNK     1      31.248 -10.671  29.408  1.00  0.00     0.037 A 
HETATM   17  C15 UNK     1      31.791 -10.282  30.633  1.00  0.00     0.015 A 
BRANCH  15  18
HETATM   18  O6  UNK     1      30.430 -10.092  27.243  1.00  0.00    -0.361 OA
HETATM   19  H18 UNK     1      30.412 -11.063  27.199  1.00  0.00     0.217 HD
ENDBRANCH  15  18
ENDBRANCH   9  12
BRANCH   5  20
HETATM   20  O2  UNK     1      30.430  -7.952  35.899  1.00  0.00    -0.359 OA
HETATM   21  H8  UNK     1      30.089  -7.657  36.756  1.00  0.00     0.217 HD
ENDBRANCH   5  20
BRANCH   3  22
HETATM   22  C4  UNK     1      31.732  -7.238  38.272  1.00  0.00     0.072 C 
BRANCH  22  23
HETATM   23  C10 UNK     1      31.202  -5.836  38.434  1.00  0.00    -0.018 C 
HETATM   24  C13 UNK     1      29.953  -5.451  38.761  1.00  0.00    -0.064 C 
HETATM   25  C17 UNK     1      28.808  -6.384  39.046  1.00  0.00     0.045 C 
BRANCH  24  26
HETATM   26  C16 UNK     1      29.615  -3.983  38.849  1.00  0.00     0.197 C 
BRANCH  26  27
HETATM   27  O5  UNK     1      29.485  -3.604  40.213  1.00  0.00    -0.397 OA
HETATM   28  H17 UNK     1      28.993  -4.307  40.669  1.00  0.00     0.209 HD
ENDBRANCH  26  27
ENDBRANCH  24  26
ENDBRANCH  22  23
ENDBRANCH   3  22
BRANCH   7  29
HETATM   29  O3  UNK     1      34.543  -6.907  38.079  1.00  0.00    -0.360 OA
HETATM   30  H14 UNK     1      35.352  -7.433  38.165  1.00  0.00     0.217 HD
ENDBRANCH   7  29
TORSDOF 8
ENDMDL
MODEL 9
REMARK VINA RESULT:      -7.4      3.841      6.693
REMARK  8 active torsions:
REMARK  status: ('A' for Active; 'I' for Inactive)
REMARK    1  A    between atoms: C3_9  and  O2_2 
REMARK    2  A    between atoms: C6_12  and  O3_3 
REMARK    3  A    between atoms: C16_22  and  O5_5 
REMARK    4  A    between atoms: C20_26  and  O6_6 
REMARK    5  A    between atoms: C1_7  and  C4_10 
REMARK    6  A    between atoms: C10_16  and  C4_10 
REMARK    7  A    between atoms: C11_17  and  C8_14 
REMARK    8  A    between atoms: C13_19  and  C16_22 
ROOT
HETATM    1  O1  UNK     1      12.440   6.411   7.046  1.00  0.00    -0.321 OA
HETATM    2  O4  UNK     1      12.149   9.212   9.998  1.00  0.00    -0.286 OA
HETATM    3  C1  UNK     1       8.700   7.154   8.706  1.00  0.00     0.013 A 
HETATM    4  C2  UNK     1      11.064   7.640   8.622  1.00  0.00     0.083 A 
HETATM    5  C3  UNK     1       9.800   7.877   9.171  1.00  0.00     0.092 A 
HETATM    6  C5  UNK     1      11.224   6.686   7.619  1.00  0.00     0.094 A 
HETATM    7  C6  UNK     1       8.861   6.199   7.701  1.00  0.00     0.077 A 
HETATM    8  C7  UNK     1      12.242   8.388   9.098  1.00  0.00     0.200 A 
HETATM    9  C8  UNK     1      13.538   8.073   8.436  1.00  0.00     0.048 A 
HETATM   10  C9  UNK     1      10.124   5.964   7.157  1.00  0.00     0.075 A 
HETATM   11  C12 UNK     1      13.527   7.129   7.483  1.00  0.00     0.159 A 
ENDROOT
BRANCH   9  12
HETATM   12  C11 UNK     1      14.783   8.774   8.788  1.00  0.00    -0.020 A 
HETATM   13  C14 UNK     1      15.046  10.041   8.264  1.00  0.00     0.015 A 
HETATM   14  C18 UNK     1      16.226  10.705   8.597  1.00  0.00     0.037 A 
HETATM   15  C20 UNK     1      17.147  10.103   9.456  1.00  0.00     0.065 A 
HETATM   16  C19 UNK     1      16.887   8.837   9.980  1.00  0.00     0.037 A 
HETATM   17  C15 UNK     1      15.706   8.173   9.646  1.00  0.00     0.015 A 
BRANCH  15  18
HETATM   18  O6  UNK     1      18.299  10.751   9.780  1.00  0.00    -0.361 OA
HETATM   19  H18 UNK     1      19.026  10.106   9.807  1.00  0.00     0.217 HD
ENDBRANCH  15  18
ENDBRANCH   9  12
BRANCH   5  20
HETATM   20  O2  UNK     1       9.604   8.802  10.154  1.00  0.00    -0.359 OA
HETATM   21  H8  UNK     1      10.406   8.918  10.685  1.00  0.00     0.217 HD
ENDBRANCH   5  20
BRANCH   3  22
HETATM   22  C4  UNK     1       7.343   7.399   9.285  1.00  0.00     0.072 C 
BRANCH  22  23
HETATM   23  C10 UNK     1       7.041   6.509  10.463  1.00  0.00    -0.018 C 
HETATM   24  C13 UNK     1       6.114   6.686  11.424  1.00  0.00    -0.064 C 
HETATM   25  C17 UNK     1       5.161   7.847  11.501  1.00  0.00     0.045 C 
BRANCH  24  26
HETATM   26  C16 UNK     1       5.985   5.682  12.543  1.00  0.00     0.197 C 
BRANCH  26  27
HETATM   27  O5  UNK     1       6.707   4.503  12.211  1.00  0.00    -0.397 OA
HETATM   28  H17 UNK     1       7.648   4.677  12.376  1.00  0.00     0.209 HD
ENDBRANCH  26  27
ENDBRANCH  24  26
ENDBRANCH  22  23
ENDBRANCH   3  22
BRANCH   7  29
HETATM   29  O3  UNK     1       7.796   5.486   7.239  1.00  0.00    -0.360 OA
HETATM   30  H14 UNK     1       7.216   6.045   6.699  1.00  0.00     0.217 HD
ENDBRANCH   7  29
TORSDOF 8
ENDMDL
MODEL 10
REMARK VINA RESULT:      -7.3     35.291     36.813
REMARK  8 active torsions:
REMARK  status: ('A' for Active; 'I' for Inactive)
REMARK    1  A    between atoms: C3_9  and  O2_2 
REMARK    2  A    between atoms: C6_12  and  O3_3 
REMARK    3  A    between atoms: C16_22  and  O5_5 
REMARK    4  A    between atoms: C20_26  and  O6_6 
REMARK    5  A    between atoms: C1_7  and  C4_10 
REMARK    6  A    between atoms: C10_16  and  C4_10 
REMARK    7  A    between atoms: C11_17  and  C8_14 
REMARK    8  A    between atoms: C13_19  and  C16_22 
ROOT
HETATM    1  O1  UNK     1      31.987  -4.011  36.141  1.00  0.00    -0.321 OA
HETATM    2  O4  UNK     1      32.003  -8.091  36.073  1.00  0.00    -0.286 OA
HETATM    3  C1  UNK     1      29.331  -6.042  38.615  1.00  0.00     0.013 A 
HETATM    4  C2  UNK     1      31.096  -6.111  36.969  1.00  0.00     0.083 A 
HETATM    5  C3  UNK     1      30.197  -6.779  37.805  1.00  0.00     0.092 A 
HETATM    6  C5  UNK     1      31.127  -4.718  36.942  1.00  0.00     0.094 A 
HETATM    7  C6  UNK     1      29.362  -4.647  38.588  1.00  0.00     0.077 A 
HETATM    8  C7  UNK     1      32.019  -6.867  36.101  1.00  0.00     0.200 A 
HETATM    9  C8  UNK     1      32.948  -6.061  35.262  1.00  0.00     0.048 A 
HETATM   10  C9  UNK     1      30.260  -3.983  37.752  1.00  0.00     0.075 A 
HETATM   11  C12 UNK     1      32.856  -4.726  35.352  1.00  0.00     0.159 A 
ENDROOT
BRANCH   9  12
HETATM   12  C11 UNK     1      33.946  -6.689  34.382  1.00  0.00    -0.020 A 
HETATM   13  C14 UNK     1      33.610  -7.026  33.069  1.00  0.00     0.015 A 
HETATM   14  C18 UNK     1      34.555  -7.623  32.235  1.00  0.00     0.037 A 
HETATM   15  C20 UNK     1      35.840  -7.883  32.712  1.00  0.00     0.065 A 
HETATM   16  C19 UNK     1      36.179  -7.547  34.022  1.00  0.00     0.037 A 
HETATM   17  C15 UNK     1      35.233  -6.951  34.857  1.00  0.00     0.015 A 
BRANCH  15  18
HETATM   18  O6  UNK     1      36.763  -8.465  31.898  1.00  0.00    -0.361 OA
HETATM   19  H18 UNK     1      37.648  -8.324  32.273  1.00  0.00     0.217 HD
ENDBRANCH  15  18
ENDBRANCH   9  12
BRANCH   5  20
HETATM   20  O2  UNK     1      30.138  -8.140  37.858  1.00  0.00    -0.359 OA
HETATM   21  H8  UNK     1      29.478  -8.435  38.503  1.00  0.00     0.217 HD
ENDBRANCH   5  20
BRANCH   3  22
HETATM   22  C4  UNK     1      28.365  -6.745  39.515  1.00  0.00     0.072 C 
BRANCH  22  23
HETATM   23  C10 UNK     1      27.092  -7.137  38.811  1.00  0.00    -0.018 C 
HETATM   24  C13 UNK     1      26.470  -8.333  38.820  1.00  0.00    -0.064 C 
HETATM   25  C17 UNK     1      26.944  -9.547  39.571  1.00  0.00     0.045 C 
BRANCH  24  26
HETATM   26  C16 UNK     1      25.206  -8.531  38.021  1.00  0.00     0.197 C 
BRANCH  26  27
HETATM   27  O5  UNK     1      24.082  -8.499  38.891  1.00  0.00    -0.397 OA
HETATM   28  H17 UNK     1      23.282  -8.544  38.341  1.00  0.00     0.209 HD
ENDBRANCH  26  27
ENDBRANCH  24  26
ENDBRANCH  22  23
ENDBRANCH   3  22
BRANCH   7  29
HETATM   29  O3  UNK     1      28.522  -3.915  39.373  1.00  0.00    -0.360 OA
HETATM   30  H14 UNK     1      29.013  -3.474  40.084  1.00  0.00     0.217 HD
ENDBRANCH   7  29
TORSDOF 8
ENDMDL
