MODEL 1
REMARK VINA RESULT:      -9.5      0.000      0.000
REMARK  6 active torsions:
REMARK  status: ('A' for Active; 'I' for Inactive)
REMARK    1  A    between atoms: C8_17  and  O1_3 
REMARK    2  A    between atoms: C9_18  and  O1_3 
REMARK    3  A    between atoms: C15_24  and  O3_5 
REMARK       I    between atoms: C12_21  and  N1_9 
REMARK    4  A    between atoms: C3_12  and  N1_9 
REMARK    5  A    between atoms: C1_10  and  C8_17 
REMARK    6  A    between atoms: C12_21  and  C7_16 
ROOT
HETATM    1  S1  UNK     1      17.964  -0.796  37.394  1.00  0.00    -0.082 SA
HETATM    2  F1  UNK     1      21.651  -7.905  37.530  1.00  0.00    -0.206 F 
HETATM    3  C1  UNK     1      19.675  -1.912  35.836  1.00  0.00     0.085 A 
HETATM    4  C2  UNK     1      19.423  -2.847  36.882  1.00  0.00    -0.000 A 
HETATM    5  C3  UNK     1      18.948  -0.777  36.009  1.00  0.00     0.094 A 
HETATM    6  C4  UNK     1      19.999  -4.156  37.049  1.00  0.00    -0.024 A 
HETATM    7  C5  UNK     1      18.511  -2.368  37.797  1.00  0.00     0.065 A 
HETATM    8  C13 UNK     1      21.178  -4.306  37.777  1.00  0.00     0.015 A 
HETATM    9  C14 UNK     1      19.377  -5.266  36.483  1.00  0.00     0.015 A 
HETATM   10  C22 UNK     1      21.736  -5.574  37.939  1.00  0.00     0.043 A 
HETATM   11  C23 UNK     1      19.934  -6.533  36.646  1.00  0.00     0.043 A 
HETATM   12  C24 UNK     1      21.115  -6.687  37.374  1.00  0.00     0.116 A 
ENDROOT
BRANCH   5  13
HETATM   13  N1  UNK     1      18.883   0.385  35.234  1.00  0.00    -0.316 N 
HETATM   14  C12 UNK     1      18.019   0.614  34.173  1.00  0.00     0.262 C 
HETATM   15  O5  UNK     1      17.160  -0.133  33.708  1.00  0.00    -0.267 OA
HETATM   16  H2  UNK     1      19.532   1.113  35.519  1.00  0.00     0.169 HD
BRANCH  14  17
HETATM   17  C7  UNK     1      18.219   1.943  33.581  1.00  0.00     0.108 A 
HETATM   18  C11 UNK     1      18.342   1.984  32.250  1.00  0.00     0.037 A 
HETATM   19  C6  UNK     1      18.543   3.255  31.571  1.00  0.00     0.002 A 
HETATM   20  C10 UNK     1      18.605   4.420  32.329  1.00  0.00     0.123 A 
HETATM   21  C16 UNK     1      18.675   3.346  30.183  1.00  0.00     0.014 A 
HETATM   22  C15 UNK     1      18.796   5.668  31.740  1.00  0.00     0.102 A 
HETATM   23  O2  UNK     1      18.476   4.369  33.730  1.00  0.00    -0.271 OA
HETATM   24  C20 UNK     1      18.928   5.750  30.356  1.00  0.00     0.040 A 
HETATM   25  C21 UNK     1      18.866   4.592  29.579  1.00  0.00     0.004 A 
HETATM   26  C17 UNK     1      18.282   3.169  34.407  1.00  0.00     0.304 A 
HETATM   27  O6  UNK     1      18.169   3.135  35.628  1.00  0.00    -0.259 OA
BRANCH  22  28
HETATM   28  O3  UNK     1      18.856   6.800  32.493  1.00  0.00    -0.353 OA
HETATM   29  C25 UNK     1      17.677   7.600  32.559  1.00  0.00     0.210 C 
ENDBRANCH  22  28
ENDBRANCH  14  17
ENDBRANCH   5  13
BRANCH   3  30
HETATM   30  C8  UNK     1      20.576  -2.113  34.729  1.00  0.00     0.297 C 
HETATM   31  O4  UNK     1      21.811  -2.063  34.825  1.00  0.00    -0.259 OA
BRANCH  30  32
HETATM   32  O1  UNK     1      19.942  -2.371  33.533  1.00  0.00    -0.313 OA
BRANCH  32  33
HETATM   33  C9  UNK     1      20.677  -2.088  32.337  1.00  0.00     0.124 C 
HETATM   34  C18 UNK     1      21.045  -3.395  31.653  1.00  0.00     0.040 C 
HETATM   35  C19 UNK     1      19.841  -1.191  31.436  1.00  0.00     0.040 C 
ENDBRANCH  32  33
ENDBRANCH  30  32
ENDBRANCH   3  30
TORSDOF 6
ENDMDL
MODEL 2
REMARK VINA RESULT:      -9.1      5.286     10.893
REMARK  6 active torsions:
REMARK  status: ('A' for Active; 'I' for Inactive)
REMARK    1  A    between atoms: C8_17  and  O1_3 
REMARK    2  A    between atoms: C9_18  and  O1_3 
REMARK    3  A    between atoms: C15_24  and  O3_5 
REMARK       I    between atoms: C12_21  and  N1_9 
REMARK    4  A    between atoms: C3_12  and  N1_9 
REMARK    5  A    between atoms: C1_10  and  C8_17 
REMARK    6  A    between atoms: C12_21  and  C7_16 
ROOT
HETATM    1  S1  UNK     1      15.356   7.298  31.331  1.00  0.00    -0.082 SA
HETATM    2  F1  UNK     1      15.414  13.383  36.540  1.00  0.00    -0.206 F 
HETATM    3  C1  UNK     1      16.551   7.673  33.574  1.00  0.00     0.085 A 
HETATM    4  C2  UNK     1      15.787   8.851  33.332  1.00  0.00    -0.000 A 
HETATM    5  C3  UNK     1      16.397   6.773  32.568  1.00  0.00     0.094 A 
HETATM    6  C4  UNK     1      15.690  10.023  34.162  1.00  0.00    -0.024 A 
HETATM    7  C5  UNK     1      15.089   8.780  32.146  1.00  0.00     0.065 A 
HETATM    8  C13 UNK     1      16.583  11.078  33.979  1.00  0.00     0.015 A 
HETATM    9  C14 UNK     1      14.706  10.099  35.144  1.00  0.00     0.015 A 
HETATM   10  C22 UNK     1      16.490  12.213  34.784  1.00  0.00     0.043 A 
HETATM   11  C23 UNK     1      14.612  11.235  35.947  1.00  0.00     0.043 A 
HETATM   12  C24 UNK     1      15.505  12.292  35.767  1.00  0.00     0.116 A 
ENDROOT
BRANCH   5  13
HETATM   13  N1  UNK     1      16.951   5.501  32.395  1.00  0.00    -0.316 N 
HETATM   14  C12 UNK     1      17.944   5.158  31.488  1.00  0.00     0.262 C 
HETATM   15  O5  UNK     1      18.521   5.877  30.673  1.00  0.00    -0.267 OA
HETATM   16  H2  UNK     1      16.581   4.795  33.025  1.00  0.00     0.169 HD
BRANCH  14  17
HETATM   17  C7  UNK     1      18.294   3.735  31.572  1.00  0.00     0.108 A 
HETATM   18  C11 UNK     1      18.688   3.155  30.433  1.00  0.00     0.037 A 
HETATM   19  C6  UNK     1      19.057   1.748  30.416  1.00  0.00     0.002 A 
HETATM   20  C10 UNK     1      18.989   1.020  31.599  1.00  0.00     0.123 A 
HETATM   21  C16 UNK     1      19.476   1.102  29.250  1.00  0.00     0.014 A 
HETATM   22  C15 UNK     1      19.328  -0.331  31.650  1.00  0.00     0.102 A 
HETATM   23  O2  UNK     1      18.571   1.636  32.795  1.00  0.00    -0.271 OA
HETATM   24  C20 UNK     1      19.744  -0.967  30.483  1.00  0.00     0.040 A 
HETATM   25  C21 UNK     1      19.819  -0.253  29.286  1.00  0.00     0.004 A 
HETATM   26  C17 UNK     1      18.214   2.981  32.843  1.00  0.00     0.304 A 
HETATM   27  O6  UNK     1      17.853   3.509  33.889  1.00  0.00    -0.259 OA
BRANCH  22  28
HETATM   28  O3  UNK     1      19.256  -1.030  32.815  1.00  0.00    -0.353 OA
HETATM   29  C25 UNK     1      20.139  -2.141  32.961  1.00  0.00     0.210 C 
ENDBRANCH  22  28
ENDBRANCH  14  17
ENDBRANCH   5  13
BRANCH   3  30
HETATM   30  C8  UNK     1      17.387   7.437  34.725  1.00  0.00     0.297 C 
HETATM   31  O4  UNK     1      17.049   7.692  35.889  1.00  0.00    -0.259 OA
BRANCH  30  32
HETATM   32  O1  UNK     1      18.617   6.894  34.420  1.00  0.00    -0.313 OA
BRANCH  32  33
HETATM   33  C9  UNK     1      19.512   7.709  33.655  1.00  0.00     0.124 C 
HETATM   34  C18 UNK     1      19.981   8.876  34.510  1.00  0.00     0.040 C 
HETATM   35  C19 UNK     1      20.676   6.857  33.171  1.00  0.00     0.040 C 
ENDBRANCH  32  33
ENDBRANCH  30  32
ENDBRANCH   3  30
TORSDOF 6
ENDMDL
MODEL 3
REMARK VINA RESULT:      -8.8     10.804     13.734
REMARK  6 active torsions:
REMARK  status: ('A' for Active; 'I' for Inactive)
REMARK    1  A    between atoms: C8_17  and  O1_3 
REMARK    2  A    between atoms: C9_18  and  O1_3 
REMARK    3  A    between atoms: C15_24  and  O3_5 
REMARK       I    between atoms: C12_21  and  N1_9 
REMARK    4  A    between atoms: C3_12  and  N1_9 
REMARK    5  A    between atoms: C1_10  and  C8_17 
REMARK    6  A    between atoms: C12_21  and  C7_16 
ROOT
HETATM    1  S1  UNK     1      28.801  -4.827  39.061  1.00  0.00    -0.082 SA
HETATM    2  F1  UNK     1      36.056  -5.730  35.788  1.00  0.00    -0.206 F 
HETATM    3  C1  UNK     1      29.737  -6.437  37.290  1.00  0.00     0.085 A 
HETATM    4  C2  UNK     1      30.823  -5.601  37.678  1.00  0.00    -0.000 A 
HETATM    5  C3  UNK     1      28.604  -6.113  37.967  1.00  0.00     0.094 A 
HETATM    6  C4  UNK     1      32.177  -5.635  37.189  1.00  0.00    -0.024 A 
HETATM    7  C5  UNK     1      30.453  -4.681  38.634  1.00  0.00     0.065 A 
HETATM    8  C13 UNK     1      32.534  -4.865  36.083  1.00  0.00     0.015 A 
HETATM    9  C14 UNK     1      33.124  -6.436  37.822  1.00  0.00     0.015 A 
HETATM   10  C22 UNK     1      33.846  -4.897  35.610  1.00  0.00     0.043 A 
HETATM   11  C23 UNK     1      34.435  -6.468  37.349  1.00  0.00     0.043 A 
HETATM   12  C24 UNK     1      34.796  -5.698  36.242  1.00  0.00     0.116 A 
ENDROOT
BRANCH   5  13
HETATM   13  N1  UNK     1      27.321  -6.665  37.904  1.00  0.00    -0.316 N 
HETATM   14  C12 UNK     1      26.830  -7.687  38.705  1.00  0.00     0.262 C 
HETATM   15  O5  UNK     1      27.402  -8.299  39.604  1.00  0.00    -0.267 OA
HETATM   16  H2  UNK     1      26.716  -6.238  37.209  1.00  0.00     0.169 HD
BRANCH  14  17
HETATM   17  C7  UNK     1      25.440  -8.023  38.372  1.00  0.00     0.108 A 
HETATM   18  C11 UNK     1      24.494  -7.395  39.080  1.00  0.00     0.037 A 
HETATM   19  C6  UNK     1      23.087  -7.663  38.822  1.00  0.00     0.002 A 
HETATM   20  C10 UNK     1      22.747  -8.579  37.833  1.00  0.00     0.123 A 
HETATM   21  C16 UNK     1      22.066  -7.030  39.535  1.00  0.00     0.014 A 
HETATM   22  C15 UNK     1      21.419  -8.880  37.538  1.00  0.00     0.102 A 
HETATM   23  O2  UNK     1      23.748  -9.238  37.093  1.00  0.00    -0.271 OA
HETATM   24  C20 UNK     1      20.406  -8.245  38.254  1.00  0.00     0.040 A 
HETATM   25  C21 UNK     1      20.729  -7.321  39.249  1.00  0.00     0.004 A 
HETATM   26  C17 UNK     1      25.101  -9.002  37.315  1.00  0.00     0.304 A 
HETATM   27  O6  UNK     1      25.966  -9.580  36.665  1.00  0.00    -0.259 OA
BRANCH  22  28
HETATM   28  O3  UNK     1      21.100  -9.780  36.568  1.00  0.00    -0.353 OA
HETATM   29  C25 UNK     1      20.248 -10.862  36.941  1.00  0.00     0.210 C 
ENDBRANCH  22  28
ENDBRANCH  14  17
ENDBRANCH   5  13
BRANCH   3  30
HETATM   30  C8  UNK     1      29.799  -7.496  36.313  1.00  0.00     0.297 C 
HETATM   31  O4  UNK     1      29.906  -7.305  35.093  1.00  0.00    -0.259 OA
BRANCH  30  32
HETATM   32  O1  UNK     1      29.729  -8.761  36.856  1.00  0.00    -0.313 OA
BRANCH  32  33
HETATM   33  C9  UNK     1      30.962  -9.349  37.285  1.00  0.00     0.124 C 
HETATM   34  C18 UNK     1      30.739 -10.073  38.604  1.00  0.00     0.040 C 
HETATM   35  C19 UNK     1      31.474 -10.287  36.202  1.00  0.00     0.040 C 
ENDBRANCH  32  33
ENDBRANCH  30  32
ENDBRANCH   3  30
TORSDOF 6
ENDMDL
MODEL 4
REMARK VINA RESULT:      -8.8     10.762     13.393
REMARK  6 active torsions:
REMARK  status: ('A' for Active; 'I' for Inactive)
REMARK    1  A    between atoms: C8_17  and  O1_3 
REMARK    2  A    between atoms: C9_18  and  O1_3 
REMARK    3  A    between atoms: C15_24  and  O3_5 
REMARK       I    between atoms: C12_21  and  N1_9 
REMARK    4  A    between atoms: C3_12  and  N1_9 
REMARK    5  A    between atoms: C1_10  and  C8_17 
REMARK    6  A    between atoms: C12_21  and  C7_16 
ROOT
HETATM    1  S1  UNK     1      28.737  -4.695  38.897  1.00  0.00    -0.082 SA
HETATM    2  F1  UNK     1      36.099  -5.908  35.985  1.00  0.00    -0.206 F 
HETATM    3  C1  UNK     1      29.731  -6.476  37.335  1.00  0.00     0.085 A 
HETATM    4  C2  UNK     1      30.804  -5.601  37.671  1.00  0.00    -0.000 A 
HETATM    5  C3  UNK     1      28.576  -6.087  37.935  1.00  0.00     0.094 A 
HETATM    6  C4  UNK     1      32.175  -5.681  37.235  1.00  0.00    -0.024 A 
HETATM    7  C5  UNK     1      30.402  -4.589  38.515  1.00  0.00     0.065 A 
HETATM    8  C13 UNK     1      32.570  -5.027  36.069  1.00  0.00     0.015 A 
HETATM    9  C14 UNK     1      33.098  -6.410  37.979  1.00  0.00     0.015 A 
HETATM   10  C22 UNK     1      33.897  -5.105  35.647  1.00  0.00     0.043 A 
HETATM   11  C23 UNK     1      34.425  -6.486  37.557  1.00  0.00     0.043 A 
HETATM   12  C24 UNK     1      34.824  -5.834  36.390  1.00  0.00     0.116 A 
ENDROOT
BRANCH   5  13
HETATM   13  N1  UNK     1      27.296  -6.646  37.886  1.00  0.00    -0.316 N 
HETATM   14  C12 UNK     1      26.810  -7.651  38.711  1.00  0.00     0.262 C 
HETATM   15  O5  UNK     1      27.385  -8.240  39.625  1.00  0.00    -0.267 OA
HETATM   16  H2  UNK     1      26.689  -6.238  37.180  1.00  0.00     0.169 HD
BRANCH  14  17
HETATM   17  C7  UNK     1      25.421  -8.002  38.386  1.00  0.00     0.108 A 
HETATM   18  C11 UNK     1      24.473  -7.375  39.091  1.00  0.00     0.037 A 
HETATM   19  C6  UNK     1      23.067  -7.656  38.841  1.00  0.00     0.002 A 
HETATM   20  C10 UNK     1      22.731  -8.585  37.862  1.00  0.00     0.123 A 
HETATM   21  C16 UNK     1      22.044  -7.025  39.552  1.00  0.00     0.014 A 
HETATM   22  C15 UNK     1      21.404  -8.899  37.574  1.00  0.00     0.102 A 
HETATM   23  O2  UNK     1      23.734  -9.242  37.124  1.00  0.00    -0.271 OA
HETATM   24  C20 UNK     1      20.389  -8.265  38.288  1.00  0.00     0.040 A 
HETATM   25  C21 UNK     1      20.708  -7.330  39.274  1.00  0.00     0.004 A 
HETATM   26  C17 UNK     1      25.087  -8.993  37.339  1.00  0.00     0.304 A 
HETATM   27  O6  UNK     1      25.954  -9.570  36.691  1.00  0.00    -0.259 OA
BRANCH  22  28
HETATM   28  O3  UNK     1      21.089  -9.810  36.614  1.00  0.00    -0.353 OA
HETATM   29  C25 UNK     1      20.123 -10.804  36.953  1.00  0.00     0.210 C 
ENDBRANCH  22  28
ENDBRANCH  14  17
ENDBRANCH   5  13
BRANCH   3  30
HETATM   30  C8  UNK     1      29.827  -7.629  36.474  1.00  0.00     0.297 C 
HETATM   31  O4  UNK     1      30.567  -8.598  36.696  1.00  0.00    -0.259 OA
BRANCH  30  32
HETATM   32  O1  UNK     1      29.012  -7.566  35.364  1.00  0.00    -0.313 OA
BRANCH  32  33
HETATM   33  C9  UNK     1      29.323  -6.564  34.390  1.00  0.00     0.124 C 
HETATM   34  C18 UNK     1      30.573  -6.977  33.628  1.00  0.00     0.040 C 
HETATM   35  C19 UNK     1      28.130  -6.377  33.465  1.00  0.00     0.040 C 
ENDBRANCH  32  33
ENDBRANCH  30  32
ENDBRANCH   3  30
TORSDOF 6
ENDMDL
MODEL 5
REMARK VINA RESULT:      -8.7     10.255     13.689
REMARK  6 active torsions:
REMARK  status: ('A' for Active; 'I' for Inactive)
REMARK    1  A    between atoms: C8_17  and  O1_3 
REMARK    2  A    between atoms: C9_18  and  O1_3 
REMARK    3  A    between atoms: C15_24  and  O3_5 
REMARK       I    between atoms: C12_21  and  N1_9 
REMARK    4  A    between atoms: C3_12  and  N1_9 
REMARK    5  A    between atoms: C1_10  and  C8_17 
REMARK    6  A    between atoms: C12_21  and  C7_16 
ROOT
HETATM    1  S1  UNK     1      29.838  -9.922  38.501  1.00  0.00    -0.082 SA
HETATM    2  F1  UNK     1      36.209  -5.802  35.934  1.00  0.00    -0.206 F 
HETATM    3  C1  UNK     1      30.092  -7.756  37.143  1.00  0.00     0.085 A 
HETATM    4  C2  UNK     1      31.415  -8.203  37.427  1.00  0.00    -0.000 A 
HETATM    5  C3  UNK     1      29.167  -8.600  37.670  1.00  0.00     0.094 A 
HETATM    6  C4  UNK     1      32.655  -7.582  37.040  1.00  0.00    -0.024 A 
HETATM    7  C5  UNK     1      31.422  -9.370  38.159  1.00  0.00     0.065 A 
HETATM    8  C13 UNK     1      33.250  -6.640  37.878  1.00  0.00     0.015 A 
HETATM    9  C14 UNK     1      33.256  -7.924  35.831  1.00  0.00     0.015 A 
HETATM   10  C22 UNK     1      34.451  -6.039  37.503  1.00  0.00     0.043 A 
HETATM   11  C23 UNK     1      34.457  -7.323  35.457  1.00  0.00     0.043 A 
HETATM   12  C24 UNK     1      35.054  -6.379  36.294  1.00  0.00     0.116 A 
ENDROOT
BRANCH   5  13
HETATM   13  N1  UNK     1      27.770  -8.551  37.634  1.00  0.00    -0.316 N 
HETATM   14  C12 UNK     1      26.921  -8.623  38.729  1.00  0.00     0.262 C 
HETATM   15  O5  UNK     1      27.211  -8.741  39.919  1.00  0.00    -0.267 OA
HETATM   16  H2  UNK     1      27.380  -8.432  36.704  1.00  0.00     0.169 HD
BRANCH  14  17
HETATM   17  C7  UNK     1      25.509  -8.540  38.334  1.00  0.00     0.108 A 
HETATM   18  C11 UNK     1      24.734  -7.738  39.073  1.00  0.00     0.037 A 
HETATM   19  C6  UNK     1      23.321  -7.591  38.758  1.00  0.00     0.002 A 
HETATM   20  C10 UNK     1      22.795  -8.297  37.682  1.00  0.00     0.123 A 
HETATM   21  C16 UNK     1      22.476  -6.764  39.501  1.00  0.00     0.014 A 
HETATM   22  C15 UNK     1      21.450  -8.200  37.328  1.00  0.00     0.102 A 
HETATM   23  O2  UNK     1      23.616  -9.141  36.909  1.00  0.00    -0.271 OA
HETATM   24  C20 UNK     1      20.613  -7.373  38.075  1.00  0.00     0.040 A 
HETATM   25  C21 UNK     1      21.124  -6.656  39.158  1.00  0.00     0.004 A 
HETATM   26  C17 UNK     1      24.970  -9.301  37.184  1.00  0.00     0.304 A 
HETATM   27  O6  UNK     1      25.678 -10.038  36.505  1.00  0.00    -0.259 OA
BRANCH  22  28
HETATM   28  O3  UNK     1      20.948  -8.897  36.274  1.00  0.00    -0.353 OA
HETATM   29  C25 UNK     1      20.875  -8.218  35.021  1.00  0.00     0.210 C 
ENDBRANCH  22  28
ENDBRANCH  14  17
ENDBRANCH   5  13
BRANCH   3  30
HETATM   30  C8  UNK     1      29.748  -6.571  36.397  1.00  0.00     0.297 C 
HETATM   31  O4  UNK     1      29.897  -6.457  35.172  1.00  0.00    -0.259 OA
BRANCH  30  32
HETATM   32  O1  UNK     1      29.230  -5.555  37.172  1.00  0.00    -0.313 OA
BRANCH  32  33
HETATM   33  C9  UNK     1      30.145  -4.863  38.028  1.00  0.00     0.124 C 
HETATM   34  C18 UNK     1      30.920  -3.842  37.211  1.00  0.00     0.040 C 
HETATM   35  C19 UNK     1      29.373  -4.212  39.166  1.00  0.00     0.040 C 
ENDBRANCH  32  33
ENDBRANCH  30  32
ENDBRANCH   3  30
TORSDOF 6
ENDMDL
MODEL 6
REMARK VINA RESULT:      -8.6     10.108     13.662
REMARK  6 active torsions:
REMARK  status: ('A' for Active; 'I' for Inactive)
REMARK    1  A    between atoms: C8_17  and  O1_3 
REMARK    2  A    between atoms: C9_18  and  O1_3 
REMARK    3  A    between atoms: C15_24  and  O3_5 
REMARK       I    between atoms: C12_21  and  N1_9 
REMARK    4  A    between atoms: C3_12  and  N1_9 
REMARK    5  A    between atoms: C1_10  and  C8_17 
REMARK    6  A    between atoms: C12_21  and  C7_16 
ROOT
HETATM    1  S1  UNK     1      28.711  -5.046  38.985  1.00  0.00    -0.082 SA
HETATM    2  F1  UNK     1      36.133  -5.691  36.043  1.00  0.00    -0.206 F 
HETATM    3  C1  UNK     1      29.754  -6.543  37.176  1.00  0.00     0.085 A 
HETATM    4  C2  UNK     1      30.809  -5.720  37.666  1.00  0.00    -0.000 A 
HETATM    5  C3  UNK     1      28.585  -6.268  37.811  1.00  0.00     0.094 A 
HETATM    6  C4  UNK     1      32.187  -5.713  37.246  1.00  0.00    -0.024 A 
HETATM    7  C5  UNK     1      30.380  -4.860  38.653  1.00  0.00     0.065 A 
HETATM    8  C13 UNK     1      32.590  -4.877  36.206  1.00  0.00     0.015 A 
HETATM    9  C14 UNK     1      33.110  -6.540  37.880  1.00  0.00     0.015 A 
HETATM   10  C22 UNK     1      33.924  -4.871  35.800  1.00  0.00     0.043 A 
HETATM   11  C23 UNK     1      34.443  -6.532  37.474  1.00  0.00     0.043 A 
HETATM   12  C24 UNK     1      34.851  -5.698  36.433  1.00  0.00     0.116 A 
ENDROOT
BRANCH   5  13
HETATM   13  N1  UNK     1      27.313  -6.828  37.651  1.00  0.00    -0.316 N 
HETATM   14  C12 UNK     1      26.821  -7.943  38.315  1.00  0.00     0.262 C 
HETATM   15  O5  UNK     1      27.382  -8.648  39.152  1.00  0.00    -0.267 OA
HETATM   16  H2  UNK     1      26.718  -6.331  36.995  1.00  0.00     0.169 HD
BRANCH  14  17
HETATM   17  C7  UNK     1      25.446  -8.258  37.909  1.00  0.00     0.108 A 
HETATM   18  C11 UNK     1      25.286  -9.362  37.170  1.00  0.00     0.037 A 
HETATM   19  C6  UNK     1      23.959  -9.757  36.721  1.00  0.00     0.002 A 
HETATM   20  C10 UNK     1      22.868  -8.970  37.071  1.00  0.00     0.123 A 
HETATM   21  C16 UNK     1      23.746 -10.902  35.949  1.00  0.00     0.014 A 
HETATM   22  C15 UNK     1      21.572  -9.293  36.672  1.00  0.00     0.102 A 
HETATM   23  O2  UNK     1      23.043  -7.808  37.848  1.00  0.00    -0.271 OA
HETATM   24  C20 UNK     1      21.368 -10.436  35.902  1.00  0.00     0.040 A 
HETATM   25  C21 UNK     1      22.451 -11.239  35.542  1.00  0.00     0.004 A 
HETATM   26  C17 UNK     1      24.299  -7.405  38.294  1.00  0.00     0.304 A 
HETATM   27  O6  UNK     1      24.442  -6.393  38.971  1.00  0.00    -0.259 OA
BRANCH  22  28
HETATM   28  O3  UNK     1      20.514  -8.513  37.021  1.00  0.00    -0.353 OA
HETATM   29  C25 UNK     1      19.646  -8.088  35.971  1.00  0.00     0.210 C 
ENDBRANCH  22  28
ENDBRANCH  14  17
ENDBRANCH   5  13
BRANCH   3  30
HETATM   30  C8  UNK     1      29.879  -7.543  36.145  1.00  0.00     0.297 C 
HETATM   31  O4  UNK     1      30.038  -7.281  34.944  1.00  0.00    -0.259 OA
BRANCH  30  32
HETATM   32  O1  UNK     1      29.807  -8.838  36.612  1.00  0.00    -0.313 OA
BRANCH  32  33
HETATM   33  C9  UNK     1      31.024  -9.423  37.087  1.00  0.00     0.124 C 
HETATM   34  C18 UNK     1      30.781 -10.046  38.452  1.00  0.00     0.040 C 
HETATM   35  C19 UNK     1      31.516 -10.447  36.075  1.00  0.00     0.040 C 
ENDBRANCH  32  33
ENDBRANCH  30  32
ENDBRANCH   3  30
TORSDOF 6
ENDMDL
MODEL 7
REMARK VINA RESULT:      -8.5     10.773     13.326
REMARK  6 active torsions:
REMARK  status: ('A' for Active; 'I' for Inactive)
REMARK    1  A    between atoms: C8_17  and  O1_3 
REMARK    2  A    between atoms: C9_18  and  O1_3 
REMARK    3  A    between atoms: C15_24  and  O3_5 
REMARK       I    between atoms: C12_21  and  N1_9 
REMARK    4  A    between atoms: C3_12  and  N1_9 
REMARK    5  A    between atoms: C1_10  and  C8_17 
REMARK    6  A    between atoms: C12_21  and  C7_16 
ROOT
HETATM    1  S1  UNK     1      28.664  -4.774  38.769  1.00  0.00    -0.082 SA
HETATM    2  F1  UNK     1      36.151  -5.820  36.123  1.00  0.00    -0.206 F 
HETATM    3  C1  UNK     1      29.739  -6.488  37.184  1.00  0.00     0.085 A 
HETATM    4  C2  UNK     1      30.789  -5.617  37.597  1.00  0.00    -0.000 A 
HETATM    5  C3  UNK     1      28.556  -6.130  37.750  1.00  0.00     0.094 A 
HETATM    6  C4  UNK     1      32.176  -5.670  37.216  1.00  0.00    -0.024 A 
HETATM    7  C5  UNK     1      30.343  -4.640  38.460  1.00  0.00     0.065 A 
HETATM    8  C13 UNK     1      32.613  -4.971  36.092  1.00  0.00     0.015 A 
HETATM    9  C14 UNK     1      33.075  -6.419  37.970  1.00  0.00     0.015 A 
HETATM   10  C22 UNK     1      33.957  -5.022  35.723  1.00  0.00     0.043 A 
HETATM   11  C23 UNK     1      34.419  -6.469  37.601  1.00  0.00     0.043 A 
HETATM   12  C24 UNK     1      34.860  -5.771  36.477  1.00  0.00     0.116 A 
ENDROOT
BRANCH   5  13
HETATM   13  N1  UNK     1      27.284  -6.697  37.627  1.00  0.00    -0.316 N 
HETATM   14  C12 UNK     1      26.805  -7.792  38.332  1.00  0.00     0.262 C 
HETATM   15  O5  UNK     1      27.380  -8.470  39.183  1.00  0.00    -0.267 OA
HETATM   16  H2  UNK     1      26.678  -6.223  36.964  1.00  0.00     0.169 HD
BRANCH  14  17
HETATM   17  C7  UNK     1      25.424  -8.124  37.958  1.00  0.00     0.108 A 
HETATM   18  C11 UNK     1      25.262  -9.223  37.213  1.00  0.00     0.037 A 
HETATM   19  C6  UNK     1      23.930  -9.633  36.793  1.00  0.00     0.002 A 
HETATM   20  C10 UNK     1      22.837  -8.864  37.176  1.00  0.00     0.123 A 
HETATM   21  C16 UNK     1      23.714 -10.774  36.017  1.00  0.00     0.014 A 
HETATM   22  C15 UNK     1      21.537  -9.202  36.806  1.00  0.00     0.102 A 
HETATM   23  O2  UNK     1      23.015  -7.706  37.958  1.00  0.00    -0.271 OA
HETATM   24  C20 UNK     1      21.329 -10.341  36.031  1.00  0.00     0.040 A 
HETATM   25  C21 UNK     1      22.414 -11.126  35.639  1.00  0.00     0.004 A 
HETATM   26  C17 UNK     1      24.276  -7.290  38.377  1.00  0.00     0.304 A 
HETATM   27  O6  UNK     1      24.421  -6.281  39.059  1.00  0.00    -0.259 OA
BRANCH  22  28
HETATM   28  O3  UNK     1      20.476  -8.439  37.186  1.00  0.00    -0.353 OA
HETATM   29  C25 UNK     1      19.619  -8.975  38.193  1.00  0.00     0.210 C 
ENDBRANCH  22  28
ENDBRANCH  14  17
ENDBRANCH   5  13
BRANCH   3  30
HETATM   30  C8  UNK     1      29.880  -7.607  36.287  1.00  0.00     0.297 C 
HETATM   31  O4  UNK     1      30.616  -8.580  36.507  1.00  0.00    -0.259 OA
BRANCH  30  32
HETATM   32  O1  UNK     1      29.116  -7.507  35.144  1.00  0.00    -0.313 OA
BRANCH  32  33
HETATM   33  C9  UNK     1      29.436  -6.440  34.244  1.00  0.00     0.124 C 
HETATM   34  C18 UNK     1      30.704  -6.791  33.482  1.00  0.00     0.040 C 
HETATM   35  C19 UNK     1      28.258  -6.204  33.310  1.00  0.00     0.040 C 
ENDBRANCH  32  33
ENDBRANCH  30  32
ENDBRANCH   3  30
TORSDOF 6
ENDMDL
MODEL 8
REMARK VINA RESULT:      -8.4      1.076      2.012
REMARK  6 active torsions:
REMARK  status: ('A' for Active; 'I' for Inactive)
REMARK    1  A    between atoms: C8_17  and  O1_3 
REMARK    2  A    between atoms: C9_18  and  O1_3 
REMARK    3  A    between atoms: C15_24  and  O3_5 
REMARK       I    between atoms: C12_21  and  N1_9 
REMARK    4  A    between atoms: C3_12  and  N1_9 
REMARK    5  A    between atoms: C1_10  and  C8_17 
REMARK    6  A    between atoms: C12_21  and  C7_16 
ROOT
HETATM    1  S1  UNK     1      17.665  -0.992  37.140  1.00  0.00    -0.082 SA
HETATM    2  F1  UNK     1      21.722  -7.896  37.278  1.00  0.00    -0.206 F 
HETATM    3  C1  UNK     1      19.555  -1.942  35.683  1.00  0.00     0.085 A 
HETATM    4  C2  UNK     1      19.273  -2.937  36.663  1.00  0.00    -0.000 A 
HETATM    5  C3  UNK     1      18.754  -0.857  35.843  1.00  0.00     0.094 A 
HETATM    6  C4  UNK     1      19.907  -4.220  36.822  1.00  0.00    -0.024 A 
HETATM    7  C5  UNK     1      18.266  -2.550  37.519  1.00  0.00     0.065 A 
HETATM    8  C13 UNK     1      21.030  -4.342  37.637  1.00  0.00     0.015 A 
HETATM    9  C14 UNK     1      19.395  -5.333  36.161  1.00  0.00     0.015 A 
HETATM   10  C22 UNK     1      21.644  -5.585  37.791  1.00  0.00     0.043 A 
HETATM   11  C23 UNK     1      20.008  -6.576  36.315  1.00  0.00     0.043 A 
HETATM   12  C24 UNK     1      21.134  -6.702  37.131  1.00  0.00     0.116 A 
ENDROOT
BRANCH   5  13
HETATM   13  N1  UNK     1      18.686   0.336  35.115  1.00  0.00    -0.316 N 
HETATM   14  C12 UNK     1      18.726   1.619  35.643  1.00  0.00     0.262 C 
HETATM   15  O5  UNK     1      18.823   1.962  36.820  1.00  0.00    -0.267 OA
HETATM   16  H2  UNK     1      18.623   0.208  34.109  1.00  0.00     0.169 HD
BRANCH  14  17
HETATM   17  C7  UNK     1      18.632   2.644  34.596  1.00  0.00     0.108 A 
HETATM   18  C11 UNK     1      18.935   3.894  34.964  1.00  0.00     0.037 A 
HETATM   19  C6  UNK     1      18.873   4.979  33.997  1.00  0.00     0.002 A 
HETATM   20  C10 UNK     1      18.492   4.694  32.690  1.00  0.00     0.123 A 
HETATM   21  C16 UNK     1      19.182   6.298  34.336  1.00  0.00     0.014 A 
HETATM   22  C15 UNK     1      18.411   5.687  31.716  1.00  0.00     0.102 A 
HETATM   23  O2  UNK     1      18.172   3.376  32.309  1.00  0.00    -0.271 OA
HETATM   24  C20 UNK     1      18.721   7.000  32.063  1.00  0.00     0.040 A 
HETATM   25  C21 UNK     1      19.106   7.305  33.369  1.00  0.00     0.004 A 
HETATM   26  C17 UNK     1      18.225   2.317  33.211  1.00  0.00     0.304 A 
HETATM   27  O6  UNK     1      17.946   1.172  32.870  1.00  0.00    -0.259 OA
BRANCH  22  28
HETATM   28  O3  UNK     1      18.037   5.394  30.441  1.00  0.00    -0.353 OA
HETATM   29  C25 UNK     1      19.073   5.300  29.465  1.00  0.00     0.210 C 
ENDBRANCH  22  28
ENDBRANCH  14  17
ENDBRANCH   5  13
BRANCH   3  30
HETATM   30  C8  UNK     1      20.552  -2.044  34.646  1.00  0.00     0.297 C 
HETATM   31  O4  UNK     1      21.773  -2.018  34.857  1.00  0.00    -0.259 OA
BRANCH  30  32
HETATM   32  O1  UNK     1      20.028  -2.175  33.378  1.00  0.00    -0.313 OA
BRANCH  32  33
HETATM   33  C9  UNK     1      20.960  -2.185  32.291  1.00  0.00     0.124 C 
HETATM   34  C18 UNK     1      21.127  -3.610  31.788  1.00  0.00     0.040 C 
HETATM   35  C19 UNK     1      20.464  -1.251  31.197  1.00  0.00     0.040 C 
ENDBRANCH  32  33
ENDBRANCH  30  32
ENDBRANCH   3  30
TORSDOF 6
ENDMDL
MODEL 9
REMARK VINA RESULT:      -8.4      7.526     11.470
REMARK  6 active torsions:
REMARK  status: ('A' for Active; 'I' for Inactive)
REMARK    1  A    between atoms: C8_17  and  O1_3 
REMARK    2  A    between atoms: C9_18  and  O1_3 
REMARK    3  A    between atoms: C15_24  and  O3_5 
REMARK       I    between atoms: C12_21  and  N1_9 
REMARK    4  A    between atoms: C3_12  and  N1_9 
REMARK    5  A    between atoms: C1_10  and  C8_17 
REMARK    6  A    between atoms: C12_21  and  C7_16 
ROOT
HETATM    1  S1  UNK     1      19.912   8.651  34.379  1.00  0.00    -0.082 SA
HETATM    2  F1  UNK     1      18.693   2.555  29.328  1.00  0.00    -0.206 F 
HETATM    3  C1  UNK     1      17.945   8.002  32.859  1.00  0.00     0.085 A 
HETATM    4  C2  UNK     1      18.940   7.000  32.668  1.00  0.00    -0.000 A 
HETATM    5  C3  UNK     1      18.358   8.937  33.754  1.00  0.00     0.094 A 
HETATM    6  C4  UNK     1      18.876   5.850  31.804  1.00  0.00    -0.024 A 
HETATM    7  C5  UNK     1      20.061   7.231  33.435  1.00  0.00     0.065 A 
HETATM    8  C13 UNK     1      19.327   5.945  30.489  1.00  0.00     0.015 A 
HETATM    9  C14 UNK     1      18.364   4.648  32.286  1.00  0.00     0.015 A 
HETATM   10  C22 UNK     1      19.264   4.831  29.652  1.00  0.00     0.043 A 
HETATM   11  C23 UNK     1      18.303   3.534  31.449  1.00  0.00     0.043 A 
HETATM   12  C24 UNK     1      18.753   3.626  30.131  1.00  0.00     0.116 A 
ENDROOT
BRANCH   5  13
HETATM   13  N1  UNK     1      17.711  10.081  34.234  1.00  0.00    -0.316 N 
HETATM   14  C12 UNK     1      18.040  11.394  33.931  1.00  0.00     0.262 C 
HETATM   15  O5  UNK     1      18.939  11.812  33.203  1.00  0.00    -0.267 OA
HETATM   16  H2  UNK     1      16.921   9.889  34.843  1.00  0.00     0.169 HD
BRANCH  14  17
HETATM   17  C7  UNK     1      17.155  12.350  34.607  1.00  0.00     0.108 A 
HETATM   18  C11 UNK     1      16.022  11.851  35.112  1.00  0.00     0.037 A 
HETATM   19  C6  UNK     1      15.080  12.721  35.801  1.00  0.00     0.002 A 
HETATM   20  C10 UNK     1      15.379  14.074  35.923  1.00  0.00     0.123 A 
HETATM   21  C16 UNK     1      13.886  12.243  36.345  1.00  0.00     0.014 A 
HETATM   22  C15 UNK     1      14.521  14.960  36.570  1.00  0.00     0.102 A 
HETATM   23  O2  UNK     1      16.574  14.594  35.387  1.00  0.00    -0.271 OA
HETATM   24  C20 UNK     1      13.331  14.476  37.109  1.00  0.00     0.040 A 
HETATM   25  C21 UNK     1      13.014  13.121  36.998  1.00  0.00     0.004 A 
HETATM   26  C17 UNK     1      17.494  13.786  34.724  1.00  0.00     0.304 A 
HETATM   27  O6  UNK     1      18.533  14.247  34.262  1.00  0.00    -0.259 OA
BRANCH  22  28
HETATM   28  O3  UNK     1      14.825  16.281  36.680  1.00  0.00    -0.353 OA
HETATM   29  C25 UNK     1      15.340  16.727  37.934  1.00  0.00     0.210 C 
ENDBRANCH  22  28
ENDBRANCH  14  17
ENDBRANCH   5  13
BRANCH   3  30
HETATM   30  C8  UNK     1      16.662   8.046  32.204  1.00  0.00     0.297 C 
HETATM   31  O4  UNK     1      16.496   8.411  31.031  1.00  0.00    -0.259 OA
BRANCH  30  32
HETATM   32  O1  UNK     1      15.613   7.642  33.002  1.00  0.00    -0.313 OA
BRANCH  32  33
HETATM   33  C9  UNK     1      14.384   8.366  32.870  1.00  0.00     0.124 C 
HETATM   34  C18 UNK     1      13.255   7.387  32.587  1.00  0.00     0.040 C 
HETATM   35  C19 UNK     1      14.136   9.168  34.139  1.00  0.00     0.040 C 
ENDBRANCH  32  33
ENDBRANCH  30  32
ENDBRANCH   3  30
TORSDOF 6
ENDMDL
MODEL 10
REMARK VINA RESULT:      -8.3     11.089     13.809
REMARK  6 active torsions:
REMARK  status: ('A' for Active; 'I' for Inactive)
REMARK    1  A    between atoms: C8_17  and  O1_3 
REMARK    2  A    between atoms: C9_18  and  O1_3 
REMARK    3  A    between atoms: C15_24  and  O3_5 
REMARK       I    between atoms: C12_21  and  N1_9 
REMARK    4  A    between atoms: C3_12  and  N1_9 
REMARK    5  A    between atoms: C1_10  and  C8_17 
REMARK    6  A    between atoms: C12_21  and  C7_16 
ROOT
HETATM    1  S1  UNK     1      29.433  -9.448  34.548  1.00  0.00    -0.082 SA
HETATM    2  F1  UNK     1      35.943  -5.362  36.803  1.00  0.00    -0.206 F 
HETATM    3  C1  UNK     1      29.839  -7.644  36.332  1.00  0.00     0.085 A 
HETATM    4  C2  UNK     1      31.096  -7.863  35.698  1.00  0.00    -0.000 A 
HETATM    5  C3  UNK     1      28.876  -8.439  35.797  1.00  0.00     0.094 A 
HETATM    6  C4  UNK     1      32.350  -7.215  35.984  1.00  0.00    -0.024 A 
HETATM    7  C5  UNK     1      31.017  -8.818  34.709  1.00  0.00     0.065 A 
HETATM    8  C13 UNK     1      33.213  -7.764  36.931  1.00  0.00     0.015 A 
HETATM    9  C14 UNK     1      32.695  -6.045  35.313  1.00  0.00     0.015 A 
HETATM   10  C22 UNK     1      34.427  -7.136  37.208  1.00  0.00     0.043 A 
HETATM   11  C23 UNK     1      33.910  -5.419  35.590  1.00  0.00     0.043 A 
HETATM   12  C24 UNK     1      34.776  -5.965  36.538  1.00  0.00     0.116 A 
ENDROOT
BRANCH   5  13
HETATM   13  N1  UNK     1      27.517  -8.553  36.109  1.00  0.00    -0.316 N 
HETATM   14  C12 UNK     1      26.980  -9.254  37.179  1.00  0.00     0.262 C 
HETATM   15  O5  UNK     1      27.567  -9.900  38.046  1.00  0.00    -0.267 OA
HETATM   16  H2  UNK     1      26.900  -8.046  35.481  1.00  0.00     0.169 HD
BRANCH  14  17
HETATM   17  C7  UNK     1      25.515  -9.167  37.211  1.00  0.00     0.108 A 
HETATM   18  C11 UNK     1      24.852 -10.081  36.495  1.00  0.00     0.037 A 
HETATM   19  C6  UNK     1      23.397 -10.076  36.465  1.00  0.00     0.002 A 
HETATM   20  C10 UNK     1      22.713  -9.106  37.190  1.00  0.00     0.123 A 
HETATM   21  C16 UNK     1      22.665 -11.013  35.732  1.00  0.00     0.014 A 
HETATM   22  C15 UNK     1      21.321  -9.046  37.202  1.00  0.00     0.102 A 
HETATM   23  O2  UNK     1      23.417  -8.145  37.941  1.00  0.00    -0.271 OA
HETATM   24  C20 UNK     1      20.597  -9.983  36.469  1.00  0.00     0.040 A 
HETATM   25  C21 UNK     1      21.267 -10.965  35.736  1.00  0.00     0.004 A 
HETATM   26  C17 UNK     1      24.808  -8.125  37.990  1.00  0.00     0.304 A 
HETATM   27  O6  UNK     1      25.412  -7.285  38.648  1.00  0.00    -0.259 OA
BRANCH  22  28
HETATM   28  O3  UNK     1      20.664  -8.091  37.915  1.00  0.00    -0.353 OA
HETATM   29  C25 UNK     1      19.821  -8.537  38.976  1.00  0.00     0.210 C 
ENDBRANCH  22  28
ENDBRANCH  14  17
ENDBRANCH   5  13
BRANCH   3  30
HETATM   30  C8  UNK     1      29.589  -6.711  37.403  1.00  0.00     0.297 C 
HETATM   31  O4  UNK     1      29.294  -7.048  38.558  1.00  0.00    -0.259 OA
BRANCH  30  32
HETATM   32  O1  UNK     1      29.708  -5.389  37.030  1.00  0.00    -0.313 OA
BRANCH  32  33
HETATM   33  C9  UNK     1      30.474  -4.541  37.893  1.00  0.00     0.124 C 
HETATM   34  C18 UNK     1      31.091  -3.419  37.074  1.00  0.00     0.040 C 
HETATM   35  C19 UNK     1      29.575  -4.009  38.999  1.00  0.00     0.040 C 
ENDBRANCH  32  33
ENDBRANCH  30  32
ENDBRANCH   3  30
TORSDOF 6
ENDMDL
