MODEL 1
REMARK VINA RESULT:      -8.9      0.000      0.000
REMARK  3 active torsions:
REMARK  status: ('A' for Active; 'I' for Inactive)
REMARK    1  A    between atoms: C7_14  and  N1_5 
REMARK       I    between atoms: C8_15  and  N1_5 
REMARK    2  A    between atoms: C2_9  and  C8_15 
REMARK    3  A    between atoms: C5_12  and  C6_13 
ROOT
HETATM    1  O1  UNK     1      19.028   1.430  28.700  1.00  0.00    -0.274 OA
HETATM    2  O4  UNK     1      18.168   3.546  28.773  1.00  0.00    -0.259 OA
HETATM    3  C1  UNK     1      19.545   0.272  30.775  1.00  0.00    -0.001 A 
HETATM    4  C2  UNK     1      18.634   2.517  30.856  1.00  0.00     0.108 A 
HETATM    5  C3  UNK     1      19.505   0.295  29.385  1.00  0.00     0.089 A 
HETATM    6  C4  UNK     1      19.087   1.441  31.511  1.00  0.00     0.037 A 
HETATM    7  C9  UNK     1      20.024  -0.872  31.417  1.00  0.00     0.014 A 
HETATM    8  C10 UNK     1      18.582   2.563  29.377  1.00  0.00     0.304 A 
HETATM    9  C11 UNK     1      19.929  -0.790  28.620  1.00  0.00     0.038 A 
HETATM   10  C13 UNK     1      20.453  -1.968  30.664  1.00  0.00     0.001 A 
HETATM   11  C14 UNK     1      20.405  -1.928  29.269  1.00  0.00     0.003 A 
ENDROOT
BRANCH   4  12
HETATM   12  C8  UNK     1      18.196   3.644  31.686  1.00  0.00     0.263 C 
HETATM   13  O3  UNK     1      17.620   3.430  32.751  1.00  0.00    -0.267 OA
HETATM   14  N1  UNK     1      18.511   4.870  31.114  1.00  0.00    -0.304 N 
HETATM   15  H4  UNK     1      18.994   4.874  30.220  1.00  0.00     0.171 HD
BRANCH  14  16
HETATM   16  C7  UNK     1      18.239   6.160  31.632  1.00  0.00     0.187 A 
HETATM   17  C6  UNK     1      18.944   6.802  32.647  1.00  0.00     0.112 A 
HETATM   18  N2  UNK     1      18.417   8.003  32.880  1.00  0.00    -0.106 NA
HETATM   19  O2  UNK     1      17.356   8.096  31.976  1.00  0.00    -0.105 OA
HETATM   20  N3  UNK     1      17.251   6.940  31.200  1.00  0.00    -0.085 NA
BRANCH  17  21
HETATM   21  C5  UNK     1      20.102   6.335  33.422  1.00  0.00     0.061 C 
HETATM   22  C12 UNK     1      21.419   6.402  32.637  1.00  0.00     0.011 C 
ENDBRANCH  17  21
ENDBRANCH  14  16
ENDBRANCH   4  12
TORSDOF 3
ENDMDL
MODEL 2
REMARK VINA RESULT:      -8.8      8.080     10.986
REMARK  3 active torsions:
REMARK  status: ('A' for Active; 'I' for Inactive)
REMARK    1  A    between atoms: C7_14  and  N1_5 
REMARK       I    between atoms: C8_15  and  N1_5 
REMARK    2  A    between atoms: C2_9  and  C8_15 
REMARK    3  A    between atoms: C5_12  and  C6_13 
ROOT
HETATM    1  O1  UNK     1      19.454  -0.963  34.597  1.00  0.00    -0.274 OA
HETATM    2  O4  UNK     1      20.642  -2.749  33.810  1.00  0.00    -0.259 OA
HETATM    3  C1  UNK     1      18.538  -1.031  36.849  1.00  0.00    -0.001 A 
HETATM    4  C2  UNK     1      19.796  -2.927  36.016  1.00  0.00     0.108 A 
HETATM    5  C3  UNK     1      18.726  -0.363  35.643  1.00  0.00     0.089 A 
HETATM    6  C4  UNK     1      19.105  -2.360  37.012  1.00  0.00     0.037 A 
HETATM    7  C9  UNK     1      17.810  -0.401  37.861  1.00  0.00     0.014 A 
HETATM    8  C10 UNK     1      20.010  -2.234  34.725  1.00  0.00     0.304 A 
HETATM    9  C11 UNK     1      18.209   0.912  35.421  1.00  0.00     0.038 A 
HETATM   10  C13 UNK     1      17.286   0.877  37.654  1.00  0.00     0.001 A 
HETATM   11  C14 UNK     1      17.485   1.533  36.438  1.00  0.00     0.003 A 
ENDROOT
BRANCH   4  12
HETATM   12  C8  UNK     1      20.328  -4.269  36.277  1.00  0.00     0.263 C 
HETATM   13  O3  UNK     1      21.153  -4.435  37.173  1.00  0.00    -0.267 OA
HETATM   14  N1  UNK     1      19.791  -5.221  35.420  1.00  0.00    -0.304 N 
HETATM   15  H4  UNK     1      19.112  -4.917  34.727  1.00  0.00     0.171 HD
BRANCH  14  16
HETATM   16  C7  UNK     1      20.074  -6.609  35.384  1.00  0.00     0.187 A 
HETATM   17  C6  UNK     1      19.648  -7.557  36.309  1.00  0.00     0.112 A 
HETATM   18  N2  UNK     1      20.096  -8.764  35.966  1.00  0.00    -0.106 NA
HETATM   19  O2  UNK     1      20.819  -8.543  34.791  1.00  0.00    -0.105 OA
HETATM   20  N3  UNK     1      20.801  -7.193  34.433  1.00  0.00    -0.085 NA
BRANCH  17  21
HETATM   21  C5  UNK     1      18.832  -7.384  37.519  1.00  0.00     0.061 C 
HETATM   22  C12 UNK     1      19.671  -7.173  38.787  1.00  0.00     0.011 C 
ENDBRANCH  17  21
ENDBRANCH  14  16
ENDBRANCH   4  12
TORSDOF 3
ENDMDL
MODEL 3
REMARK VINA RESULT:      -8.7      2.914      3.952
REMARK  3 active torsions:
REMARK  status: ('A' for Active; 'I' for Inactive)
REMARK    1  A    between atoms: C7_14  and  N1_5 
REMARK       I    between atoms: C8_15  and  N1_5 
REMARK    2  A    between atoms: C2_9  and  C8_15 
REMARK    3  A    between atoms: C5_12  and  C6_13 
ROOT
HETATM    1  O1  UNK     1      18.282   1.315  32.488  1.00  0.00    -0.274 OA
HETATM    2  O4  UNK     1      18.220   2.993  30.939  1.00  0.00    -0.259 OA
HETATM    3  C1  UNK     1      18.328   1.867  34.856  1.00  0.00    -0.001 A 
HETATM    4  C2  UNK     1      18.263   3.650  33.216  1.00  0.00     0.108 A 
HETATM    5  C3  UNK     1      18.319   0.918  33.840  1.00  0.00     0.089 A 
HETATM    6  C4  UNK     1      18.298   3.277  34.501  1.00  0.00     0.037 A 
HETATM    7  C9  UNK     1      18.364   1.434  36.183  1.00  0.00     0.014 A 
HETATM    8  C10 UNK     1      18.252   2.657  32.118  1.00  0.00     0.304 A 
HETATM    9  C11 UNK     1      18.346  -0.449  34.111  1.00  0.00     0.038 A 
HETATM   10  C13 UNK     1      18.392   0.067  36.471  1.00  0.00     0.001 A 
HETATM   11  C14 UNK     1      18.383  -0.872  35.439  1.00  0.00     0.003 A 
ENDROOT
BRANCH   4  12
HETATM   12  C8  UNK     1      18.235   5.094  32.960  1.00  0.00     0.263 C 
HETATM   13  O3  UNK     1      19.208   5.785  33.258  1.00  0.00    -0.267 OA
HETATM   14  N1  UNK     1      17.040   5.502  32.383  1.00  0.00    -0.304 N 
HETATM   15  H4  UNK     1      16.330   4.798  32.197  1.00  0.00     0.171 HD
BRANCH  14  16
HETATM   16  C7  UNK     1      16.667   6.815  32.004  1.00  0.00     0.187 A 
HETATM   17  C6  UNK     1      16.096   7.777  32.833  1.00  0.00     0.112 A 
HETATM   18  N2  UNK     1      15.876   8.898  32.147  1.00  0.00    -0.106 NA
HETATM   19  O2  UNK     1      16.330   8.610  30.858  1.00  0.00    -0.105 OA
HETATM   20  N3  UNK     1      16.822   7.305  30.776  1.00  0.00    -0.085 NA
BRANCH  17  21
HETATM   21  C5  UNK     1      15.737   7.693  34.256  1.00  0.00     0.061 C 
HETATM   22  C12 UNK     1      16.949   7.803  35.190  1.00  0.00     0.011 C 
ENDBRANCH  17  21
ENDBRANCH  14  16
ENDBRANCH   4  12
TORSDOF 3
ENDMDL
MODEL 4
REMARK VINA RESULT:      -8.7      1.374      2.217
REMARK  3 active torsions:
REMARK  status: ('A' for Active; 'I' for Inactive)
REMARK    1  A    between atoms: C7_14  and  N1_5 
REMARK       I    between atoms: C8_15  and  N1_5 
REMARK    2  A    between atoms: C2_9  and  C8_15 
REMARK    3  A    between atoms: C5_12  and  C6_13 
ROOT
HETATM    1  O1  UNK     1      18.731   0.413  32.653  1.00  0.00    -0.274 OA
HETATM    2  O4  UNK     1      17.867   2.281  33.647  1.00  0.00    -0.259 OA
HETATM    3  C1  UNK     1      19.589   0.549  30.382  1.00  0.00    -0.001 A 
HETATM    4  C2  UNK     1      18.673   2.532  31.433  1.00  0.00     0.108 A 
HETATM    5  C3  UNK     1      19.326  -0.192  31.529  1.00  0.00     0.089 A 
HETATM    6  C4  UNK     1      19.238   1.961  30.362  1.00  0.00     0.037 A 
HETATM    7  C9  UNK     1      20.181  -0.087  29.289  1.00  0.00     0.014 A 
HETATM    8  C10 UNK     1      18.385   1.762  32.664  1.00  0.00     0.304 A 
HETATM    9  C11 UNK     1      19.637  -1.548  31.615  1.00  0.00     0.038 A 
HETATM   10  C13 UNK     1      20.498  -1.446  29.359  1.00  0.00     0.001 A 
HETATM   11  C14 UNK     1      20.228  -2.175  30.518  1.00  0.00     0.003 A 
ENDROOT
BRANCH   4  12
HETATM   12  C8  UNK     1      18.356   3.960  31.314  1.00  0.00     0.263 C 
HETATM   13  O3  UNK     1      18.659   4.569  30.290  1.00  0.00    -0.267 OA
HETATM   14  N1  UNK     1      17.721   4.451  32.447  1.00  0.00    -0.304 N 
HETATM   15  H4  UNK     1      17.541   3.809  33.215  1.00  0.00     0.171 HD
BRANCH  14  16
HETATM   16  C7  UNK     1      17.275   5.775  32.682  1.00  0.00     0.187 A 
HETATM   17  C6  UNK     1      17.980   6.772  33.350  1.00  0.00     0.112 A 
HETATM   18  N2  UNK     1      17.261   7.893  33.387  1.00  0.00    -0.106 NA
HETATM   19  O2  UNK     1      16.080   7.569  32.717  1.00  0.00    -0.105 OA
HETATM   20  N3  UNK     1      16.095   6.242  32.279  1.00  0.00    -0.085 NA
BRANCH  17  21
HETATM   21  C5  UNK     1      19.312   6.722  33.969  1.00  0.00     0.061 C 
HETATM   22  C12 UNK     1      20.451   6.642  32.943  1.00  0.00     0.011 C 
ENDBRANCH  17  21
ENDBRANCH  14  16
ENDBRANCH   4  12
TORSDOF 3
ENDMDL
MODEL 5
REMARK VINA RESULT:      -8.7      2.374      7.097
REMARK  3 active torsions:
REMARK  status: ('A' for Active; 'I' for Inactive)
REMARK    1  A    between atoms: C7_14  and  N1_5 
REMARK       I    between atoms: C8_15  and  N1_5 
REMARK    2  A    between atoms: C2_9  and  C8_15 
REMARK    3  A    between atoms: C5_12  and  C6_13 
ROOT
HETATM    1  O1  UNK     1      19.573   6.940  32.195  1.00  0.00    -0.274 OA
HETATM    2  O4  UNK     1      20.399   5.280  30.859  1.00  0.00    -0.259 OA
HETATM    3  C1  UNK     1      17.501   6.580  33.416  1.00  0.00    -0.001 A 
HETATM    4  C2  UNK     1      18.374   4.817  31.999  1.00  0.00     0.108 A 
HETATM    5  C3  UNK     1      18.576   7.396  33.079  1.00  0.00     0.089 A 
HETATM    6  C4  UNK     1      17.424   5.247  32.839  1.00  0.00     0.037 A 
HETATM    7  C9  UNK     1      16.534   7.069  34.296  1.00  0.00     0.014 A 
HETATM    8  C10 UNK     1      19.526   5.669  31.628  1.00  0.00     0.304 A 
HETATM    9  C11 UNK     1      18.711   8.684  33.596  1.00  0.00     0.038 A 
HETATM   10  C13 UNK     1      16.654   8.357  34.823  1.00  0.00     0.001 A 
HETATM   11  C14 UNK     1      17.740   9.163  34.474  1.00  0.00     0.003 A 
ENDROOT
BRANCH   4  12
HETATM   12  C8  UNK     1      18.206   3.459  31.471  1.00  0.00     0.263 C 
HETATM   13  O3  UNK     1      17.721   2.583  32.183  1.00  0.00    -0.267 OA
HETATM   14  N1  UNK     1      18.649   3.350  30.159  1.00  0.00    -0.304 N 
HETATM   15  H4  UNK     1      19.027   4.178  29.707  1.00  0.00     0.171 HD
BRANCH  14  16
HETATM   16  C7  UNK     1      18.641   2.194  29.338  1.00  0.00     0.187 A 
HETATM   17  C6  UNK     1      19.317   1.004  29.592  1.00  0.00     0.112 A 
HETATM   18  N2  UNK     1      19.086   0.131  28.612  1.00  0.00    -0.106 NA
HETATM   19  O2  UNK     1      18.240   0.812  27.734  1.00  0.00    -0.105 OA
HETATM   20  N3  UNK     1      17.966   2.101  28.195  1.00  0.00    -0.085 NA
BRANCH  17  21
HETATM   21  C5  UNK     1      20.185   0.642  30.721  1.00  0.00     0.061 C 
HETATM   22  C12 UNK     1      20.688  -0.806  30.655  1.00  0.00     0.011 C 
ENDBRANCH  17  21
ENDBRANCH  14  16
ENDBRANCH   4  12
TORSDOF 3
ENDMDL
MODEL 6
REMARK VINA RESULT:      -8.5     22.239     24.102
REMARK  3 active torsions:
REMARK  status: ('A' for Active; 'I' for Inactive)
REMARK    1  A    between atoms: C7_14  and  N1_5 
REMARK       I    between atoms: C8_15  and  N1_5 
REMARK    2  A    between atoms: C2_9  and  C8_15 
REMARK    3  A    between atoms: C5_12  and  C6_13 
ROOT
HETATM    1  O1  UNK     1      13.779   8.866   8.783  1.00  0.00    -0.274 OA
HETATM    2  O4  UNK     1      11.653   8.452   8.054  1.00  0.00    -0.259 OA
HETATM    3  C1  UNK     1      15.150   7.028   9.593  1.00  0.00    -0.001 A 
HETATM    4  C2  UNK     1      12.895   6.586   8.821  1.00  0.00     0.108 A 
HETATM    5  C3  UNK     1      14.990   8.381   9.314  1.00  0.00     0.089 A 
HETATM    6  C4  UNK     1      14.044   6.121   9.326  1.00  0.00     0.037 A 
HETATM    7  C9  UNK     1      16.366   6.586  10.118  1.00  0.00     0.014 A 
HETATM    8  C10 UNK     1      12.704   8.021   8.516  1.00  0.00     0.304 A 
HETATM    9  C11 UNK     1      16.009   9.304   9.546  1.00  0.00     0.038 A 
HETATM   10  C13 UNK     1      17.397   7.499  10.357  1.00  0.00     0.001 A 
HETATM   11  C14 UNK     1      17.219   8.854  10.071  1.00  0.00     0.003 A 
ENDROOT
BRANCH   4  12
HETATM   12  C8  UNK     1      11.840   5.593   8.588  1.00  0.00     0.263 C 
HETATM   13  O3  UNK     1      12.104   4.551   7.991  1.00  0.00    -0.267 OA
HETATM   14  N1  UNK     1      10.617   5.998   9.105  1.00  0.00    -0.304 N 
HETATM   15  H4  UNK     1      10.567   6.897   9.576  1.00  0.00     0.171 HD
BRANCH  14  16
HETATM   16  C7  UNK     1       9.386   5.296   9.062  1.00  0.00     0.187 A 
HETATM   17  C6  UNK     1       8.326   5.552   8.197  1.00  0.00     0.112 A 
HETATM   18  N2  UNK     1       7.329   4.700   8.433  1.00  0.00    -0.106 NA
HETATM   19  O2  UNK     1       7.798   3.898   9.476  1.00  0.00    -0.105 OA
HETATM   20  N3  UNK     1       9.085   4.277   9.864  1.00  0.00    -0.085 NA
BRANCH  17  21
HETATM   21  C5  UNK     1       8.199   6.574   7.148  1.00  0.00     0.061 C 
HETATM   22  C12 UNK     1       9.210   6.395   6.008  1.00  0.00     0.011 C 
ENDBRANCH  17  21
ENDBRANCH  14  16
ENDBRANCH   4  12
TORSDOF 3
ENDMDL
MODEL 7
REMARK VINA RESULT:      -8.5      4.198      5.628
REMARK  3 active torsions:
REMARK  status: ('A' for Active; 'I' for Inactive)
REMARK    1  A    between atoms: C7_14  and  N1_5 
REMARK       I    between atoms: C8_15  and  N1_5 
REMARK    2  A    between atoms: C2_9  and  C8_15 
REMARK    3  A    between atoms: C5_12  and  C6_13 
ROOT
HETATM    1  O1  UNK     1      18.966   1.562  30.696  1.00  0.00    -0.274 OA
HETATM    2  O4  UNK     1      17.803   2.821  32.208  1.00  0.00    -0.259 OA
HETATM    3  C1  UNK     1      19.566  -0.728  31.251  1.00  0.00    -0.001 A 
HETATM    4  C2  UNK     1      18.333   0.605  32.857  1.00  0.00     0.108 A 
HETATM    5  C3  UNK     1      19.577   0.338  30.359  1.00  0.00     0.089 A 
HETATM    6  C4  UNK     1      18.912  -0.560  32.540  1.00  0.00     0.037 A 
HETATM    7  C9  UNK     1      20.181  -1.925  30.879  1.00  0.00     0.014 A 
HETATM    8  C10 UNK     1      18.332   1.753  31.922  1.00  0.00     0.304 A 
HETATM    9  C11 UNK     1      20.185   0.243  29.109  1.00  0.00     0.038 A 
HETATM   10  C13 UNK     1      20.796  -2.036  29.629  1.00  0.00     0.001 A 
HETATM   11  C14 UNK     1      20.798  -0.956  28.746  1.00  0.00     0.003 A 
ENDROOT
BRANCH   4  12
HETATM   12  C8  UNK     1      17.701   0.677  34.179  1.00  0.00     0.263 C 
HETATM   13  O3  UNK     1      16.475   0.704  34.269  1.00  0.00    -0.267 OA
HETATM   14  N1  UNK     1      18.636   0.707  35.205  1.00  0.00    -0.304 N 
HETATM   15  H4  UNK     1      19.622   0.676  34.959  1.00  0.00     0.171 HD
BRANCH  14  16
HETATM   16  C7  UNK     1      18.388   0.777  36.598  1.00  0.00     0.187 A 
HETATM   17  C6  UNK     1      18.025  -0.286  37.421  1.00  0.00     0.112 A 
HETATM   18  N2  UNK     1      17.874   0.138  38.675  1.00  0.00    -0.106 NA
HETATM   19  O2  UNK     1      18.155   1.505  38.614  1.00  0.00    -0.105 OA
HETATM   20  N3  UNK     1      18.476   1.897  37.312  1.00  0.00    -0.085 NA
BRANCH  17  21
HETATM   21  C5  UNK     1      17.805  -1.699  37.083  1.00  0.00     0.061 C 
HETATM   22  C12 UNK     1      19.110  -2.472  36.846  1.00  0.00     0.011 C 
ENDBRANCH  17  21
ENDBRANCH  14  16
ENDBRANCH   4  12
TORSDOF 3
ENDMDL
MODEL 8
REMARK VINA RESULT:      -8.4     14.354     17.502
REMARK  3 active torsions:
REMARK  status: ('A' for Active; 'I' for Inactive)
REMARK    1  A    between atoms: C7_14  and  N1_5 
REMARK       I    between atoms: C8_15  and  N1_5 
REMARK    2  A    between atoms: C2_9  and  C8_15 
REMARK    3  A    between atoms: C5_12  and  C6_13 
ROOT
HETATM    1  O1  UNK     1      19.310   1.173  15.626  1.00  0.00    -0.274 OA
HETATM    2  O4  UNK     1      19.493  -0.315  13.901  1.00  0.00    -0.259 OA
HETATM    3  C1  UNK     1      18.915   0.355  17.881  1.00  0.00    -0.001 A 
HETATM    4  C2  UNK     1      19.108  -1.227  16.054  1.00  0.00     0.108 A 
HETATM    5  C3  UNK     1      19.111   1.412  17.000  1.00  0.00     0.089 A 
HETATM    6  C4  UNK     1      18.918  -1.004  17.361  1.00  0.00     0.037 A 
HETATM    7  C9  UNK     1      18.723   0.633  19.236  1.00  0.00     0.014 A 
HETATM    8  C10 UNK     1      19.319  -0.116  15.099  1.00  0.00     0.304 A 
HETATM    9  C11 UNK     1      19.120   2.737  17.432  1.00  0.00     0.038 A 
HETATM   10  C13 UNK     1      18.728   1.956  19.686  1.00  0.00     0.001 A 
HETATM   11  C14 UNK     1      18.926   3.005  18.787  1.00  0.00     0.003 A 
ENDROOT
BRANCH   4  12
HETATM   12  C8  UNK     1      19.094  -2.630  15.627  1.00  0.00     0.263 C 
HETATM   13  O3  UNK     1      18.051  -3.278  15.694  1.00  0.00    -0.267 OA
HETATM   14  N1  UNK     1      20.339  -3.055  15.182  1.00  0.00    -0.304 N 
HETATM   15  H4  UNK     1      21.106  -2.388  15.191  1.00  0.00     0.171 HD
BRANCH  14  16
HETATM   16  C7  UNK     1      20.692  -4.340  14.701  1.00  0.00     0.187 A 
HETATM   17  C6  UNK     1      20.297  -4.898  13.488  1.00  0.00     0.112 A 
HETATM   18  N2  UNK     1      20.813  -6.119  13.358  1.00  0.00    -0.106 NA
HETATM   19  O2  UNK     1      21.548  -6.310  14.530  1.00  0.00    -0.105 OA
HETATM   20  N3  UNK     1      21.467  -5.194  15.365  1.00  0.00    -0.085 NA
BRANCH  17  21
HETATM   21  C5  UNK     1      19.443  -4.335  12.432  1.00  0.00     0.061 C 
HETATM   22  C12 UNK     1      20.134  -3.228  11.625  1.00  0.00     0.011 C 
ENDBRANCH  17  21
ENDBRANCH  14  16
ENDBRANCH   4  12
TORSDOF 3
ENDMDL
MODEL 9
REMARK VINA RESULT:      -8.3      2.799      7.251
REMARK  3 active torsions:
REMARK  status: ('A' for Active; 'I' for Inactive)
REMARK    1  A    between atoms: C7_14  and  N1_5 
REMARK       I    between atoms: C8_15  and  N1_5 
REMARK    2  A    between atoms: C2_9  and  C8_15 
REMARK    3  A    between atoms: C5_12  and  C6_13 
ROOT
HETATM    1  O1  UNK     1      17.966   3.996  33.865  1.00  0.00    -0.274 OA
HETATM    2  O4  UNK     1      18.143   1.749  33.484  1.00  0.00    -0.259 OA
HETATM    3  C1  UNK     1      18.044   5.541  31.988  1.00  0.00    -0.001 A 
HETATM    4  C2  UNK     1      18.233   3.159  31.582  1.00  0.00     0.108 A 
HETATM    5  C3  UNK     1      17.930   5.309  33.355  1.00  0.00     0.089 A 
HETATM    6  C4  UNK     1      18.200   4.405  31.093  1.00  0.00     0.037 A 
HETATM    7  C9  UNK     1      18.003   6.856  31.522  1.00  0.00     0.014 A 
HETATM    8  C10 UNK     1      18.113   2.889  33.032  1.00  0.00     0.304 A 
HETATM    9  C11 UNK     1      17.779   6.351  34.267  1.00  0.00     0.038 A 
HETATM   10  C13 UNK     1      17.852   7.913  32.424  1.00  0.00     0.001 A 
HETATM   11  C14 UNK     1      17.739   7.662  33.793  1.00  0.00     0.003 A 
ENDROOT
BRANCH   4  12
HETATM   12  C8  UNK     1      18.394   2.081  30.599  1.00  0.00     0.263 C 
HETATM   13  O3  UNK     1      17.590   1.972  29.676  1.00  0.00    -0.267 OA
HETATM   14  N1  UNK     1      19.500   1.287  30.870  1.00  0.00    -0.304 N 
HETATM   15  H4  UNK     1      20.069   1.514  31.682  1.00  0.00     0.171 HD
BRANCH  14  16
HETATM   16  C7  UNK     1      19.956   0.162  30.139  1.00  0.00     0.187 A 
HETATM   17  C6  UNK     1      20.092  -1.134  30.627  1.00  0.00     0.112 A 
HETATM   18  N2  UNK     1      20.545  -1.939  29.667  1.00  0.00    -0.106 NA
HETATM   19  O2  UNK     1      20.689  -1.105  28.556  1.00  0.00    -0.105 OA
HETATM   20  N3  UNK     1      20.319   0.207  28.858  1.00  0.00    -0.085 NA
BRANCH  17  21
HETATM   21  C5  UNK     1      19.819  -1.662  31.972  1.00  0.00     0.061 C 
HETATM   22  C12 UNK     1      20.949  -2.547  32.513  1.00  0.00     0.011 C 
ENDBRANCH  17  21
ENDBRANCH  14  16
ENDBRANCH   4  12
TORSDOF 3
ENDMDL
MODEL 10
REMARK VINA RESULT:      -8.3      3.177      7.900
REMARK  3 active torsions:
REMARK  status: ('A' for Active; 'I' for Inactive)
REMARK    1  A    between atoms: C7_14  and  N1_5 
REMARK       I    between atoms: C8_15  and  N1_5 
REMARK    2  A    between atoms: C2_9  and  C8_15 
REMARK    3  A    between atoms: C5_12  and  C6_13 
ROOT
HETATM    1  O1  UNK     1      16.063   8.569  31.381  1.00  0.00    -0.274 OA
HETATM    2  O4  UNK     1      17.267   7.077  30.137  1.00  0.00    -0.259 OA
HETATM    3  C1  UNK     1      15.997   8.337  33.801  1.00  0.00    -0.001 A 
HETATM    4  C2  UNK     1      17.275   6.753  32.484  1.00  0.00     0.108 A 
HETATM    5  C3  UNK     1      15.621   9.010  32.644  1.00  0.00     0.089 A 
HETATM    6  C4  UNK     1      16.856   7.168  33.686  1.00  0.00     0.037 A 
HETATM    7  C9  UNK     1      15.538   8.806  35.033  1.00  0.00     0.014 A 
HETATM    8  C10 UNK     1      16.887   7.454  31.240  1.00  0.00     0.304 A 
HETATM    9  C11 UNK     1      14.800  10.135  32.683  1.00  0.00     0.038 A 
HETATM   10  C13 UNK     1      14.715   9.933  35.090  1.00  0.00     0.001 A 
HETATM   11  C14 UNK     1      14.346  10.597  33.918  1.00  0.00     0.003 A 
ENDROOT
BRANCH   4  12
HETATM   12  C8  UNK     1      18.137   5.565  32.473  1.00  0.00     0.263 C 
HETATM   13  O3  UNK     1      19.346   5.687  32.658  1.00  0.00    -0.267 OA
HETATM   14  N1  UNK     1      17.419   4.400  32.238  1.00  0.00    -0.304 N 
HETATM   15  H4  UNK     1      16.414   4.471  32.105  1.00  0.00     0.171 HD
BRANCH  14  16
HETATM   16  C7  UNK     1      17.922   3.077  32.158  1.00  0.00     0.187 A 
HETATM   17  C6  UNK     1      18.461   2.472  31.026  1.00  0.00     0.112 A 
HETATM   18  N2  UNK     1      18.835   1.225  31.310  1.00  0.00    -0.106 NA
HETATM   19  O2  UNK     1      18.515   1.067  32.660  1.00  0.00    -0.105 OA
HETATM   20  N3  UNK     1      17.944   2.229  33.184  1.00  0.00    -0.085 NA
BRANCH  17  21
HETATM   21  C5  UNK     1      18.640   3.011  29.671  1.00  0.00     0.061 C 
HETATM   22  C12 UNK     1      17.950   2.168  28.590  1.00  0.00     0.011 C 
ENDBRANCH  17  21
ENDBRANCH  14  16
ENDBRANCH   4  12
TORSDOF 3
ENDMDL
