MODEL 1
REMARK VINA RESULT:      -9.7      0.000      0.000
REMARK  3 active torsions:
REMARK  status: ('A' for Active; 'I' for Inactive)
REMARK    1  A    between atoms: C5_12  and  N1_6 
REMARK       I    between atoms: C6_13  and  N1_6 
REMARK    2  A    between atoms: C14_21  and  N2_7 
REMARK    3  A    between atoms: C2_9  and  C6_13 
ROOT
HETATM    1  O2  UNK     1      17.611   3.242  32.836  1.00  0.00    -0.267 OA
HETATM    2  N1  UNK     1      18.945   4.683  31.535  1.00  0.00    -0.323 N 
HETATM    3  C6  UNK     1      18.371   3.471  31.897  1.00  0.00     0.262 C 
HETATM    4  H3  UNK     1      19.540   4.707  30.711  1.00  0.00     0.169 HD
ENDROOT
BRANCH   3   5
HETATM    5  C2  UNK     1      18.768   2.380  30.999  1.00  0.00     0.108 A 
HETATM    6  C4  UNK     1      19.178   1.249  31.586  1.00  0.00     0.037 A 
HETATM    7  C1  UNK     1      19.591   0.112  30.779  1.00  0.00    -0.001 A 
HETATM    8  C3  UNK     1      19.555   0.221  29.392  1.00  0.00     0.089 A 
HETATM    9  C7  UNK     1      20.026  -1.087  31.349  1.00  0.00     0.014 A 
HETATM   10  O1  UNK     1      19.124   1.415  28.780  1.00  0.00    -0.274 OA
HETATM   11  C9  UNK     1      19.939  -0.830  28.562  1.00  0.00     0.038 A 
HETATM   12  C8  UNK     1      18.721   2.519  29.525  1.00  0.00     0.304 A 
HETATM   13  O3  UNK     1      18.347   3.553  28.984  1.00  0.00    -0.259 OA
HETATM   14  C13 UNK     1      20.370  -2.022  29.140  1.00  0.00     0.003 A 
HETATM   15  C11 UNK     1      20.413  -2.151  30.530  1.00  0.00     0.001 A 
ENDBRANCH   3   5
BRANCH   2  16
HETATM   16  C5  UNK     1      18.784   5.938  32.169  1.00  0.00     0.037 A 
HETATM   17  C10 UNK     1      17.681   6.715  31.863  1.00  0.00     0.065 A 
HETATM   18  C14 UNK     1      17.522   7.951  32.489  1.00  0.00     0.105 A 
HETATM   19  C16 UNK     1      18.470   8.391  33.414  1.00  0.00     0.036 A 
HETATM   20  C15 UNK     1      19.576   7.596  33.710  1.00  0.00     0.005 A 
HETATM   21  C12 UNK     1      19.734   6.359  33.084  1.00  0.00     0.029 A 
BRANCH  18  22
HETATM   22  N2  UNK     1      16.395   8.761  32.188  1.00  0.00    -0.116 N 
HETATM   23  O4  UNK     1      16.032   9.630  33.016  1.00  0.00    -0.532 OA
HETATM   24  O5  UNK     1      15.794   8.586  31.100  1.00  0.00    -0.532 OA
ENDBRANCH  18  22
ENDBRANCH   2  16
TORSDOF 3
ENDMDL
MODEL 2
REMARK VINA RESULT:      -9.2      7.861      9.912
REMARK  3 active torsions:
REMARK  status: ('A' for Active; 'I' for Inactive)
REMARK    1  A    between atoms: C5_12  and  N1_6 
REMARK       I    between atoms: C6_13  and  N1_6 
REMARK    2  A    between atoms: C14_21  and  N2_7 
REMARK    3  A    between atoms: C2_9  and  C6_13 
ROOT
HETATM    1  O2  UNK     1      20.922  -3.195  37.622  1.00  0.00    -0.267 OA
HETATM    2  N1  UNK     1      18.804  -3.316  36.598  1.00  0.00    -0.323 N 
HETATM    3  C6  UNK     1      19.985  -3.819  37.128  1.00  0.00     0.262 C 
HETATM    4  H3  UNK     1      18.114  -3.975  36.245  1.00  0.00     0.169 HD
ENDROOT
BRANCH   3   5
HETATM    5  C2  UNK     1      20.044  -5.284  37.055  1.00  0.00     0.108 A 
HETATM    6  C4  UNK     1      19.969  -5.938  38.220  1.00  0.00     0.037 A 
HETATM    7  C1  UNK     1      20.020  -7.391  38.250  1.00  0.00    -0.001 A 
HETATM    8  C3  UNK     1      20.150  -8.086  37.051  1.00  0.00     0.089 A 
HETATM    9  C7  UNK     1      19.945  -8.115  39.443  1.00  0.00     0.014 A 
HETATM   10  O1  UNK     1      20.230  -7.391  35.828  1.00  0.00    -0.274 OA
HETATM   11  C9  UNK     1      20.206  -9.477  37.010  1.00  0.00     0.038 A 
HETATM   12  C8  UNK     1      20.183  -6.002  35.767  1.00  0.00     0.304 A 
HETATM   13  O3  UNK     1      20.253  -5.406  34.698  1.00  0.00    -0.259 OA
HETATM   14  C13 UNK     1      20.130 -10.190  38.205  1.00  0.00     0.003 A 
HETATM   15  C11 UNK     1      19.999  -9.511  39.418  1.00  0.00     0.001 A 
ENDBRANCH   3   5
BRANCH   2  16
HETATM   16  C5  UNK     1      18.408  -1.960  36.504  1.00  0.00     0.037 A 
HETATM   17  C10 UNK     1      18.501  -1.311  35.285  1.00  0.00     0.065 A 
HETATM   18  C14 UNK     1      18.110   0.025  35.192  1.00  0.00     0.105 A 
HETATM   19  C16 UNK     1      17.632   0.691  36.320  1.00  0.00     0.036 A 
HETATM   20  C15 UNK     1      17.545   0.022  37.541  1.00  0.00     0.005 A 
HETATM   21  C12 UNK     1      17.935  -1.314  37.633  1.00  0.00     0.029 A 
BRANCH  18  22
HETATM   22  N2  UNK     1      18.198   0.707  33.949  1.00  0.00    -0.116 N 
HETATM   23  O4  UNK     1      17.470   1.709  33.753  1.00  0.00    -0.532 OA
HETATM   24  O5  UNK     1      19.003   0.288  33.082  1.00  0.00    -0.532 OA
ENDBRANCH  18  22
ENDBRANCH   2  16
TORSDOF 3
ENDMDL
MODEL 3
REMARK VINA RESULT:      -9.1      2.503      8.225
REMARK  3 active torsions:
REMARK  status: ('A' for Active; 'I' for Inactive)
REMARK    1  A    between atoms: C5_12  and  N1_6 
REMARK       I    between atoms: C6_13  and  N1_6 
REMARK    2  A    between atoms: C14_21  and  N2_7 
REMARK    3  A    between atoms: C2_9  and  C6_13 
ROOT
HETATM    1  O2  UNK     1      19.803   5.227  30.123  1.00  0.00    -0.267 OA
HETATM    2  N1  UNK     1      18.359   3.629  31.078  1.00  0.00    -0.323 N 
HETATM    3  C6  UNK     1      18.962   4.874  30.948  1.00  0.00     0.262 C 
HETATM    4  H3  UNK     1      17.660   3.506  31.806  1.00  0.00     0.169 HD
ENDROOT
BRANCH   3   5
HETATM    5  C2  UNK     1      18.482   5.830  31.953  1.00  0.00     0.108 A 
HETATM    6  C4  UNK     1      17.166   6.073  31.957  1.00  0.00     0.037 A 
HETATM    7  C1  UNK     1      16.596   7.006  32.916  1.00  0.00    -0.001 A 
HETATM    8  C3  UNK     1      17.440   7.639  33.823  1.00  0.00     0.089 A 
HETATM    9  C7  UNK     1      15.228   7.289  32.956  1.00  0.00     0.014 A 
HETATM   10  O1  UNK     1      18.825   7.380  33.813  1.00  0.00    -0.274 OA
HETATM   11  C9  UNK     1      16.958   8.544  34.767  1.00  0.00     0.038 A 
HETATM   12  C8  UNK     1      19.399   6.491  32.909  1.00  0.00     0.304 A 
HETATM   13  O3  UNK     1      20.605   6.272  32.907  1.00  0.00    -0.259 OA
HETATM   14  C13 UNK     1      15.593   8.820  34.800  1.00  0.00     0.003 A 
HETATM   15  C11 UNK     1      14.730   8.194  33.897  1.00  0.00     0.001 A 
ENDBRANCH   3   5
BRANCH   2  16
HETATM   16  C5  UNK     1      18.578   2.477  30.285  1.00  0.00     0.037 A 
HETATM   17  C10 UNK     1      19.411   1.479  30.758  1.00  0.00     0.065 A 
HETATM   18  C14 UNK     1      19.625   0.342  29.978  1.00  0.00     0.105 A 
HETATM   19  C16 UNK     1      19.002   0.222  28.736  1.00  0.00     0.036 A 
HETATM   20  C15 UNK     1      18.166   1.238  28.274  1.00  0.00     0.005 A 
HETATM   21  C12 UNK     1      17.951   2.373  29.055  1.00  0.00     0.029 A 
BRANCH  18  22
HETATM   22  N2  UNK     1      20.477  -0.692  30.448  1.00  0.00    -0.116 N 
HETATM   23  O4  UNK     1      21.210  -0.473  31.442  1.00  0.00    -0.532 OA
HETATM   24  O5  UNK     1      20.472  -1.799  29.856  1.00  0.00    -0.532 OA
ENDBRANCH  18  22
ENDBRANCH   2  16
TORSDOF 3
ENDMDL
MODEL 4
REMARK VINA RESULT:      -9.1      1.270      2.132
REMARK  3 active torsions:
REMARK  status: ('A' for Active; 'I' for Inactive)
REMARK    1  A    between atoms: C5_12  and  N1_6 
REMARK       I    between atoms: C6_13  and  N1_6 
REMARK    2  A    between atoms: C14_21  and  N2_7 
REMARK    3  A    between atoms: C2_9  and  C6_13 
ROOT
HETATM    1  O2  UNK     1      17.176   4.153  31.049  1.00  0.00    -0.267 OA
HETATM    2  N1  UNK     1      18.726   4.504  32.787  1.00  0.00    -0.323 N 
HETATM    3  C6  UNK     1      18.046   3.767  31.827  1.00  0.00     0.262 C 
HETATM    4  H3  UNK     1      19.439   4.036  33.340  1.00  0.00     0.169 HD
ENDROOT
BRANCH   3   5
HETATM    5  C2  UNK     1      18.479   2.364  31.797  1.00  0.00     0.108 A 
HETATM    6  C4  UNK     1      19.042   1.943  30.658  1.00  0.00     0.037 A 
HETATM    7  C1  UNK     1      19.503   0.569  30.533  1.00  0.00    -0.001 A 
HETATM    8  C3  UNK     1      19.346  -0.295  31.612  1.00  0.00     0.089 A 
HETATM    9  C7  UNK     1      20.096   0.087  29.363  1.00  0.00     0.014 A 
HETATM   10  O1  UNK     1      18.752   0.154  32.808  1.00  0.00    -0.274 OA
HETATM   11  C9  UNK     1      19.765  -1.623  31.557  1.00  0.00     0.038 A 
HETATM   12  C8  UNK     1      18.303   1.463  32.958  1.00  0.00     0.304 A 
HETATM   13  O3  UNK     1      17.786   1.845  34.002  1.00  0.00    -0.259 OA
HETATM   14  C13 UNK     1      20.356  -2.095  30.387  1.00  0.00     0.003 A 
HETATM   15  C11 UNK     1      20.522  -1.243  29.293  1.00  0.00     0.001 A 
ENDBRANCH   3   5
BRANCH   2  16
HETATM   16  C5  UNK     1      18.568   5.878  33.092  1.00  0.00     0.037 A 
HETATM   17  C10 UNK     1      17.570   6.601  32.462  1.00  0.00     0.065 A 
HETATM   18  C14 UNK     1      17.414   7.954  32.763  1.00  0.00     0.105 A 
HETATM   19  C16 UNK     1      18.259   8.563  33.691  1.00  0.00     0.036 A 
HETATM   20  C15 UNK     1      19.259   7.820  34.317  1.00  0.00     0.005 A 
HETATM   21  C12 UNK     1      19.415   6.467  34.015  1.00  0.00     0.029 A 
BRANCH  18  22
HETATM   22  N2  UNK     1      16.395   8.711  32.127  1.00  0.00    -0.116 N 
HETATM   23  O4  UNK     1      16.119   8.472  30.927  1.00  0.00    -0.532 OA
HETATM   24  O5  UNK     1      15.798   9.599  32.783  1.00  0.00    -0.532 OA
ENDBRANCH  18  22
ENDBRANCH   2  16
TORSDOF 3
ENDMDL
MODEL 5
REMARK VINA RESULT:      -9.1      3.476      4.434
REMARK  3 active torsions:
REMARK  status: ('A' for Active; 'I' for Inactive)
REMARK    1  A    between atoms: C5_12  and  N1_6 
REMARK       I    between atoms: C6_13  and  N1_6 
REMARK    2  A    between atoms: C14_21  and  N2_7 
REMARK    3  A    between atoms: C2_9  and  C6_13 
ROOT
HETATM    1  O2  UNK     1      17.746   2.855  32.059  1.00  0.00    -0.267 OA
HETATM    2  N1  UNK     1      18.337   4.030  34.013  1.00  0.00    -0.323 N 
HETATM    3  C6  UNK     1      18.077   2.905  33.242  1.00  0.00     0.262 C 
HETATM    4  H3  UNK     1      18.624   3.897  34.979  1.00  0.00     0.169 HD
ENDROOT
BRANCH   3   5
HETATM    5  C2  UNK     1      18.244   1.661  34.004  1.00  0.00     0.108 A 
HETATM    6  C4  UNK     1      17.949   1.721  35.308  1.00  0.00     0.037 A 
HETATM    7  C1  UNK     1      18.083   0.540  36.146  1.00  0.00    -0.001 A 
HETATM    8  C3  UNK     1      18.524  -0.647  35.570  1.00  0.00     0.089 A 
HETATM    9  C7  UNK     1      17.785   0.558  37.510  1.00  0.00     0.014 A 
HETATM   10  O1  UNK     1      18.836  -0.704  34.197  1.00  0.00    -0.274 OA
HETATM   11  C9  UNK     1      18.676  -1.814  36.317  1.00  0.00     0.038 A 
HETATM   12  C8  UNK     1      18.716   0.409  33.370  1.00  0.00     0.304 A 
HETATM   13  O3  UNK     1      18.989   0.350  32.176  1.00  0.00    -0.259 OA
HETATM   14  C13 UNK     1      18.376  -1.787  37.677  1.00  0.00     0.003 A 
HETATM   15  C11 UNK     1      17.931  -0.605  38.272  1.00  0.00     0.001 A 
ENDBRANCH   3   5
BRANCH   2  16
HETATM   16  C5  UNK     1      18.276   5.386  33.610  1.00  0.00     0.037 A 
HETATM   17  C10 UNK     1      17.198   5.820  32.858  1.00  0.00     0.065 A 
HETATM   18  C14 UNK     1      17.138   7.157  32.462  1.00  0.00     0.105 A 
HETATM   19  C16 UNK     1      18.157   8.038  32.824  1.00  0.00     0.036 A 
HETATM   20  C15 UNK     1      19.235   7.583  33.581  1.00  0.00     0.005 A 
HETATM   21  C12 UNK     1      19.295   6.247  33.978  1.00  0.00     0.029 A 
BRANCH  18  22
HETATM   22  N2  UNK     1      16.039   7.620  31.691  1.00  0.00    -0.116 N 
HETATM   23  O4  UNK     1      14.897   7.153  31.916  1.00  0.00    -0.532 OA
HETATM   24  O5  UNK     1      16.240   8.487  30.805  1.00  0.00    -0.532 OA
ENDBRANCH  18  22
ENDBRANCH   2  16
TORSDOF 3
ENDMDL
MODEL 6
REMARK VINA RESULT:      -9.1      8.372     12.557
REMARK  3 active torsions:
REMARK  status: ('A' for Active; 'I' for Inactive)
REMARK    1  A    between atoms: C5_12  and  N1_6 
REMARK       I    between atoms: C6_13  and  N1_6 
REMARK    2  A    between atoms: C14_21  and  N2_7 
REMARK    3  A    between atoms: C2_9  and  C6_13 
ROOT
HETATM    1  O2  UNK     1      21.289  -4.523  37.273  1.00  0.00    -0.267 OA
HETATM    2  N1  UNK     1      19.444  -5.463  36.149  1.00  0.00    -0.323 N 
HETATM    3  C6  UNK     1      20.266  -4.436  36.597  1.00  0.00     0.262 C 
HETATM    4  H3  UNK     1      18.640  -5.221  35.575  1.00  0.00     0.169 HD
ENDROOT
BRANCH   3   5
HETATM    5  C2  UNK     1      19.788  -3.117  36.166  1.00  0.00     0.108 A 
HETATM    6  C4  UNK     1      19.077  -2.423  37.062  1.00  0.00     0.037 A 
HETATM    7  C1  UNK     1      18.560  -1.106  36.728  1.00  0.00    -0.001 A 
HETATM    8  C3  UNK     1      18.816  -0.583  35.464  1.00  0.00     0.089 A 
HETATM    9  C7  UNK     1      17.813  -0.347  37.633  1.00  0.00     0.014 A 
HETATM   10  O1  UNK     1      19.565  -1.318  34.524  1.00  0.00    -0.274 OA
HETATM   11  C9  UNK     1      18.349   0.673  35.081  1.00  0.00     0.038 A 
HETATM   12  C8  UNK     1      20.073  -2.580  34.816  1.00  0.00     0.304 A 
HETATM   13  O3  UNK     1      20.724  -3.213  33.991  1.00  0.00    -0.259 OA
HETATM   14  C13 UNK     1      17.605   1.422  35.989  1.00  0.00     0.003 A 
HETATM   15  C11 UNK     1      17.339   0.914  37.263  1.00  0.00     0.001 A 
ENDBRANCH   3   5
BRANCH   2  16
HETATM   16  C5  UNK     1      19.599  -6.852  36.372  1.00  0.00     0.037 A 
HETATM   17  C10 UNK     1      20.627  -7.529  35.739  1.00  0.00     0.065 A 
HETATM   18  C14 UNK     1      20.781  -8.897  35.960  1.00  0.00     0.105 A 
HETATM   19  C16 UNK     1      19.903  -9.569  36.812  1.00  0.00     0.036 A 
HETATM   20  C15 UNK     1      18.873  -8.871  37.441  1.00  0.00     0.005 A 
HETATM   21  C12 UNK     1      18.720  -7.502  37.220  1.00  0.00     0.029 A 
BRANCH  18  22
HETATM   22  N2  UNK     1      21.830  -9.608  35.320  1.00  0.00    -0.116 N 
HETATM   23  O4  UNK     1      22.882  -9.848  35.960  1.00  0.00    -0.532 OA
HETATM   24  O5  UNK     1      21.677  -9.977  34.130  1.00  0.00    -0.532 OA
ENDBRANCH  18  22
ENDBRANCH   2  16
TORSDOF 3
ENDMDL
MODEL 7
REMARK VINA RESULT:      -9.0     13.570     16.277
REMARK  3 active torsions:
REMARK  status: ('A' for Active; 'I' for Inactive)
REMARK    1  A    between atoms: C5_12  and  N1_6 
REMARK       I    between atoms: C6_13  and  N1_6 
REMARK    2  A    between atoms: C14_21  and  N2_7 
REMARK    3  A    between atoms: C2_9  and  C6_13 
ROOT
HETATM    1  O2  UNK     1      17.530  -1.873  16.753  1.00  0.00    -0.267 OA
HETATM    2  N1  UNK     1      19.283  -0.477  16.026  1.00  0.00    -0.323 N 
HETATM    3  C6  UNK     1      18.496  -1.621  16.035  1.00  0.00     0.262 C 
HETATM    4  H3  UNK     1      20.038  -0.415  15.348  1.00  0.00     0.169 HD
ENDROOT
BRANCH   3   5
HETATM    5  C2  UNK     1      18.933  -2.601  15.033  1.00  0.00     0.108 A 
HETATM    6  C4  UNK     1      19.444  -3.744  15.506  1.00  0.00     0.037 A 
HETATM    7  C1  UNK     1      19.905  -4.776  14.592  1.00  0.00    -0.001 A 
HETATM    8  C3  UNK     1      19.807  -4.554  13.221  1.00  0.00     0.089 A 
HETATM    9  C7  UNK     1      20.444  -5.984  15.042  1.00  0.00     0.014 A 
HETATM   10  O1  UNK     1      19.270  -3.348  12.728  1.00  0.00    -0.274 OA
HETATM   11  C9  UNK     1      20.231  -5.501  12.292  1.00  0.00     0.038 A 
HETATM   12  C8  UNK     1      18.820  -2.343  13.579  1.00  0.00     0.304 A 
HETATM   13  O3  UNK     1      18.354  -1.297  13.142  1.00  0.00    -0.259 OA
HETATM   14  C13 UNK     1      20.768  -6.702  12.750  1.00  0.00     0.003 A 
HETATM   15  C11 UNK     1      20.873  -6.943  14.121  1.00  0.00     0.001 A 
ENDBRANCH   3   5
BRANCH   2  16
HETATM   16  C5  UNK     1      19.151   0.668  16.849  1.00  0.00     0.037 A 
HETATM   17  C10 UNK     1      18.798   0.508  18.178  1.00  0.00     0.065 A 
HETATM   18  C14 UNK     1      18.670   1.635  18.990  1.00  0.00     0.105 A 
HETATM   19  C16 UNK     1      18.897   2.906  18.459  1.00  0.00     0.036 A 
HETATM   20  C15 UNK     1      19.252   3.048  17.118  1.00  0.00     0.005 A 
HETATM   21  C12 UNK     1      19.381   1.920  16.307  1.00  0.00     0.029 A 
BRANCH  18  22
HETATM   22  N2  UNK     1      18.309   1.491  20.355  1.00  0.00    -0.116 N 
HETATM   23  O4  UNK     1      18.829   2.252  21.206  1.00  0.00    -0.532 OA
HETATM   24  O5  UNK     1      17.478   0.606  20.674  1.00  0.00    -0.532 OA
ENDBRANCH  18  22
ENDBRANCH   2  16
TORSDOF 3
ENDMDL
MODEL 8
REMARK VINA RESULT:      -9.0      2.102      8.078
REMARK  3 active torsions:
REMARK  status: ('A' for Active; 'I' for Inactive)
REMARK    1  A    between atoms: C5_12  and  N1_6 
REMARK       I    between atoms: C6_13  and  N1_6 
REMARK    2  A    between atoms: C14_21  and  N2_7 
REMARK    3  A    between atoms: C2_9  and  C6_13 
ROOT
HETATM    1  O2  UNK     1      17.902   3.244  33.057  1.00  0.00    -0.267 OA
HETATM    2  N1  UNK     1      18.427   3.959  30.875  1.00  0.00    -0.323 N 
HETATM    3  C6  UNK     1      18.118   4.118  32.219  1.00  0.00     0.262 C 
HETATM    4  H3  UNK     1      18.600   4.791  30.318  1.00  0.00     0.169 HD
ENDROOT
BRANCH   3   5
HETATM    5  C2  UNK     1      18.063   5.531  32.611  1.00  0.00     0.108 A 
HETATM    6  C4  UNK     1      19.188   6.049  33.117  1.00  0.00     0.037 A 
HETATM    7  C1  UNK     1      19.233   7.442  33.535  1.00  0.00    -0.001 A 
HETATM    8  C3  UNK     1      18.088   8.221  33.401  1.00  0.00     0.089 A 
HETATM    9  C7  UNK     1      20.386   8.023  34.067  1.00  0.00     0.014 A 
HETATM   10  O1  UNK     1      16.905   7.670  32.868  1.00  0.00    -0.274 OA
HETATM   11  C9  UNK     1      18.063   9.561  33.782  1.00  0.00     0.038 A 
HETATM   12  C8  UNK     1      16.833   6.342  32.459  1.00  0.00     0.304 A 
HETATM   13  O3  UNK     1      15.800   5.871  31.997  1.00  0.00    -0.259 OA
HETATM   14  C13 UNK     1      19.217  10.133  34.312  1.00  0.00     0.003 A 
HETATM   15  C11 UNK     1      20.376   9.366  34.454  1.00  0.00     0.001 A 
ENDBRANCH   3   5
BRANCH   2  16
HETATM   16  C5  UNK     1      18.564   2.745  30.158  1.00  0.00     0.037 A 
HETATM   17  C10 UNK     1      19.361   1.740  30.677  1.00  0.00     0.065 A 
HETATM   18  C14 UNK     1      19.495   0.543  29.971  1.00  0.00     0.105 A 
HETATM   19  C16 UNK     1      18.828   0.371  28.758  1.00  0.00     0.036 A 
HETATM   20  C15 UNK     1      18.029   1.396  28.250  1.00  0.00     0.005 A 
HETATM   21  C12 UNK     1      17.896   2.591  28.956  1.00  0.00     0.029 A 
BRANCH  18  22
HETATM   22  N2  UNK     1      20.308  -0.500  30.488  1.00  0.00    -0.116 N 
HETATM   23  O4  UNK     1      21.189  -0.221  31.336  1.00  0.00    -0.532 OA
HETATM   24  O5  UNK     1      20.122  -1.673  30.082  1.00  0.00    -0.532 OA
ENDBRANCH  18  22
ENDBRANCH   2  16
TORSDOF 3
ENDMDL
MODEL 9
REMARK VINA RESULT:      -9.0      1.770      2.060
REMARK  3 active torsions:
REMARK  status: ('A' for Active; 'I' for Inactive)
REMARK    1  A    between atoms: C5_12  and  N1_6 
REMARK       I    between atoms: C6_13  and  N1_6 
REMARK    2  A    between atoms: C14_21  and  N2_7 
REMARK    3  A    between atoms: C2_9  and  C6_13 
ROOT
HETATM    1  O2  UNK     1      17.625   3.270  32.882  1.00  0.00    -0.267 OA
HETATM    2  N1  UNK     1      18.555   4.779  31.331  1.00  0.00    -0.323 N 
HETATM    3  C6  UNK     1      18.224   3.530  31.841  1.00  0.00     0.262 C 
HETATM    4  H3  UNK     1      19.037   4.823  30.437  1.00  0.00     0.169 HD
ENDROOT
BRANCH   3   5
HETATM    5  C2  UNK     1      18.676   2.439  30.969  1.00  0.00     0.108 A 
HETATM    6  C4  UNK     1      19.099   1.327  31.583  1.00  0.00     0.037 A 
HETATM    7  C1  UNK     1      19.567   0.192  30.804  1.00  0.00    -0.001 A 
HETATM    8  C3  UNK     1      19.568   0.282  29.415  1.00  0.00     0.089 A 
HETATM    9  C7  UNK     1      20.017  -0.988  31.402  1.00  0.00     0.014 A 
HETATM   10  O1  UNK     1      19.123   1.456  28.774  1.00  0.00    -0.274 OA
HETATM   11  C9  UNK     1      20.004  -0.768  28.611  1.00  0.00     0.038 A 
HETATM   12  C8  UNK     1      18.669   2.558  29.493  1.00  0.00     0.304 A 
HETATM   13  O3  UNK     1      18.283   3.575  28.927  1.00  0.00    -0.259 OA
HETATM   14  C13 UNK     1      20.451  -1.941  29.217  1.00  0.00     0.003 A 
HETATM   15  C11 UNK     1      20.457  -2.050  30.609  1.00  0.00     0.001 A 
ENDBRANCH   3   5
BRANCH   2  16
HETATM   16  C5  UNK     1      18.278   6.045  31.901  1.00  0.00     0.037 A 
HETATM   17  C10 UNK     1      19.054   6.497  32.954  1.00  0.00     0.065 A 
HETATM   18  C14 UNK     1      18.781   7.745  33.515  1.00  0.00     0.105 A 
HETATM   19  C16 UNK     1      17.737   8.522  33.012  1.00  0.00     0.036 A 
HETATM   20  C15 UNK     1      16.965   8.050  31.951  1.00  0.00     0.005 A 
HETATM   21  C12 UNK     1      17.238   6.802  31.391  1.00  0.00     0.029 A 
BRANCH  18  22
HETATM   22  N2  UNK     1      19.567   8.226  34.595  1.00  0.00    -0.116 N 
HETATM   23  O4  UNK     1      19.478   7.660  35.711  1.00  0.00    -0.532 OA
HETATM   24  O5  UNK     1      20.329   9.205  34.404  1.00  0.00    -0.532 OA
ENDBRANCH  18  22
ENDBRANCH   2  16
TORSDOF 3
ENDMDL
MODEL 10
REMARK VINA RESULT:      -8.7      8.749     12.377
REMARK  3 active torsions:
REMARK  status: ('A' for Active; 'I' for Inactive)
REMARK    1  A    between atoms: C5_12  and  N1_6 
REMARK       I    between atoms: C6_13  and  N1_6 
REMARK    2  A    between atoms: C14_21  and  N2_7 
REMARK    3  A    between atoms: C2_9  and  C6_13 
ROOT
HETATM    1  O2  UNK     1      20.161  -5.027  35.452  1.00  0.00    -0.267 OA
HETATM    2  N1  UNK     1      20.358  -4.440  37.725  1.00  0.00    -0.323 N 
HETATM    3  C6  UNK     1      20.081  -4.226  36.381  1.00  0.00     0.262 C 
HETATM    4  H3  UNK     1      20.219  -3.670  38.375  1.00  0.00     0.169 HD
ENDROOT
BRANCH   3   5
HETATM    5  C2  UNK     1      19.642  -2.849  36.119  1.00  0.00     0.108 A 
HETATM    6  C4  UNK     1      18.943  -2.255  37.092  1.00  0.00     0.037 A 
HETATM    7  C1  UNK     1      18.464  -0.892  36.925  1.00  0.00    -0.001 A 
HETATM    8  C3  UNK     1      18.744  -0.221  35.739  1.00  0.00     0.089 A 
HETATM    9  C7  UNK     1      17.731  -0.234  37.916  1.00  0.00     0.014 A 
HETATM   10  O1  UNK     1      19.480  -0.852  34.716  1.00  0.00    -0.274 OA
HETATM   11  C9  UNK     1      18.314   1.085  35.515  1.00  0.00     0.038 A 
HETATM   12  C8  UNK     1      19.952  -2.155  34.848  1.00  0.00     0.304 A 
HETATM   13  O3  UNK     1      20.591  -2.696  33.953  1.00  0.00    -0.259 OA
HETATM   14  C13 UNK     1      17.584   1.734  36.508  1.00  0.00     0.003 A 
HETATM   15  C11 UNK     1      17.294   1.077  37.706  1.00  0.00     0.001 A 
ENDBRANCH   3   5
BRANCH   2  16
HETATM   16  C5  UNK     1      20.800  -5.639  38.335  1.00  0.00     0.037 A 
HETATM   17  C10 UNK     1      22.156  -5.909  38.391  1.00  0.00     0.065 A 
HETATM   18  C14 UNK     1      22.591  -7.090  38.993  1.00  0.00     0.105 A 
HETATM   19  C16 UNK     1      21.663  -7.982  39.531  1.00  0.00     0.036 A 
HETATM   20  C15 UNK     1      20.300  -7.693  39.465  1.00  0.00     0.005 A 
HETATM   21  C12 UNK     1      19.865  -6.512  38.863  1.00  0.00     0.029 A 
BRANCH  18  22
HETATM   22  N2  UNK     1      23.979  -7.384  39.061  1.00  0.00    -0.116 N 
HETATM   23  O4  UNK     1      24.805  -6.499  38.730  1.00  0.00    -0.532 OA
HETATM   24  O5  UNK     1      24.341  -8.521  39.450  1.00  0.00    -0.532 OA
ENDBRANCH  18  22
ENDBRANCH   2  16
TORSDOF 3
ENDMDL
