MODEL 1
REMARK VINA RESULT:      -8.1      0.000      0.000
REMARK  5 active torsions:
REMARK  status: ('A' for Active; 'I' for Inactive)
REMARK    1  A    between atoms: C7_13  and  O2_2 
REMARK    2  A    between atoms: C5_11  and  O3_3 
REMARK    3  A    between atoms: C11_17  and  O4_4 
REMARK    4  A    between atoms: C14_20  and  O5_5 
REMARK    5  A    between atoms: C1_7  and  C3_9 
ROOT
HETATM    1  O1  UNK     1      16.809   6.034  32.445  1.00  0.00    -0.306 OA
HETATM    2  O6  UNK     1      19.751   8.313  34.106  1.00  0.00    -0.284 OA
HETATM    3  C1  UNK     1      18.150   5.728  32.266  1.00  0.00     0.126 A 
HETATM    4  C2  UNK     1      17.441   7.941  33.809  1.00  0.00     0.053 A 
HETATM    5  C4  UNK     1      16.485   7.123  33.212  1.00  0.00     0.090 A 
HETATM    6  C5  UNK     1      19.170   6.441  32.779  1.00  0.00     0.152 A 
HETATM    7  C6  UNK     1      18.865   7.628  33.611  1.00  0.00     0.220 A 
HETATM    8  C8  UNK     1      17.051   9.038  34.579  1.00  0.00     0.055 A 
HETATM    9  C10 UNK     1      15.128   7.400  33.381  1.00  0.00     0.041 A 
HETATM   10  C11 UNK     1      15.692   9.313  34.747  1.00  0.00     0.069 A 
HETATM   11  C13 UNK     1      14.732   8.495  34.150  1.00  0.00     0.039 A 
ENDROOT
BRANCH   3  12
HETATM   12  C3  UNK     1      18.359   4.537  31.424  1.00  0.00     0.034 A 
HETATM   13  C7  UNK     1      18.247   3.250  31.951  1.00  0.00     0.084 A 
HETATM   14  C12 UNK     1      18.449   2.137  31.133  1.00  0.00     0.074 A 
HETATM   15  C14 UNK     1      18.765   2.312  29.786  1.00  0.00     0.070 A 
HETATM   16  C15 UNK     1      18.879   3.598  29.257  1.00  0.00     0.038 A 
HETATM   17  C9  UNK     1      18.675   4.709  30.074  1.00  0.00     0.020 A 
BRANCH  13  18
HETATM   18  O2  UNK     1      17.938   3.051  33.265  1.00  0.00    -0.355 OA
HETATM   19  C16 UNK     1      18.110   1.732  33.777  1.00  0.00     0.210 C 
ENDBRANCH  13  18
BRANCH  15  20
HETATM   20  O5  UNK     1      18.964   1.228  28.988  1.00  0.00    -0.356 OA
HETATM   21  C18 UNK     1      19.997   0.321  29.370  1.00  0.00     0.210 C 
ENDBRANCH  15  20
ENDBRANCH   3  12
BRANCH   6  22
HETATM   22  O3  UNK     1      20.493   6.128  32.554  1.00  0.00    -0.355 OA
HETATM   23  H7  UNK     1      20.559   5.451  31.862  1.00  0.00     0.218 HD
ENDBRANCH   6  22
BRANCH  10  24
HETATM   24  O4  UNK     1      15.302  10.382  35.494  1.00  0.00    -0.356 OA
HETATM   25  C17 UNK     1      14.106  11.050  35.095  1.00  0.00     0.210 C 
ENDBRANCH  10  24
TORSDOF 5
ENDMDL
MODEL 2
REMARK VINA RESULT:      -7.8      7.188     11.045
REMARK  5 active torsions:
REMARK  status: ('A' for Active; 'I' for Inactive)
REMARK    1  A    between atoms: C7_13  and  O2_2 
REMARK    2  A    between atoms: C5_11  and  O3_3 
REMARK    3  A    between atoms: C11_17  and  O4_4 
REMARK    4  A    between atoms: C14_20  and  O5_5 
REMARK    5  A    between atoms: C1_7  and  C3_9 
ROOT
HETATM    1  O1  UNK     1      20.328  -3.439  34.863  1.00  0.00    -0.306 OA
HETATM    2  O6  UNK     1      17.898  -0.437  36.162  1.00  0.00    -0.284 OA
HETATM    3  C1  UNK     1      19.863  -3.399  36.168  1.00  0.00     0.126 A 
HETATM    4  C2  UNK     1      19.111  -1.395  34.381  1.00  0.00     0.053 A 
HETATM    5  C4  UNK     1      19.941  -2.447  34.000  1.00  0.00     0.090 A 
HETATM    6  C5  UNK     1      19.066  -2.435  36.665  1.00  0.00     0.152 A 
HETATM    7  C6  UNK     1      18.625  -1.340  35.768  1.00  0.00     0.220 A 
HETATM    8  C8  UNK     1      18.750  -0.410  33.458  1.00  0.00     0.055 A 
HETATM    9  C10 UNK     1      20.417  -2.520  32.691  1.00  0.00     0.041 A 
HETATM   10  C11 UNK     1      19.227  -0.486  32.148  1.00  0.00     0.069 A 
HETATM   11  C13 UNK     1      20.059  -1.539  31.765  1.00  0.00     0.039 A 
ENDROOT
BRANCH   3  12
HETATM   12  C3  UNK     1      20.354  -4.521  36.987  1.00  0.00     0.034 A 
HETATM   13  C7  UNK     1      19.619  -5.702  37.109  1.00  0.00     0.084 A 
HETATM   14  C12 UNK     1      20.104  -6.752  37.890  1.00  0.00     0.074 A 
HETATM   15  C14 UNK     1      21.326  -6.621  38.551  1.00  0.00     0.070 A 
HETATM   16  C15 UNK     1      22.061  -5.442  38.431  1.00  0.00     0.038 A 
HETATM   17  C9  UNK     1      21.576  -4.393  37.650  1.00  0.00     0.020 A 
BRANCH  13  18
HETATM   18  O2  UNK     1      18.423  -5.856  36.473  1.00  0.00    -0.355 OA
HETATM   19  C16 UNK     1      18.225  -7.069  35.751  1.00  0.00     0.210 C 
ENDBRANCH  13  18
BRANCH  15  20
HETATM   20  O5  UNK     1      21.799  -7.644  39.314  1.00  0.00    -0.356 OA
HETATM   21  C18 UNK     1      21.158  -8.911  39.171  1.00  0.00     0.210 C 
ENDBRANCH  15  20
ENDBRANCH   3  12
BRANCH   6  22
HETATM   22  O3  UNK     1      18.649  -2.406  37.978  1.00  0.00    -0.355 OA
HETATM   23  H7  UNK     1      19.208  -1.800  38.488  1.00  0.00     0.218 HD
ENDBRANCH   6  22
BRANCH  10  24
HETATM   24  O4  UNK     1      18.883   0.470  31.242  1.00  0.00    -0.356 OA
HETATM   25  C17 UNK     1      19.605   0.488  30.012  1.00  0.00     0.210 C 
ENDBRANCH  10  24
TORSDOF 5
ENDMDL
MODEL 3
REMARK VINA RESULT:      -7.8      2.113      7.351
REMARK  5 active torsions:
REMARK  status: ('A' for Active; 'I' for Inactive)
REMARK    1  A    between atoms: C7_13  and  O2_2 
REMARK    2  A    between atoms: C5_11  and  O3_3 
REMARK    3  A    between atoms: C11_17  and  O4_4 
REMARK    4  A    between atoms: C14_20  and  O5_5 
REMARK    5  A    between atoms: C1_7  and  C3_9 
ROOT
HETATM    1  O1  UNK     1      18.311   4.033  34.587  1.00  0.00    -0.306 OA
HETATM    2  O6  UNK     1      18.300   1.783  31.190  1.00  0.00    -0.284 OA
HETATM    3  C1  UNK     1      18.269   4.619  33.331  1.00  0.00     0.126 A 
HETATM    4  C2  UNK     1      18.332   1.840  33.547  1.00  0.00     0.053 A 
HETATM    5  C4  UNK     1      18.336   2.665  34.669  1.00  0.00     0.090 A 
HETATM    6  C5  UNK     1      18.270   3.938  32.171  1.00  0.00     0.152 A 
HETATM    7  C6  UNK     1      18.300   2.456  32.212  1.00  0.00     0.220 A 
HETATM    8  C8  UNK     1      18.359   0.451  33.692  1.00  0.00     0.055 A 
HETATM    9  C10 UNK     1      18.369   2.105  35.946  1.00  0.00     0.041 A 
HETATM   10  C11 UNK     1      18.391  -0.107  34.971  1.00  0.00     0.069 A 
HETATM   11  C13 UNK     1      18.396   0.718  36.097  1.00  0.00     0.039 A 
ENDROOT
BRANCH   3  12
HETATM   12  C3  UNK     1      18.246   6.092  33.385  1.00  0.00     0.034 A 
HETATM   13  C7  UNK     1      17.155   6.815  32.901  1.00  0.00     0.084 A 
HETATM   14  C12 UNK     1      17.156   8.210  32.963  1.00  0.00     0.074 A 
HETATM   15  C14 UNK     1      18.249   8.882  33.509  1.00  0.00     0.070 A 
HETATM   16  C15 UNK     1      19.341   8.160  33.993  1.00  0.00     0.038 A 
HETATM   17  C9  UNK     1      19.339   6.767  33.931  1.00  0.00     0.020 A 
BRANCH  13  18
HETATM   18  O2  UNK     1      16.073   6.183  32.363  1.00  0.00    -0.355 OA
HETATM   19  C16 UNK     1      14.934   6.988  32.068  1.00  0.00     0.210 C 
ENDBRANCH  13  18
BRANCH  15  20
HETATM   20  O5  UNK     1      18.251  10.241  33.569  1.00  0.00    -0.356 OA
HETATM   21  C18 UNK     1      17.107  10.868  34.149  1.00  0.00     0.210 C 
ENDBRANCH  15  20
ENDBRANCH   3  12
BRANCH   6  22
HETATM   22  O3  UNK     1      18.262   4.552  30.937  1.00  0.00    -0.355 OA
HETATM   23  H7  UNK     1      17.972   3.923  30.258  1.00  0.00     0.218 HD
ENDBRANCH   6  22
BRANCH  10  24
HETATM   24  O4  UNK     1      18.421  -1.460  35.123  1.00  0.00    -0.356 OA
HETATM   25  C17 UNK     1      18.674  -1.960  36.435  1.00  0.00     0.210 C 
ENDBRANCH  10  24
TORSDOF 5
ENDMDL
MODEL 4
REMARK VINA RESULT:      -7.5      1.550      2.345
REMARK  5 active torsions:
REMARK  status: ('A' for Active; 'I' for Inactive)
REMARK    1  A    between atoms: C7_13  and  O2_2 
REMARK    2  A    between atoms: C5_11  and  O3_3 
REMARK    3  A    between atoms: C11_17  and  O4_4 
REMARK    4  A    between atoms: C14_20  and  O5_5 
REMARK    5  A    between atoms: C1_7  and  C3_9 
ROOT
HETATM    1  O1  UNK     1      17.148   6.958  32.523  1.00  0.00    -0.306 OA
HETATM    2  O6  UNK     1      20.244   8.856  34.373  1.00  0.00    -0.284 OA
HETATM    3  C1  UNK     1      18.386   6.350  32.669  1.00  0.00     0.126 A 
HETATM    4  C2  UNK     1      17.992   8.921  33.675  1.00  0.00     0.053 A 
HETATM    5  C4  UNK     1      16.976   8.219  33.030  1.00  0.00     0.090 A 
HETATM    6  C5  UNK     1      19.451   6.921  33.261  1.00  0.00     0.152 A 
HETATM    7  C6  UNK     1      19.311   8.287  33.820  1.00  0.00     0.220 A 
HETATM    8  C8  UNK     1      17.758  10.206  34.170  1.00  0.00     0.055 A 
HETATM    9  C10 UNK     1      15.717   8.801  32.876  1.00  0.00     0.041 A 
HETATM   10  C11 UNK     1      16.498  10.785  34.016  1.00  0.00     0.069 A 
HETATM   11  C13 UNK     1      15.478  10.083  33.370  1.00  0.00     0.039 A 
ENDROOT
BRANCH   3  12
HETATM   12  C3  UNK     1      18.436   5.000  32.081  1.00  0.00     0.034 A 
HETATM   13  C7  UNK     1      18.824   4.804  30.754  1.00  0.00     0.084 A 
HETATM   14  C12 UNK     1      18.864   3.516  30.219  1.00  0.00     0.074 A 
HETATM   15  C14 UNK     1      18.516   2.421  31.011  1.00  0.00     0.070 A 
HETATM   16  C15 UNK     1      18.127   2.615  32.336  1.00  0.00     0.038 A 
HETATM   17  C9  UNK     1      18.087   3.903  32.871  1.00  0.00     0.020 A 
BRANCH  13  18
HETATM   18  O2  UNK     1      19.171   5.856  29.959  1.00  0.00    -0.355 OA
HETATM   19  C16 UNK     1      20.564   6.094  29.771  1.00  0.00     0.210 C 
ENDBRANCH  13  18
BRANCH  15  20
HETATM   20  O5  UNK     1      18.554   1.165  30.490  1.00  0.00    -0.356 OA
HETATM   21  C18 UNK     1      18.699   1.053  29.074  1.00  0.00     0.210 C 
ENDBRANCH  15  20
ENDBRANCH   3  12
BRANCH   6  22
HETATM   22  O3  UNK     1      20.678   6.302  33.359  1.00  0.00    -0.355 OA
HETATM   23  H7  UNK     1      20.595   5.485  33.875  1.00  0.00     0.218 HD
ENDBRANCH   6  22
BRANCH  10  24
HETATM   24  O4  UNK     1      16.261  12.038  34.494  1.00  0.00    -0.356 OA
HETATM   25  C17 UNK     1      17.374  12.746  35.035  1.00  0.00     0.210 C 
ENDBRANCH  10  24
TORSDOF 5
ENDMDL
MODEL 5
REMARK VINA RESULT:      -7.5     22.842     24.984
REMARK  5 active torsions:
REMARK  status: ('A' for Active; 'I' for Inactive)
REMARK    1  A    between atoms: C7_13  and  O2_2 
REMARK    2  A    between atoms: C5_11  and  O3_3 
REMARK    3  A    between atoms: C11_17  and  O4_4 
REMARK    4  A    between atoms: C14_20  and  O5_5 
REMARK    5  A    between atoms: C1_7  and  C3_9 
ROOT
HETATM    1  O1  UNK     1      13.523   8.046   7.910  1.00  0.00    -0.306 OA
HETATM    2  O6  UNK     1      10.468   9.105  10.390  1.00  0.00    -0.284 OA
HETATM    3  C1  UNK     1      13.700   8.984   8.916  1.00  0.00     0.126 A 
HETATM    4  C2  UNK     1      11.206   7.778   8.586  1.00  0.00     0.053 A 
HETATM    5  C4  UNK     1      12.290   7.462   7.770  1.00  0.00     0.090 A 
HETATM    6  C5  UNK     1      12.734   9.385   9.763  1.00  0.00     0.152 A 
HETATM    7  C6  UNK     1      11.385   8.783   9.646  1.00  0.00     0.220 A 
HETATM    8  C8  UNK     1       9.973   7.152   8.396  1.00  0.00     0.055 A 
HETATM    9  C10 UNK     1      12.146   6.515   6.756  1.00  0.00     0.041 A 
HETATM   10  C11 UNK     1       9.831   6.204   7.380  1.00  0.00     0.069 A 
HETATM   11  C13 UNK     1      10.916   5.886   6.562  1.00  0.00     0.039 A 
ENDROOT
BRANCH   3  12
HETATM   12  C3  UNK     1      15.067   9.532   8.956  1.00  0.00     0.034 A 
HETATM   13  C7  UNK     1      16.064   8.930   9.725  1.00  0.00     0.084 A 
HETATM   14  C12 UNK     1      17.352   9.467   9.748  1.00  0.00     0.074 A 
HETATM   15  C14 UNK     1      17.644  10.608   8.999  1.00  0.00     0.070 A 
HETATM   16  C15 UNK     1      16.649  11.211   8.229  1.00  0.00     0.038 A 
HETATM   17  C9  UNK     1      15.362  10.674   8.207  1.00  0.00     0.020 A 
BRANCH  13  18
HETATM   18  O2  UNK     1      15.805   7.815  10.466  1.00  0.00    -0.355 OA
HETATM   19  C16 UNK     1      16.357   6.586   9.998  1.00  0.00     0.210 C 
ENDBRANCH  13  18
BRANCH  15  20
HETATM   20  O5  UNK     1      18.899  11.132   9.020  1.00  0.00    -0.356 OA
HETATM   21  C18 UNK     1      19.376  11.725   7.813  1.00  0.00     0.210 C 
ENDBRANCH  15  20
ENDBRANCH   3  12
BRANCH   6  22
HETATM   22  O3  UNK     1      12.934  10.345  10.731  1.00  0.00    -0.355 OA
HETATM   23  H7  UNK     1      12.844   9.949  11.612  1.00  0.00     0.218 HD
ENDBRANCH   6  22
BRANCH  10  24
HETATM   24  O4  UNK     1       8.632   5.590   7.185  1.00  0.00    -0.356 OA
HETATM   25  C17 UNK     1       7.816   5.380   8.336  1.00  0.00     0.210 C 
ENDBRANCH  10  24
TORSDOF 5
ENDMDL
MODEL 6
REMARK VINA RESULT:      -7.5      1.851      7.437
REMARK  5 active torsions:
REMARK  status: ('A' for Active; 'I' for Inactive)
REMARK    1  A    between atoms: C7_13  and  O2_2 
REMARK    2  A    between atoms: C5_11  and  O3_3 
REMARK    3  A    between atoms: C11_17  and  O4_4 
REMARK    4  A    between atoms: C14_20  and  O5_5 
REMARK    5  A    between atoms: C1_7  and  C3_9 
ROOT
HETATM    1  O1  UNK     1      18.205   4.071  33.519  1.00  0.00    -0.306 OA
HETATM    2  O6  UNK     1      18.964   2.813  29.718  1.00  0.00    -0.284 OA
HETATM    3  C1  UNK     1      18.343   4.971  32.474  1.00  0.00     0.126 A 
HETATM    4  C2  UNK     1      18.572   2.237  31.971  1.00  0.00     0.053 A 
HETATM    5  C4  UNK     1      18.316   2.732  33.248  1.00  0.00     0.090 A 
HETATM    6  C5  UNK     1      18.601   4.625  31.199  1.00  0.00     0.152 A 
HETATM    7  C6  UNK     1      18.733   3.188  30.861  1.00  0.00     0.220 A 
HETATM    8  C8  UNK     1      18.676   0.861  31.755  1.00  0.00     0.055 A 
HETATM    9  C10 UNK     1      18.163   1.850  34.319  1.00  0.00     0.041 A 
HETATM   10  C11 UNK     1      18.521  -0.018  32.828  1.00  0.00     0.069 A 
HETATM   11  C13 UNK     1      18.265   0.475  34.108  1.00  0.00     0.039 A 
ENDROOT
BRANCH   3  12
HETATM   12  C3  UNK     1      18.202   6.374  32.901  1.00  0.00     0.034 A 
HETATM   13  C7  UNK     1      16.984   7.045  32.785  1.00  0.00     0.084 A 
HETATM   14  C12 UNK     1      16.875   8.374  33.197  1.00  0.00     0.074 A 
HETATM   15  C14 UNK     1      17.985   9.033  33.726  1.00  0.00     0.070 A 
HETATM   16  C15 UNK     1      19.203   8.363  33.843  1.00  0.00     0.038 A 
HETATM   17  C9  UNK     1      19.312   7.035  33.431  1.00  0.00     0.020 A 
BRANCH  13  18
HETATM   18  O2  UNK     1      15.884   6.425  32.272  1.00  0.00    -0.355 OA
HETATM   19  C16 UNK     1      14.759   7.248  31.970  1.00  0.00     0.210 C 
ENDBRANCH  13  18
BRANCH  15  20
HETATM   20  O5  UNK     1      17.880  10.329  34.127  1.00  0.00    -0.356 OA
HETATM   21  C18 UNK     1      16.563  10.866  34.250  1.00  0.00     0.210 C 
ENDBRANCH  15  20
ENDBRANCH   3  12
BRANCH   6  22
HETATM   22  O3  UNK     1      18.767   5.547  30.188  1.00  0.00    -0.355 OA
HETATM   23  H7  UNK     1      18.802   6.442  30.561  1.00  0.00     0.218 HD
ENDBRANCH   6  22
BRANCH  10  24
HETATM   24  O4  UNK     1      18.624  -1.361  32.627  1.00  0.00    -0.356 OA
HETATM   25  C17 UNK     1      19.890  -1.962  32.893  1.00  0.00     0.210 C 
ENDBRANCH  10  24
TORSDOF 5
ENDMDL
MODEL 7
REMARK VINA RESULT:      -7.4     22.656     24.670
REMARK  5 active torsions:
REMARK  status: ('A' for Active; 'I' for Inactive)
REMARK    1  A    between atoms: C7_13  and  O2_2 
REMARK    2  A    between atoms: C5_11  and  O3_3 
REMARK    3  A    between atoms: C11_17  and  O4_4 
REMARK    4  A    between atoms: C14_20  and  O5_5 
REMARK    5  A    between atoms: C1_7  and  C3_9 
ROOT
HETATM    1  O1  UNK     1      14.232   9.220   8.224  1.00  0.00    -0.306 OA
HETATM    2  O6  UNK     1      16.739   7.675  11.041  1.00  0.00    -0.284 OA
HETATM    3  C1  UNK     1      13.949   8.025   8.867  1.00  0.00     0.126 A 
HETATM    4  C2  UNK     1      16.275   9.417   9.521  1.00  0.00     0.053 A 
HETATM    5  C4  UNK     1      15.379   9.890   8.565  1.00  0.00     0.090 A 
HETATM    6  C5  UNK     1      14.735   7.455   9.800  1.00  0.00     0.152 A 
HETATM    7  C6  UNK     1      15.986   8.143  10.197  1.00  0.00     0.220 A 
HETATM    8  C8  UNK     1      17.429  10.143   9.826  1.00  0.00     0.055 A 
HETATM    9  C10 UNK     1      15.632  11.094   7.907  1.00  0.00     0.041 A 
HETATM   10  C11 UNK     1      17.679  11.348   9.168  1.00  0.00     0.069 A 
HETATM   11  C13 UNK     1      16.782  11.823   8.210  1.00  0.00     0.039 A 
ENDROOT
BRANCH   3  12
HETATM   12  C3  UNK     1      12.691   7.410   8.408  1.00  0.00     0.034 A 
HETATM   13  C7  UNK     1      11.480   7.681   9.046  1.00  0.00     0.084 A 
HETATM   14  C12 UNK     1      10.301   7.087   8.593  1.00  0.00     0.074 A 
HETATM   15  C14 UNK     1      10.333   6.220   7.500  1.00  0.00     0.070 A 
HETATM   16  C15 UNK     1      11.543   5.948   6.861  1.00  0.00     0.038 A 
HETATM   17  C9  UNK     1      12.721   6.542   7.314  1.00  0.00     0.020 A 
BRANCH  13  18
HETATM   18  O2  UNK     1      11.420   8.524  10.116  1.00  0.00    -0.355 OA
HETATM   19  C16 UNK     1      10.745   9.765   9.924  1.00  0.00     0.210 C 
ENDBRANCH  13  18
BRANCH  15  20
HETATM   20  O5  UNK     1       9.185   5.640   7.058  1.00  0.00    -0.356 OA
HETATM   21  C18 UNK     1       8.047   5.714   7.916  1.00  0.00     0.210 C 
ENDBRANCH  15  20
ENDBRANCH   3  12
BRANCH   6  22
HETATM   22  O3  UNK     1      14.441   6.249  10.396  1.00  0.00    -0.355 OA
HETATM   23  H7  UNK     1      14.588   6.309  11.353  1.00  0.00     0.218 HD
ENDBRANCH   6  22
BRANCH  10  24
HETATM   24  O4  UNK     1      18.803  12.061   9.457  1.00  0.00    -0.356 OA
HETATM   25  C17 UNK     1      19.815  12.112   8.453  1.00  0.00     0.210 C 
ENDBRANCH  10  24
TORSDOF 5
ENDMDL
MODEL 8
REMARK VINA RESULT:      -7.4     22.775     24.617
REMARK  5 active torsions:
REMARK  status: ('A' for Active; 'I' for Inactive)
REMARK    1  A    between atoms: C7_13  and  O2_2 
REMARK    2  A    between atoms: C5_11  and  O3_3 
REMARK    3  A    between atoms: C11_17  and  O4_4 
REMARK    4  A    between atoms: C14_20  and  O5_5 
REMARK    5  A    between atoms: C1_7  and  C3_9 
ROOT
HETATM    1  O1  UNK     1      12.004   8.741   9.478  1.00  0.00    -0.306 OA
HETATM    2  O6  UNK     1      11.022   5.556   7.134  1.00  0.00    -0.284 OA
HETATM    3  C1  UNK     1      12.972   8.017   8.799  1.00  0.00     0.126 A 
HETATM    4  C2  UNK     1      10.290   7.296   8.548  1.00  0.00     0.053 A 
HETATM    5  C4  UNK     1      10.692   8.372   9.335  1.00  0.00     0.090 A 
HETATM    6  C5  UNK     1      12.719   6.952   8.017  1.00  0.00     0.152 A 
HETATM    7  C6  UNK     1      11.314   6.515   7.836  1.00  0.00     0.220 A 
HETATM    8  C8  UNK     1       8.937   6.965   8.441  1.00  0.00     0.055 A 
HETATM    9  C10 UNK     1       9.740   9.126  10.022  1.00  0.00     0.041 A 
HETATM   10  C11 UNK     1       7.987   7.722   9.129  1.00  0.00     0.069 A 
HETATM   11  C13 UNK     1       8.388   8.801   9.918  1.00  0.00     0.039 A 
ENDROOT
BRANCH   3  12
HETATM   12  C3  UNK     1      14.337   8.517   9.040  1.00  0.00     0.034 A 
HETATM   13  C7  UNK     1      15.227   7.821   9.860  1.00  0.00     0.084 A 
HETATM   14  C12 UNK     1      16.516   8.313  10.072  1.00  0.00     0.074 A 
HETATM   15  C14 UNK     1      16.915   9.504   9.464  1.00  0.00     0.070 A 
HETATM   16  C15 UNK     1      16.027  10.201   8.644  1.00  0.00     0.038 A 
HETATM   17  C9  UNK     1      14.740   9.708   8.432  1.00  0.00     0.020 A 
BRANCH  13  18
HETATM   18  O2  UNK     1      14.863   6.655  10.466  1.00  0.00    -0.355 OA
HETATM   19  C16 UNK     1      15.570   5.478  10.083  1.00  0.00     0.210 C 
ENDBRANCH  13  18
BRANCH  15  20
HETATM   20  O5  UNK     1      18.171   9.985   9.671  1.00  0.00    -0.356 OA
HETATM   21  C18 UNK     1      18.335  11.403   9.650  1.00  0.00     0.210 C 
ENDBRANCH  15  20
ENDBRANCH   3  12
BRANCH   6  22
HETATM   22  O3  UNK     1      13.708   6.232   7.382  1.00  0.00    -0.355 OA
HETATM   23  H7  UNK     1      14.088   6.758   6.661  1.00  0.00     0.218 HD
ENDBRANCH   6  22
BRANCH  10  24
HETATM   24  O4  UNK     1       6.666   7.406   9.032  1.00  0.00    -0.356 OA
HETATM   25  C17 UNK     1       5.855   7.654  10.179  1.00  0.00     0.210 C 
ENDBRANCH  10  24
TORSDOF 5
ENDMDL
MODEL 9
REMARK VINA RESULT:      -7.4      1.874      7.633
REMARK  5 active torsions:
REMARK  status: ('A' for Active; 'I' for Inactive)
REMARK    1  A    between atoms: C7_13  and  O2_2 
REMARK    2  A    between atoms: C5_11  and  O3_3 
REMARK    3  A    between atoms: C11_17  and  O4_4 
REMARK    4  A    between atoms: C14_20  and  O5_5 
REMARK    5  A    between atoms: C1_7  and  C3_9 
ROOT
HETATM    1  O1  UNK     1      18.266   7.420  31.787  1.00  0.00    -0.306 OA
HETATM    2  O6  UNK     1      17.623   4.181  34.176  1.00  0.00    -0.284 OA
HETATM    3  C1  UNK     1      17.884   7.563  33.113  1.00  0.00     0.126 A 
HETATM    4  C2  UNK     1      18.238   5.007  32.054  1.00  0.00     0.053 A 
HETATM    5  C4  UNK     1      18.439   6.154  31.290  1.00  0.00     0.090 A 
HETATM    6  C5  UNK     1      17.648   6.539  33.953  1.00  0.00     0.152 A 
HETATM    7  C6  UNK     1      17.820   5.152  33.457  1.00  0.00     0.220 A 
HETATM    8  C8  UNK     1      18.429   3.742  31.493  1.00  0.00     0.055 A 
HETATM    9  C10 UNK     1      18.833   6.043  29.956  1.00  0.00     0.041 A 
HETATM   10  C11 UNK     1      18.823   3.633  30.159  1.00  0.00     0.069 A 
HETATM   11  C13 UNK     1      19.025   4.782  29.391  1.00  0.00     0.039 A 
ENDROOT
BRANCH   3  12
HETATM   12  C3  UNK     1      17.733   8.971  33.518  1.00  0.00     0.034 A 
HETATM   13  C7  UNK     1      16.484   9.593  33.516  1.00  0.00     0.084 A 
HETATM   14  C12 UNK     1      16.365  10.929  33.905  1.00  0.00     0.074 A 
HETATM   15  C14 UNK     1      17.498  11.643  34.296  1.00  0.00     0.070 A 
HETATM   16  C15 UNK     1      18.748  11.023  34.298  1.00  0.00     0.038 A 
HETATM   17  C9  UNK     1      18.865   9.689  33.910  1.00  0.00     0.020 A 
BRANCH  13  18
HETATM   18  O2  UNK     1      15.361   8.918  33.140  1.00  0.00    -0.355 OA
HETATM   19  C16 UNK     1      14.398   8.646  34.155  1.00  0.00     0.210 C 
ENDBRANCH  13  18
BRANCH  15  20
HETATM   20  O5  UNK     1      17.383  12.945  34.674  1.00  0.00    -0.356 OA
HETATM   21  C18 UNK     1      16.520  13.229  35.774  1.00  0.00     0.210 C 
ENDBRANCH  15  20
ENDBRANCH   3  12
BRANCH   6  22
HETATM   22  O3  UNK     1      17.237   6.715  35.257  1.00  0.00    -0.355 OA
HETATM   23  H7  UNK     1      16.618   6.010  35.505  1.00  0.00     0.218 HD
ENDBRANCH   6  22
BRANCH  10  24
HETATM   24  O4  UNK     1      19.009   2.405  29.602  1.00  0.00    -0.356 OA
HETATM   25  C17 UNK     1      17.930   1.869  28.837  1.00  0.00     0.210 C 
ENDBRANCH  10  24
TORSDOF 5
ENDMDL
MODEL 10
REMARK VINA RESULT:      -7.3      7.675     10.937
REMARK  5 active torsions:
REMARK  status: ('A' for Active; 'I' for Inactive)
REMARK    1  A    between atoms: C7_13  and  O2_2 
REMARK    2  A    between atoms: C5_11  and  O3_3 
REMARK    3  A    between atoms: C11_17  and  O4_4 
REMARK    4  A    between atoms: C14_20  and  O5_5 
REMARK    5  A    between atoms: C1_7  and  C3_9 
ROOT
HETATM    1  O1  UNK     1      19.002  -3.018  37.574  1.00  0.00    -0.306 OA
HETATM    2  O6  UNK     1      19.874  -1.905  33.752  1.00  0.00    -0.284 OA
HETATM    3  C1  UNK     1      19.601  -3.896  36.684  1.00  0.00     0.126 A 
HETATM    4  C2  UNK     1      18.990  -1.305  35.854  1.00  0.00     0.053 A 
HETATM    5  C4  UNK     1      18.716  -1.748  37.146  1.00  0.00     0.090 A 
HETATM    6  C5  UNK     1      19.909  -3.597  35.408  1.00  0.00     0.152 A 
HETATM    7  C6  UNK     1      19.614  -2.236  34.902  1.00  0.00     0.220 A 
HETATM    8  C8  UNK     1      18.675   0.002  35.474  1.00  0.00     0.055 A 
HETATM    9  C10 UNK     1      18.121  -0.885  38.067  1.00  0.00     0.041 A 
HETATM   10  C11 UNK     1      18.082   0.863  36.398  1.00  0.00     0.069 A 
HETATM   11  C13 UNK     1      17.805   0.421  37.692  1.00  0.00     0.039 A 
ENDROOT
BRANCH   3  12
HETATM   12  C3  UNK     1      19.853  -5.225  37.269  1.00  0.00     0.034 A 
HETATM   13  C7  UNK     1      18.921  -6.257  37.147  1.00  0.00     0.084 A 
HETATM   14  C12 UNK     1      19.182  -7.507  37.709  1.00  0.00     0.074 A 
HETATM   15  C14 UNK     1      20.377  -7.727  38.395  1.00  0.00     0.070 A 
HETATM   16  C15 UNK     1      21.309  -6.696  38.519  1.00  0.00     0.038 A 
HETATM   17  C9  UNK     1      21.049  -5.447  37.956  1.00  0.00     0.020 A 
BRANCH  13  18
HETATM   18  O2  UNK     1      17.746  -6.069  36.481  1.00  0.00    -0.355 OA
HETATM   19  C16 UNK     1      17.291  -7.141  35.658  1.00  0.00     0.210 C 
ENDBRANCH  13  18
BRANCH  15  20
HETATM   20  O5  UNK     1      20.632  -8.945  38.945  1.00  0.00    -0.356 OA
HETATM   21  C18 UNK     1      19.659  -9.968  38.735  1.00  0.00     0.210 C 
ENDBRANCH  15  20
ENDBRANCH   3  12
BRANCH   6  22
HETATM   22  O3  UNK     1      20.474  -4.505  34.538  1.00  0.00    -0.355 OA
HETATM   23  H7  UNK     1      19.803  -5.139  34.242  1.00  0.00     0.218 HD
ENDBRANCH   6  22
BRANCH  10  24
HETATM   24  O4  UNK     1      17.768   2.138  36.036  1.00  0.00    -0.356 OA
HETATM   25  C17 UNK     1      18.338   2.626  34.822  1.00  0.00     0.210 C 
ENDBRANCH  10  24
TORSDOF 5
ENDMDL
