MODEL 1
REMARK VINA RESULT:      -8.2      0.000      0.000
REMARK  3 active torsions:
REMARK  status: ('A' for Active; 'I' for Inactive)
REMARK    1  A    between atoms: C7_11  and  N1_3 
REMARK    2  A    between atoms: C1_5  and  C3_7 
REMARK    3  A    between atoms: C2_6  and  C4_8 
ROOT
HETATM    1  N2  UNK     1      19.941   9.506  34.713  1.00  0.00    -0.191 NA
HETATM    2  C3  UNK     1      19.698   6.731  32.655  1.00  0.00     0.034 C 
HETATM    3  C4  UNK     1      18.890   7.643  33.253  1.00  0.00     0.055 C 
HETATM    4  C15 UNK     1      19.471   8.671  34.058  1.00  0.00     0.100 C 
ENDROOT
BRANCH   3   5
HETATM    5  C2  UNK     1      17.422   7.624  33.100  1.00  0.00    -0.015 A 
HETATM    6  C10 UNK     1      16.867   7.924  31.868  1.00  0.00     0.013 A 
HETATM    7  C12 UNK     1      15.479   7.905  31.723  1.00  0.00     0.001 A 
HETATM    8  C14 UNK     1      14.668   7.589  32.812  1.00  0.00     0.000 A 
HETATM    9  C13 UNK     1      15.245   7.290  34.047  1.00  0.00     0.001 A 
HETATM   10  C11 UNK     1      16.632   7.307  34.192  1.00  0.00     0.013 A 
ENDBRANCH   3   5
BRANCH   2  11
HETATM   11  C1  UNK     1      19.286   5.610  31.825  1.00  0.00    -0.035 A 
HETATM   12  C5  UNK     1      18.620   4.525  32.395  1.00  0.00     0.014 A 
HETATM   13  C8  UNK     1      18.224   3.452  31.597  1.00  0.00     0.037 A 
HETATM   14  C7  UNK     1      18.493   3.465  30.228  1.00  0.00     0.102 A 
HETATM   15  C9  UNK     1      19.159   4.549  29.658  1.00  0.00     0.037 A 
HETATM   16  C6  UNK     1      19.555   5.622  30.456  1.00  0.00     0.014 A 
BRANCH  14  17
HETATM   17  N1  UNK     1      18.091   2.372  29.415  1.00  0.00    -0.116 N 
HETATM   18  O1  UNK     1      17.973   2.545  28.178  1.00  0.00    -0.532 OA
HETATM   19  O2  UNK     1      17.864   1.263  29.956  1.00  0.00    -0.532 OA
ENDBRANCH  14  17
ENDBRANCH   2  11
TORSDOF 3
ENDMDL
MODEL 2
REMARK VINA RESULT:      -6.9      9.251     11.755
REMARK  3 active torsions:
REMARK  status: ('A' for Active; 'I' for Inactive)
REMARK    1  A    between atoms: C7_11  and  N1_3 
REMARK    2  A    between atoms: C1_5  and  C3_7 
REMARK    3  A    between atoms: C2_6  and  C4_8 
ROOT
HETATM    1  N2  UNK     1      22.537  -6.245  38.894  1.00  0.00    -0.191 NA
HETATM    2  C3  UNK     1      20.837  -3.634  37.380  1.00  0.00     0.034 C 
HETATM    3  C4  UNK     1      20.806  -4.991  37.433  1.00  0.00     0.055 C 
HETATM    4  C15 UNK     1      21.762  -5.682  38.239  1.00  0.00     0.100 C 
ENDROOT
BRANCH   3   5
HETATM    5  C2  UNK     1      19.812  -5.790  36.691  1.00  0.00    -0.015 A 
HETATM    6  C10 UNK     1      20.192  -6.428  35.523  1.00  0.00     0.013 A 
HETATM    7  C12 UNK     1      19.252  -7.184  34.822  1.00  0.00     0.001 A 
HETATM    8  C14 UNK     1      17.945  -7.289  35.299  1.00  0.00     0.000 A 
HETATM    9  C13 UNK     1      17.579  -6.639  36.478  1.00  0.00     0.001 A 
HETATM   10  C11 UNK     1      18.519  -5.884  37.179  1.00  0.00     0.013 A 
ENDBRANCH   3   5
BRANCH   2  11
HETATM   11  C1  UNK     1      19.964  -2.769  36.602  1.00  0.00    -0.035 A 
HETATM   12  C5  UNK     1      18.845  -2.188  37.197  1.00  0.00     0.014 A 
HETATM   13  C8  UNK     1      18.010  -1.358  36.449  1.00  0.00     0.037 A 
HETATM   14  C7  UNK     1      18.296  -1.108  35.106  1.00  0.00     0.102 A 
HETATM   15  C9  UNK     1      19.415  -1.689  34.512  1.00  0.00     0.037 A 
HETATM   16  C6  UNK     1      20.249  -2.520  35.259  1.00  0.00     0.014 A 
BRANCH  14  17
HETATM   17  N1  UNK     1      17.446  -0.263  34.345  1.00  0.00    -0.116 N 
HETATM   18  O1  UNK     1      16.207  -0.311  34.539  1.00  0.00    -0.532 OA
HETATM   19  O2  UNK     1      17.957   0.509  33.497  1.00  0.00    -0.532 OA
ENDBRANCH  14  17
ENDBRANCH   2  11
TORSDOF 3
ENDMDL
MODEL 3
REMARK VINA RESULT:      -6.9      2.632      4.319
REMARK  3 active torsions:
REMARK  status: ('A' for Active; 'I' for Inactive)
REMARK    1  A    between atoms: C7_11  and  N1_3 
REMARK    2  A    between atoms: C1_5  and  C3_7 
REMARK    3  A    between atoms: C2_6  and  C4_8 
ROOT
HETATM    1  N2  UNK     1      16.547   8.125  31.266  1.00  0.00    -0.191 NA
HETATM    2  C3  UNK     1      17.312   4.747  31.330  1.00  0.00     0.034 C 
HETATM    3  C4  UNK     1      17.935   5.947  31.460  1.00  0.00     0.055 C 
HETATM    4  C15 UNK     1      17.168   7.148  31.353  1.00  0.00     0.100 C 
ENDROOT
BRANCH   3   5
HETATM    5  C2  UNK     1      19.383   6.065  31.717  1.00  0.00    -0.015 A 
HETATM    6  C10 UNK     1      19.817   6.487  32.962  1.00  0.00     0.013 A 
HETATM    7  C12 UNK     1      21.186   6.598  33.205  1.00  0.00     0.001 A 
HETATM    8  C14 UNK     1      22.101   6.287  32.199  1.00  0.00     0.000 A 
HETATM    9  C13 UNK     1      21.646   5.863  30.950  1.00  0.00     0.001 A 
HETATM   10  C11 UNK     1      20.278   5.752  30.707  1.00  0.00     0.013 A 
ENDBRANCH   3   5
BRANCH   2  11
HETATM   11  C1  UNK     1      17.930   3.432  31.386  1.00  0.00    -0.035 A 
HETATM   12  C5  UNK     1      18.098   2.790  32.613  1.00  0.00     0.014 A 
HETATM   13  C8  UNK     1      18.689   1.528  32.665  1.00  0.00     0.037 A 
HETATM   14  C7  UNK     1      19.111   0.907  31.490  1.00  0.00     0.102 A 
HETATM   15  C9  UNK     1      18.943   1.548  30.263  1.00  0.00     0.037 A 
HETATM   16  C6  UNK     1      18.353   2.810  30.211  1.00  0.00     0.014 A 
BRANCH  14  17
HETATM   17  N1  UNK     1      19.713  -0.378  31.542  1.00  0.00    -0.116 N 
HETATM   18  O1  UNK     1      19.011  -1.366  31.867  1.00  0.00    -0.532 OA
HETATM   19  O2  UNK     1      20.931  -0.491  31.263  1.00  0.00    -0.532 OA
ENDBRANCH  14  17
ENDBRANCH   2  11
TORSDOF 3
ENDMDL
MODEL 4
REMARK VINA RESULT:      -6.7      2.461      4.316
REMARK  3 active torsions:
REMARK  status: ('A' for Active; 'I' for Inactive)
REMARK    1  A    between atoms: C7_11  and  N1_3 
REMARK    2  A    between atoms: C1_5  and  C3_7 
REMARK    3  A    between atoms: C2_6  and  C4_8 
ROOT
HETATM    1  N2  UNK     1      17.653   9.147  33.129  1.00  0.00    -0.191 NA
HETATM    2  C3  UNK     1      17.654   5.699  33.461  1.00  0.00     0.034 C 
HETATM    3  C4  UNK     1      18.425   6.683  32.929  1.00  0.00     0.055 C 
HETATM    4  C15 UNK     1      17.998   8.042  33.040  1.00  0.00     0.100 C 
ENDROOT
BRANCH   3   5
HETATM    5  C2  UNK     1      19.700   6.406  32.240  1.00  0.00    -0.015 A 
HETATM    6  C10 UNK     1      19.692   6.142  30.882  1.00  0.00     0.013 A 
HETATM    7  C12 UNK     1      20.898   5.881  30.231  1.00  0.00     0.001 A 
HETATM    8  C14 UNK     1      22.094   5.887  30.949  1.00  0.00     0.000 A 
HETATM    9  C13 UNK     1      22.083   6.155  32.319  1.00  0.00     0.001 A 
HETATM   10  C11 UNK     1      20.878   6.416  32.969  1.00  0.00     0.013 A 
ENDBRANCH   3   5
BRANCH   2  11
HETATM   11  C1  UNK     1      17.916   4.269  33.425  1.00  0.00    -0.035 A 
HETATM   12  C5  UNK     1      17.925   3.591  32.206  1.00  0.00     0.014 A 
HETATM   13  C8  UNK     1      18.177   2.219  32.173  1.00  0.00     0.037 A 
HETATM   14  C7  UNK     1      18.421   1.527  33.359  1.00  0.00     0.102 A 
HETATM   15  C9  UNK     1      18.412   2.205  34.578  1.00  0.00     0.037 A 
HETATM   16  C6  UNK     1      18.160   3.575  34.611  1.00  0.00     0.014 A 
BRANCH  14  17
HETATM   17  N1  UNK     1      18.678   0.130  33.326  1.00  0.00    -0.116 N 
HETATM   18  O1  UNK     1      18.559  -0.484  32.239  1.00  0.00    -0.532 OA
HETATM   19  O2  UNK     1      19.016  -0.451  34.385  1.00  0.00    -0.532 OA
ENDBRANCH  14  17
ENDBRANCH   2  11
TORSDOF 3
ENDMDL
MODEL 5
REMARK VINA RESULT:      -6.6     16.776     18.706
REMARK  3 active torsions:
REMARK  status: ('A' for Active; 'I' for Inactive)
REMARK    1  A    between atoms: C7_11  and  N1_3 
REMARK    2  A    between atoms: C1_5  and  C3_7 
REMARK    3  A    between atoms: C2_6  and  C4_8 
ROOT
HETATM    1  N2  UNK     1      35.595  -5.558  36.508  1.00  0.00    -0.191 NA
HETATM    2  C3  UNK     1      32.376  -5.565  37.786  1.00  0.00     0.034 C 
HETATM    3  C4  UNK     1      33.018  -5.791  36.611  1.00  0.00     0.055 C 
HETATM    4  C15 UNK     1      34.440  -5.662  36.555  1.00  0.00     0.100 C 
ENDROOT
BRANCH   3   5
HETATM    5  C2  UNK     1      32.304  -6.176  35.378  1.00  0.00    -0.015 A 
HETATM    6  C10 UNK     1      31.761  -5.188  34.575  1.00  0.00     0.013 A 
HETATM    7  C12 UNK     1      31.086  -5.552  33.409  1.00  0.00     0.001 A 
HETATM    8  C14 UNK     1      30.963  -6.899  33.066  1.00  0.00     0.000 A 
HETATM    9  C13 UNK     1      31.516  -7.881  33.888  1.00  0.00     0.001 A 
HETATM   10  C11 UNK     1      32.191  -7.517  35.052  1.00  0.00     0.013 A 
ENDBRANCH   3   5
BRANCH   2  11
HETATM   11  C1  UNK     1      30.943  -5.627  38.024  1.00  0.00    -0.035 A 
HETATM   12  C5  UNK     1      30.206  -4.451  38.163  1.00  0.00     0.014 A 
HETATM   13  C8  UNK     1      28.831  -4.512  38.391  1.00  0.00     0.037 A 
HETATM   14  C7  UNK     1      28.193  -5.749  38.477  1.00  0.00     0.102 A 
HETATM   15  C9  UNK     1      28.929  -6.925  38.338  1.00  0.00     0.037 A 
HETATM   16  C6  UNK     1      30.304  -6.864  38.111  1.00  0.00     0.014 A 
BRANCH  14  17
HETATM   17  N1  UNK     1      26.793  -5.812  38.708  1.00  0.00    -0.116 N 
HETATM   18  O1  UNK     1      26.185  -4.768  39.046  1.00  0.00    -0.532 OA
HETATM   19  O2  UNK     1      26.202  -6.910  38.569  1.00  0.00    -0.532 OA
ENDBRANCH  14  17
ENDBRANCH   2  11
TORSDOF 3
ENDMDL
MODEL 6
REMARK VINA RESULT:      -6.6     17.998     19.575
REMARK  3 active torsions:
REMARK  status: ('A' for Active; 'I' for Inactive)
REMARK    1  A    between atoms: C7_11  and  N1_3 
REMARK    2  A    between atoms: C1_5  and  C3_7 
REMARK    3  A    between atoms: C2_6  and  C4_8 
ROOT
HETATM    1  N2  UNK     1      29.281  -3.815  39.826  1.00  0.00    -0.191 NA
HETATM    2  C3  UNK     1      32.016  -4.457  37.800  1.00  0.00     0.034 C 
HETATM    3  C4  UNK     1      30.814  -5.006  38.113  1.00  0.00     0.055 C 
HETATM    4  C15 UNK     1      29.969  -4.348  39.058  1.00  0.00     0.100 C 
ENDROOT
BRANCH   3   5
HETATM    5  C2  UNK     1      30.335  -6.263  37.506  1.00  0.00    -0.015 A 
HETATM    6  C10 UNK     1      29.622  -6.213  36.320  1.00  0.00     0.013 A 
HETATM    7  C12 UNK     1      29.170  -7.402  35.747  1.00  0.00     0.001 A 
HETATM    8  C14 UNK     1      29.435  -8.622  36.369  1.00  0.00     0.000 A 
HETATM    9  C13 UNK     1      30.154  -8.654  37.564  1.00  0.00     0.001 A 
HETATM   10  C11 UNK     1      30.607  -7.466  38.137  1.00  0.00     0.013 A 
ENDBRANCH   3   5
BRANCH   2  11
HETATM   11  C1  UNK     1      33.010  -4.993  36.884  1.00  0.00    -0.035 A 
HETATM   12  C5  UNK     1      33.028  -4.580  35.552  1.00  0.00     0.014 A 
HETATM   13  C8  UNK     1      33.983  -5.094  34.675  1.00  0.00     0.037 A 
HETATM   14  C7  UNK     1      34.920  -6.021  35.130  1.00  0.00     0.102 A 
HETATM   15  C9  UNK     1      34.902  -6.435  36.462  1.00  0.00     0.037 A 
HETATM   16  C6  UNK     1      33.947  -5.921  37.338  1.00  0.00     0.014 A 
BRANCH  14  17
HETATM   17  N1  UNK     1      35.893  -6.546  34.237  1.00  0.00    -0.116 N 
HETATM   18  O1  UNK     1      36.846  -7.215  34.702  1.00  0.00    -0.532 OA
HETATM   19  O2  UNK     1      35.771  -6.324  33.008  1.00  0.00    -0.532 OA
ENDBRANCH  14  17
ENDBRANCH   2  11
TORSDOF 3
ENDMDL
MODEL 7
REMARK VINA RESULT:      -6.6     22.404     24.486
REMARK  3 active torsions:
REMARK  status: ('A' for Active; 'I' for Inactive)
REMARK    1  A    between atoms: C7_11  and  N1_3 
REMARK    2  A    between atoms: C1_5  and  C3_7 
REMARK    3  A    between atoms: C2_6  and  C4_8 
ROOT
HETATM    1  N2  UNK     1      16.765   5.045   9.385  1.00  0.00    -0.191 NA
HETATM    2  C3  UNK     1      13.466   5.253   8.350  1.00  0.00     0.034 C 
HETATM    3  C4  UNK     1      14.410   6.028   8.944  1.00  0.00     0.055 C 
HETATM    4  C15 UNK     1      15.709   5.485   9.187  1.00  0.00     0.100 C 
ENDROOT
BRANCH   3   5
HETATM    5  C2  UNK     1      14.153   7.425   9.345  1.00  0.00    -0.015 A 
HETATM    6  C10 UNK     1      13.754   7.693  10.643  1.00  0.00     0.013 A 
HETATM    7  C12 UNK     1      13.510   9.013  11.022  1.00  0.00     0.001 A 
HETATM    8  C14 UNK     1      13.668  10.045  10.097  1.00  0.00     0.000 A 
HETATM    9  C13 UNK     1      14.071   9.757   8.793  1.00  0.00     0.001 A 
HETATM   10  C11 UNK     1      14.314   8.437   8.414  1.00  0.00     0.013 A 
ENDBRANCH   3   5
BRANCH   2  11
HETATM   11  C1  UNK     1      12.094   5.627   8.048  1.00  0.00    -0.035 A 
HETATM   12  C5  UNK     1      11.106   5.513   9.026  1.00  0.00     0.014 A 
HETATM   13  C8  UNK     1       9.790   5.872   8.734  1.00  0.00     0.037 A 
HETATM   14  C7  UNK     1       9.463   6.348   7.464  1.00  0.00     0.102 A 
HETATM   15  C9  UNK     1      10.450   6.462   6.486  1.00  0.00     0.037 A 
HETATM   16  C6  UNK     1      11.765   6.101   6.778  1.00  0.00     0.014 A 
BRANCH  14  17
HETATM   17  N1  UNK     1       8.123   6.714   7.167  1.00  0.00    -0.116 N 
HETATM   18  O1  UNK     1       7.274   6.718   8.090  1.00  0.00    -0.532 OA
HETATM   19  O2  UNK     1       7.825   7.024   5.988  1.00  0.00    -0.532 OA
ENDBRANCH  14  17
ENDBRANCH   2  11
TORSDOF 3
ENDMDL
MODEL 8
REMARK VINA RESULT:      -6.6      4.096      6.479
REMARK  3 active torsions:
REMARK  status: ('A' for Active; 'I' for Inactive)
REMARK    1  A    between atoms: C7_11  and  N1_3 
REMARK    2  A    between atoms: C1_5  and  C3_7 
REMARK    3  A    between atoms: C2_6  and  C4_8 
ROOT
HETATM    1  N2  UNK     1      18.187   2.504  34.120  1.00  0.00    -0.191 NA
HETATM    2  C3  UNK     1      17.836   5.940  34.388  1.00  0.00     0.034 C 
HETATM    3  C4  UNK     1      18.343   5.020  33.527  1.00  0.00     0.055 C 
HETATM    4  C15 UNK     1      18.257   3.632  33.855  1.00  0.00     0.100 C 
ENDROOT
BRANCH   3   5
HETATM    5  C2  UNK     1      18.980   5.396  32.250  1.00  0.00    -0.015 A 
HETATM    6  C10 UNK     1      18.185   5.648  31.146  1.00  0.00     0.013 A 
HETATM    7  C12 UNK     1      18.787   6.004  29.939  1.00  0.00     0.001 A 
HETATM    8  C14 UNK     1      20.176   6.100  29.854  1.00  0.00     0.000 A 
HETATM    9  C13 UNK     1      20.963   5.842  30.977  1.00  0.00     0.001 A 
HETATM   10  C11 UNK     1      20.361   5.487  32.183  1.00  0.00     0.013 A 
ENDBRANCH   3   5
BRANCH   2  11
HETATM   11  C1  UNK     1      17.855   7.385  34.233  1.00  0.00    -0.035 A 
HETATM   12  C5  UNK     1      16.677   8.072  33.937  1.00  0.00     0.014 A 
HETATM   13  C8  UNK     1      16.697   9.459  33.789  1.00  0.00     0.037 A 
HETATM   14  C7  UNK     1      17.894  10.159  33.940  1.00  0.00     0.102 A 
HETATM   15  C9  UNK     1      19.071   9.473  34.235  1.00  0.00     0.037 A 
HETATM   16  C6  UNK     1      19.052   8.086  34.382  1.00  0.00     0.014 A 
BRANCH  14  17
HETATM   17  N1  UNK     1      17.914  11.571  33.790  1.00  0.00    -0.116 N 
HETATM   18  O1  UNK     1      16.953  12.244  34.234  1.00  0.00    -0.532 OA
HETATM   19  O2  UNK     1      18.893  12.108  33.216  1.00  0.00    -0.532 OA
ENDBRANCH  14  17
ENDBRANCH   2  11
TORSDOF 3
ENDMDL
MODEL 9
REMARK VINA RESULT:      -6.5      3.378      6.376
REMARK  3 active torsions:
REMARK  status: ('A' for Active; 'I' for Inactive)
REMARK    1  A    between atoms: C7_11  and  N1_3 
REMARK    2  A    between atoms: C1_5  and  C3_7 
REMARK    3  A    between atoms: C2_6  and  C4_8 
ROOT
HETATM    1  N2  UNK     1      18.087   1.895  28.050  1.00  0.00    -0.191 NA
HETATM    2  C3  UNK     1      18.818   4.564  30.133  1.00  0.00     0.034 C 
HETATM    3  C4  UNK     1      18.536   3.239  30.218  1.00  0.00     0.055 C 
HETATM    4  C15 UNK     1      18.288   2.498  29.021  1.00  0.00     0.100 C 
ENDROOT
BRANCH   3   5
HETATM    5  C2  UNK     1      18.482   2.521  31.506  1.00  0.00    -0.015 A 
HETATM    6  C10 UNK     1      18.065   3.196  32.640  1.00  0.00     0.013 A 
HETATM    7  C12 UNK     1      18.013   2.516  33.857  1.00  0.00     0.001 A 
HETATM    8  C14 UNK     1      18.381   1.172  33.922  1.00  0.00     0.000 A 
HETATM    9  C13 UNK     1      18.799   0.507  32.769  1.00  0.00     0.001 A 
HETATM   10  C11 UNK     1      18.850   1.186  31.552  1.00  0.00     0.013 A 
ENDBRANCH   3   5
BRANCH   2  11
HETATM   11  C1  UNK     1      19.072   5.476  31.237  1.00  0.00    -0.035 A 
HETATM   12  C5  UNK     1      20.367   5.630  31.732  1.00  0.00     0.014 A 
HETATM   13  C8  UNK     1      20.610   6.506  32.790  1.00  0.00     0.037 A 
HETATM   14  C7  UNK     1      19.557   7.229  33.352  1.00  0.00     0.102 A 
HETATM   15  C9  UNK     1      18.263   7.075  32.857  1.00  0.00     0.037 A 
HETATM   16  C6  UNK     1      18.020   6.199  31.800  1.00  0.00     0.014 A 
BRANCH  14  17
HETATM   17  N1  UNK     1      19.804   8.121  34.429  1.00  0.00    -0.116 N 
HETATM   18  O1  UNK     1      19.248   7.909  35.534  1.00  0.00    -0.532 OA
HETATM   19  O2  UNK     1      20.573   9.096  34.247  1.00  0.00    -0.532 OA
ENDBRANCH  14  17
ENDBRANCH   2  11
TORSDOF 3
ENDMDL
MODEL 10
REMARK VINA RESULT:      -6.5     16.299     18.305
REMARK  3 active torsions:
REMARK  status: ('A' for Active; 'I' for Inactive)
REMARK    1  A    between atoms: C7_11  and  N1_3 
REMARK    2  A    between atoms: C1_5  and  C3_7 
REMARK    3  A    between atoms: C2_6  and  C4_8 
ROOT
HETATM    1  N2  UNK     1      33.955  -7.535  32.218  1.00  0.00    -0.191 NA
HETATM    2  C3  UNK     1      32.478  -6.292  35.093  1.00  0.00     0.034 C 
HETATM    3  C4  UNK     1      32.136  -6.630  33.823  1.00  0.00     0.055 C 
HETATM    4  C15 UNK     1      33.141  -7.129  32.938  1.00  0.00     0.100 C 
ENDROOT
BRANCH   3   5
HETATM    5  C2  UNK     1      30.756  -6.511  33.315  1.00  0.00    -0.015 A 
HETATM    6  C10 UNK     1      29.869  -7.555  33.513  1.00  0.00     0.013 A 
HETATM    7  C12 UNK     1      28.564  -7.441  33.033  1.00  0.00     0.001 A 
HETATM    8  C14 UNK     1      28.167  -6.286  32.360  1.00  0.00     0.000 A 
HETATM    9  C13 UNK     1      29.074  -5.243  32.169  1.00  0.00     0.001 A 
HETATM   10  C11 UNK     1      30.378  -5.356  32.649  1.00  0.00     0.013 A 
ENDBRANCH   3   5
BRANCH   2  11
HETATM   11  C1  UNK     1      31.601  -5.750  36.119  1.00  0.00    -0.035 A 
HETATM   12  C5  UNK     1      30.782  -6.602  36.860  1.00  0.00     0.014 A 
HETATM   13  C8  UNK     1      29.942  -6.081  37.844  1.00  0.00     0.037 A 
HETATM   14  C7  UNK     1      29.924  -4.707  38.089  1.00  0.00     0.102 A 
HETATM   15  C9  UNK     1      30.743  -3.856  37.348  1.00  0.00     0.037 A 
HETATM   16  C6  UNK     1      31.581  -4.377  36.364  1.00  0.00     0.014 A 
BRANCH  14  17
HETATM   17  N1  UNK     1      29.069  -4.176  39.091  1.00  0.00    -0.116 N 
HETATM   18  O1  UNK     1      27.827  -4.263  38.940  1.00  0.00    -0.532 OA
HETATM   19  O2  UNK     1      29.580  -3.634  40.101  1.00  0.00    -0.532 OA
ENDBRANCH  14  17
ENDBRANCH   2  11
TORSDOF 3
ENDMDL
