MODEL 1
REMARK VINA RESULT:      -9.2      0.000      0.000
REMARK  4 active torsions:
REMARK  status: ('A' for Active; 'I' for Inactive)
REMARK    1  A    between atoms: C13_20  and  O2_4 
REMARK    2  A    between atoms: C8_15  and  N1_6 
REMARK    3  A    between atoms: C9_16  and  N1_6 
REMARK    4  A    between atoms: C1_8  and  C5_12 
ROOT
HETATM    1  S1  UNK     1      19.291   4.450  30.331  1.00  0.00    -0.061 SA
HETATM    2  N2  UNK     1      17.410   4.527  32.103  1.00  0.00    -0.223 NA
HETATM    3  C5  UNK     1      17.890   5.808  31.938  1.00  0.00     0.082 A 
HETATM    4  C8  UNK     1      18.076   3.725  31.303  1.00  0.00     0.171 A 
HETATM    5  C11 UNK     1      18.904   5.970  31.025  1.00  0.00     0.086 A 
ENDROOT
BRANCH   3   6
HETATM    6  C1  UNK     1      17.312   6.877  32.714  1.00  0.00     0.070 A 
HETATM    7  C3  UNK     1      16.247   7.573  32.281  1.00  0.00     0.034 A 
HETATM    8  C2  UNK     1      15.666   8.645  33.069  1.00  0.00     0.000 A 
HETATM    9  C4  UNK     1      16.228   8.950  34.302  1.00  0.00     0.089 A 
HETATM   10  C7  UNK     1      14.560   9.380  32.632  1.00  0.00     0.033 A 
HETATM   11  C10 UNK     1      15.719   9.963  35.110  1.00  0.00     0.039 A 
HETATM   12  O1  UNK     1      17.343   8.232  34.771  1.00  0.00    -0.274 OA
HETATM   13  C14 UNK     1      14.617  10.692  34.669  1.00  0.00     0.022 A 
HETATM   14  C12 UNK     1      14.039  10.401  33.431  1.00  0.00     0.011 A 
HETATM   15 Br1  UNK     1      12.539  11.388  32.838  1.00  0.00    -0.051 Br
HETATM   16  C6  UNK     1      17.932   7.210  34.031  1.00  0.00     0.301 A 
HETATM   17  O3  UNK     1      18.922   6.621  34.456  1.00  0.00    -0.259 OA
ENDBRANCH   3   6
BRANCH   4  18
HETATM   18  N1  UNK     1      17.861   2.386  31.208  1.00  0.00    -0.333 N 
HETATM   19  H4  UNK     1      16.945   2.039  31.484  1.00  0.00     0.168 HD
BRANCH  18  20
HETATM   20  C9  UNK     1      18.708   1.358  30.719  1.00  0.00     0.067 A 
HETATM   21  C13 UNK     1      19.265   0.431  31.594  1.00  0.00     0.094 A 
HETATM   22  C16 UNK     1      20.096  -0.575  31.100  1.00  0.00     0.039 A 
HETATM   23  C18 UNK     1      20.366  -0.647  29.734  1.00  0.00     0.003 A 
HETATM   24  C17 UNK     1      19.805   0.285  28.862  1.00  0.00     0.002 A 
HETATM   25  C15 UNK     1      18.974   1.291  29.355  1.00  0.00     0.032 A 
BRANCH  21  26
HETATM   26  O2  UNK     1      19.013   0.485  32.933  1.00  0.00    -0.354 OA
HETATM   27  C19 UNK     1      18.425  -0.669  33.528  1.00  0.00     0.210 C 
ENDBRANCH  21  26
ENDBRANCH  18  20
ENDBRANCH   4  18
TORSDOF 4
ENDMDL
MODEL 2
REMARK VINA RESULT:      -9.2      1.661      2.729
REMARK  4 active torsions:
REMARK  status: ('A' for Active; 'I' for Inactive)
REMARK    1  A    between atoms: C13_20  and  O2_4 
REMARK    2  A    between atoms: C8_15  and  N1_6 
REMARK    3  A    between atoms: C9_16  and  N1_6 
REMARK    4  A    between atoms: C1_8  and  C5_12 
ROOT
HETATM    1  S1  UNK     1      18.949   3.429  30.492  1.00  0.00    -0.061 SA
HETATM    2  N2  UNK     1      17.820   4.242  32.671  1.00  0.00    -0.223 NA
HETATM    3  C5  UNK     1      18.184   5.353  31.942  1.00  0.00     0.082 A 
HETATM    4  C8  UNK     1      18.174   3.168  32.000  1.00  0.00     0.171 A 
HETATM    5  C11 UNK     1      18.805   5.120  30.738  1.00  0.00     0.086 A 
ENDROOT
BRANCH   3   6
HETATM    6  C1  UNK     1      17.900   6.663  32.474  1.00  0.00     0.070 A 
HETATM    7  C3  UNK     1      16.690   7.233  32.344  1.00  0.00     0.034 A 
HETATM    8  C2  UNK     1      16.407   8.550  32.885  1.00  0.00     0.000 A 
HETATM    9  C4  UNK     1      17.415   9.229  33.557  1.00  0.00     0.089 A 
HETATM   10  C7  UNK     1      15.155   9.158  32.757  1.00  0.00     0.033 A 
HETATM   11  C10 UNK     1      17.212  10.493  34.104  1.00  0.00     0.039 A 
HETATM   12  O1  UNK     1      18.688   8.647  33.702  1.00  0.00    -0.274 OA
HETATM   13  C14 UNK     1      15.962  11.093  33.973  1.00  0.00     0.022 A 
HETATM   14  C12 UNK     1      14.935  10.427  33.299  1.00  0.00     0.011 A 
HETATM   15 Br1  UNK     1      13.238  11.244  33.129  1.00  0.00    -0.051 Br
HETATM   16  C6  UNK     1      18.995   7.393  33.180  1.00  0.00     0.301 A 
HETATM   17  O3  UNK     1      20.123   6.924  33.299  1.00  0.00    -0.259 OA
ENDBRANCH   3   6
BRANCH   4  18
HETATM   18  N1  UNK     1      17.965   1.895  32.428  1.00  0.00    -0.333 N 
HETATM   19  H4  UNK     1      17.602   1.228  31.751  1.00  0.00     0.168 HD
BRANCH  18  20
HETATM   20  C9  UNK     1      18.228   1.301  33.690  1.00  0.00     0.067 A 
HETATM   21  C13 UNK     1      18.317  -0.081  33.812  1.00  0.00     0.094 A 
HETATM   22  C16 UNK     1      18.576  -0.651  35.059  1.00  0.00     0.039 A 
HETATM   23  C18 UNK     1      18.743   0.165  36.177  1.00  0.00     0.003 A 
HETATM   24  C17 UNK     1      18.653   1.551  36.049  1.00  0.00     0.002 A 
HETATM   25  C15 UNK     1      18.394   2.121  34.802  1.00  0.00     0.032 A 
BRANCH  21  26
HETATM   26  O2  UNK     1      18.156  -0.896  32.731  1.00  0.00    -0.354 OA
HETATM   27  C19 UNK     1      19.331  -1.498  32.194  1.00  0.00     0.210 C 
ENDBRANCH  21  26
ENDBRANCH  18  20
ENDBRANCH   4  18
TORSDOF 4
ENDMDL
MODEL 3
REMARK VINA RESULT:      -9.1      2.317      3.577
REMARK  4 active torsions:
REMARK  status: ('A' for Active; 'I' for Inactive)
REMARK    1  A    between atoms: C13_20  and  O2_4 
REMARK    2  A    between atoms: C8_15  and  N1_6 
REMARK    3  A    between atoms: C9_16  and  N1_6 
REMARK    4  A    between atoms: C1_8  and  C5_12 
ROOT
HETATM    1  S1  UNK     1      18.575   2.540  31.031  1.00  0.00    -0.061 SA
HETATM    2  N2  UNK     1      18.021   3.668  33.290  1.00  0.00    -0.223 NA
HETATM    3  C5  UNK     1      18.169   4.660  32.346  1.00  0.00     0.082 A 
HETATM    4  C8  UNK     1      18.213   2.505  32.708  1.00  0.00     0.171 A 
HETATM    5  C11 UNK     1      18.468   4.251  31.068  1.00  0.00     0.086 A 
ENDROOT
BRANCH   3   6
HETATM    6  C1  UNK     1      18.005   6.036  32.745  1.00  0.00     0.070 A 
HETATM    7  C3  UNK     1      16.811   6.649  32.702  1.00  0.00     0.034 A 
HETATM    8  C2  UNK     1      16.650   8.034  33.110  1.00  0.00     0.000 A 
HETATM    9  C4  UNK     1      17.763   8.733  33.558  1.00  0.00     0.089 A 
HETATM   10  C7  UNK     1      15.415   8.687  33.070  1.00  0.00     0.033 A 
HETATM   11  C10 UNK     1      17.680  10.062  33.967  1.00  0.00     0.039 A 
HETATM   12  O1  UNK     1      19.022   8.107  33.609  1.00  0.00    -0.274 OA
HETATM   13  C14 UNK     1      16.446  10.706  33.925  1.00  0.00     0.022 A 
HETATM   14  C12 UNK     1      15.315  10.020  33.476  1.00  0.00     0.011 A 
HETATM   15 Br1  UNK     1      13.641  10.898  33.426  1.00  0.00    -0.051 Br
HETATM   16  C6  UNK     1      19.210   6.787  33.209  1.00  0.00     0.301 A 
HETATM   17  O3  UNK     1      20.327   6.277  33.239  1.00  0.00    -0.259 OA
ENDBRANCH   3   6
BRANCH   4  18
HETATM   18  N1  UNK     1      18.141   1.308  33.348  1.00  0.00    -0.333 N 
HETATM   19  H4  UNK     1      18.585   0.510  32.898  1.00  0.00     0.168 HD
BRANCH  18  20
HETATM   20  C9  UNK     1      17.580   0.979  34.609  1.00  0.00     0.067 A 
HETATM   21  C13 UNK     1      18.347   1.072  35.765  1.00  0.00     0.094 A 
HETATM   22  C16 UNK     1      17.783   0.746  36.999  1.00  0.00     0.039 A 
HETATM   23  C18 UNK     1      16.454   0.328  37.068  1.00  0.00     0.003 A 
HETATM   24  C17 UNK     1      15.690   0.237  35.906  1.00  0.00     0.002 A 
HETATM   25  C15 UNK     1      16.254   0.563  34.672  1.00  0.00     0.032 A 
BRANCH  21  26
HETATM   26  O2  UNK     1      19.647   1.478  35.719  1.00  0.00    -0.354 OA
HETATM   27  C19 UNK     1      19.935   2.787  36.205  1.00  0.00     0.210 C 
ENDBRANCH  21  26
ENDBRANCH  18  20
ENDBRANCH   4  18
TORSDOF 4
ENDMDL
MODEL 4
REMARK VINA RESULT:      -9.0      7.746     10.690
REMARK  4 active torsions:
REMARK  status: ('A' for Active; 'I' for Inactive)
REMARK    1  A    between atoms: C13_20  and  O2_4 
REMARK    2  A    between atoms: C8_15  and  N1_6 
REMARK    3  A    between atoms: C9_16  and  N1_6 
REMARK    4  A    between atoms: C1_8  and  C5_12 
ROOT
HETATM    1  S1  UNK     1      20.244  -3.065  37.124  1.00  0.00    -0.061 SA
HETATM    2  N2  UNK     1      20.082  -4.257  34.836  1.00  0.00    -0.223 NA
HETATM    3  C5  UNK     1      20.213  -2.906  34.601  1.00  0.00     0.082 A 
HETATM    4  C8  UNK     1      20.087  -4.458  36.135  1.00  0.00     0.171 A 
HETATM    5  C11 UNK     1      20.315  -2.098  35.709  1.00  0.00     0.086 A 
ENDROOT
BRANCH   3   6
HETATM    6  C1  UNK     1      20.234  -2.431  33.240  1.00  0.00     0.070 A 
HETATM    7  C3  UNK     1      19.666  -1.266  32.887  1.00  0.00     0.034 A 
HETATM    8  C2  UNK     1      19.694  -0.789  31.515  1.00  0.00     0.000 A 
HETATM    9  C4  UNK     1      20.331  -1.561  30.552  1.00  0.00     0.089 A 
HETATM   10  C7  UNK     1      19.107   0.419  31.131  1.00  0.00     0.033 A 
HETATM   11  C10 UNK     1      20.399  -1.163  29.219  1.00  0.00     0.039 A 
HETATM   12  O1  UNK     1      20.931  -2.784  30.904  1.00  0.00    -0.274 OA
HETATM   13  C14 UNK     1      19.811   0.042  28.843  1.00  0.00     0.022 A 
HETATM   14  C12 UNK     1      19.165   0.832  29.797  1.00  0.00     0.011 A 
HETATM   15 Br1  UNK     1      18.374   2.470  29.283  1.00  0.00    -0.051 Br
HETATM   16  C6  UNK     1      20.906  -3.275  32.207  1.00  0.00     0.301 A 
HETATM   17  O3  UNK     1      21.414  -4.359  32.478  1.00  0.00    -0.259 OA
ENDBRANCH   3   6
BRANCH   4  18
HETATM   18  N1  UNK     1      19.976  -5.680  36.721  1.00  0.00    -0.333 N 
HETATM   19  H4  UNK     1      19.220  -5.811  37.389  1.00  0.00     0.168 HD
BRANCH  18  20
HETATM   20  C9  UNK     1      20.730  -6.864  36.512  1.00  0.00     0.067 A 
HETATM   21  C13 UNK     1      21.695  -7.255  37.433  1.00  0.00     0.094 A 
HETATM   22  C16 UNK     1      22.429  -8.421  37.215  1.00  0.00     0.039 A 
HETATM   23  C18 UNK     1      22.193  -9.190  36.075  1.00  0.00     0.003 A 
HETATM   24  C17 UNK     1      21.224  -8.793  35.155  1.00  0.00     0.002 A 
HETATM   25  C15 UNK     1      20.490  -7.626  35.373  1.00  0.00     0.032 A 
BRANCH  21  26
HETATM   26  O2  UNK     1      21.940  -6.518  38.553  1.00  0.00    -0.354 OA
HETATM   27  C19 UNK     1      22.881  -7.047  39.484  1.00  0.00     0.210 C 
ENDBRANCH  21  26
ENDBRANCH  18  20
ENDBRANCH   4  18
TORSDOF 4
ENDMDL
MODEL 5
REMARK VINA RESULT:      -8.8      2.046      2.780
REMARK  4 active torsions:
REMARK  status: ('A' for Active; 'I' for Inactive)
REMARK    1  A    between atoms: C13_20  and  O2_4 
REMARK    2  A    between atoms: C8_15  and  N1_6 
REMARK    3  A    between atoms: C9_16  and  N1_6 
REMARK    4  A    between atoms: C1_8  and  C5_12 
ROOT
HETATM    1  S1  UNK     1      18.531   1.824  34.493  1.00  0.00    -0.061 SA
HETATM    2  N2  UNK     1      18.081   3.590  32.658  1.00  0.00    -0.223 NA
HETATM    3  C5  UNK     1      18.324   4.258  33.839  1.00  0.00     0.082 A 
HETATM    4  C8  UNK     1      18.165   2.298  32.885  1.00  0.00     0.171 A 
HETATM    5  C11 UNK     1      18.588   3.479  34.940  1.00  0.00     0.086 A 
ENDROOT
BRANCH   3   6
HETATM    6  C1  UNK     1      18.288   5.699  33.848  1.00  0.00     0.070 A 
HETATM    7  C3  UNK     1      17.165   6.378  34.138  1.00  0.00     0.034 A 
HETATM    8  C2  UNK     1      17.135   7.830  34.150  1.00  0.00     0.000 A 
HETATM    9  C4  UNK     1      18.301   8.526  33.858  1.00  0.00     0.089 A 
HETATM   10  C7  UNK     1      15.977   8.552  34.448  1.00  0.00     0.033 A 
HETATM   11  C10 UNK     1      18.345   9.918  33.856  1.00  0.00     0.039 A 
HETATM   12  O1  UNK     1      19.485   7.831  33.551  1.00  0.00    -0.274 OA
HETATM   13  C14 UNK     1      17.186  10.631  34.153  1.00  0.00     0.022 A 
HETATM   14  C12 UNK     1      16.003   9.949  34.448  1.00  0.00     0.011 A 
HETATM   15 Br1  UNK     1      14.434  10.922  34.858  1.00  0.00    -0.051 Br
HETATM   16  C6  UNK     1      19.541   6.440  33.515  1.00  0.00     0.301 A 
HETATM   17  O3  UNK     1      20.582   5.863  33.217  1.00  0.00    -0.259 OA
ENDBRANCH   3   6
BRANCH   4  18
HETATM   18  N1  UNK     1      17.981   1.341  31.936  1.00  0.00    -0.333 N 
HETATM   19  H4  UNK     1      17.031   1.185  31.608  1.00  0.00     0.168 HD
BRANCH  18  20
HETATM   20  C9  UNK     1      18.931   0.531  31.261  1.00  0.00     0.067 A 
HETATM   21  C13 UNK     1      19.419   0.910  30.015  1.00  0.00     0.094 A 
HETATM   22  C16 UNK     1      20.353   0.105  29.363  1.00  0.00     0.039 A 
HETATM   23  C18 UNK     1      20.792  -1.077  29.961  1.00  0.00     0.003 A 
HETATM   24  C17 UNK     1      20.300  -1.451  31.210  1.00  0.00     0.002 A 
HETATM   25  C15 UNK     1      19.366  -0.646  31.862  1.00  0.00     0.032 A 
BRANCH  21  26
HETATM   26  O2  UNK     1      19.002   2.060  29.414  1.00  0.00    -0.354 OA
HETATM   27  C19 UNK     1      17.880   1.965  28.541  1.00  0.00     0.210 C 
ENDBRANCH  21  26
ENDBRANCH  18  20
ENDBRANCH   4  18
TORSDOF 4
ENDMDL
MODEL 6
REMARK VINA RESULT:      -8.7      7.534     10.440
REMARK  4 active torsions:
REMARK  status: ('A' for Active; 'I' for Inactive)
REMARK    1  A    between atoms: C13_20  and  O2_4 
REMARK    2  A    between atoms: C8_15  and  N1_6 
REMARK    3  A    between atoms: C9_16  and  N1_6 
REMARK    4  A    between atoms: C1_8  and  C5_12 
ROOT
HETATM    1  S1  UNK     1      19.216  -2.533  37.262  1.00  0.00    -0.061 SA
HETATM    2  N2  UNK     1      20.640  -3.414  35.291  1.00  0.00    -0.223 NA
HETATM    3  C5  UNK     1      19.852  -2.387  34.819  1.00  0.00     0.082 A 
HETATM    4  C8  UNK     1      20.388  -3.579  36.571  1.00  0.00     0.171 A 
HETATM    5  C11 UNK     1      19.018  -1.784  35.731  1.00  0.00     0.086 A 
ENDROOT
BRANCH   3   6
HETATM    6  C1  UNK     1      19.949  -2.013  33.430  1.00  0.00     0.070 A 
HETATM    7  C3  UNK     1      19.360  -0.904  32.952  1.00  0.00     0.034 A 
HETATM    8  C2  UNK     1      19.464  -0.529  31.552  1.00  0.00     0.000 A 
HETATM    9  C4  UNK     1      20.196  -1.340  30.695  1.00  0.00     0.089 A 
HETATM   10  C7  UNK     1      18.857   0.620  31.039  1.00  0.00     0.033 A 
HETATM   11  C10 UNK     1      20.340  -1.039  29.343  1.00  0.00     0.039 A 
HETATM   12  O1  UNK     1      20.819  -2.506  31.179  1.00  0.00    -0.274 OA
HETATM   13  C14 UNK     1      19.732   0.107  28.837  1.00  0.00     0.022 A 
HETATM   14  C12 UNK     1      18.991   0.935  29.684  1.00  0.00     0.011 A 
HETATM   15 Br1  UNK     1      18.172   2.494  28.994  1.00  0.00    -0.051 Br
HETATM   16  C6  UNK     1      20.723  -2.900  32.511  1.00  0.00     0.301 A 
HETATM   17  O3  UNK     1      21.255  -3.937  32.897  1.00  0.00    -0.259 OA
ENDBRANCH   3   6
BRANCH   4  18
HETATM   18  N1  UNK     1      20.991  -4.511  37.356  1.00  0.00    -0.333 N 
HETATM   19  H4  UNK     1      21.853  -4.242  37.823  1.00  0.00     0.168 HD
BRANCH  18  20
HETATM   20  C9  UNK     1      20.578  -5.827  37.690  1.00  0.00     0.067 A 
HETATM   21  C13 UNK     1      20.603  -6.837  36.734  1.00  0.00     0.094 A 
HETATM   22  C16 UNK     1      20.195  -8.126  37.076  1.00  0.00     0.039 A 
HETATM   23  C18 UNK     1      19.763  -8.398  38.374  1.00  0.00     0.003 A 
HETATM   24  C17 UNK     1      19.739  -7.382  39.329  1.00  0.00     0.002 A 
HETATM   25  C15 UNK     1      20.147  -6.093  38.986  1.00  0.00     0.032 A 
BRANCH  21  26
HETATM   26  O2  UNK     1      21.022  -6.591  35.460  1.00  0.00    -0.354 OA
HETATM   27  C19 UNK     1      20.182  -7.046  34.403  1.00  0.00     0.210 C 
ENDBRANCH  21  26
ENDBRANCH  18  20
ENDBRANCH   4  18
TORSDOF 4
ENDMDL
MODEL 7
REMARK VINA RESULT:      -8.7     23.283     24.984
REMARK  4 active torsions:
REMARK  status: ('A' for Active; 'I' for Inactive)
REMARK    1  A    between atoms: C13_20  and  O2_4 
REMARK    2  A    between atoms: C8_15  and  N1_6 
REMARK    3  A    between atoms: C9_16  and  N1_6 
REMARK    4  A    between atoms: C1_8  and  C5_12 
ROOT
HETATM    1  S1  UNK     1       9.663   6.334   5.816  1.00  0.00    -0.061 SA
HETATM    2  N2  UNK     1      10.384   6.453   8.296  1.00  0.00    -0.223 NA
HETATM    3  C5  UNK     1      11.520   6.528   7.520  1.00  0.00     0.082 A 
HETATM    4  C8  UNK     1       9.342   6.348   7.502  1.00  0.00     0.171 A 
HETATM    5  C11 UNK     1      11.337   6.482   6.158  1.00  0.00     0.086 A 
ENDROOT
BRANCH   3   6
HETATM    6  C1  UNK     1      12.803   6.649   8.167  1.00  0.00     0.070 A 
HETATM    7  C3  UNK     1      13.395   7.841   8.351  1.00  0.00     0.034 A 
HETATM    8  C2  UNK     1      14.685   7.958   9.008  1.00  0.00     0.000 A 
HETATM    9  C4  UNK     1      15.314   6.804   9.458  1.00  0.00     0.089 A 
HETATM   10  C7  UNK     1      15.315   9.189   9.206  1.00  0.00     0.033 A 
HETATM   11  C10 UNK     1      16.549   6.843  10.099  1.00  0.00     0.039 A 
HETATM   12  O1  UNK     1      14.708   5.547   9.273  1.00  0.00    -0.274 OA
HETATM   13  C14 UNK     1      17.172   8.074  10.293  1.00  0.00     0.022 A 
HETATM   14  C12 UNK     1      16.556   9.245   9.846  1.00  0.00     0.011 A 
HETATM   15 Br1  UNK     1      17.401  10.915  10.117  1.00  0.00    -0.051 Br
HETATM   16  C6  UNK     1      13.481   5.402   8.633  1.00  0.00     0.301 A 
HETATM   17  O3  UNK     1      12.992   4.289   8.462  1.00  0.00    -0.259 OA
ENDBRANCH   3   6
BRANCH   4  18
HETATM   18  N1  UNK     1       8.057   6.253   7.934  1.00  0.00    -0.333 N 
HETATM   19  H4  UNK     1       7.345   6.037   7.240  1.00  0.00     0.168 HD
BRANCH  18  20
HETATM   20  C9  UNK     1       7.526   6.354   9.246  1.00  0.00     0.067 A 
HETATM   21  C13 UNK     1       7.314   5.211  10.009  1.00  0.00     0.094 A 
HETATM   22  C16 UNK     1       6.791   5.324  11.297  1.00  0.00     0.039 A 
HETATM   23  C18 UNK     1       6.482   6.582  11.816  1.00  0.00     0.003 A 
HETATM   24  C17 UNK     1       6.697   7.725  11.047  1.00  0.00     0.002 A 
HETATM   25  C15 UNK     1       7.219   7.611   9.758  1.00  0.00     0.032 A 
BRANCH  21  26
HETATM   26  O2  UNK     1       7.609   3.973   9.520  1.00  0.00    -0.354 OA
HETATM   27  C19 UNK     1       6.543   3.028   9.462  1.00  0.00     0.210 C 
ENDBRANCH  21  26
ENDBRANCH  18  20
ENDBRANCH   4  18
TORSDOF 4
ENDMDL
MODEL 8
REMARK VINA RESULT:      -8.7      2.346      3.353
REMARK  4 active torsions:
REMARK  status: ('A' for Active; 'I' for Inactive)
REMARK    1  A    between atoms: C13_20  and  O2_4 
REMARK    2  A    between atoms: C8_15  and  N1_6 
REMARK    3  A    between atoms: C9_16  and  N1_6 
REMARK    4  A    between atoms: C1_8  and  C5_12 
ROOT
HETATM    1  S1  UNK     1      19.070   4.150  30.708  1.00  0.00    -0.061 SA
HETATM    2  N2  UNK     1      17.374   4.673  32.587  1.00  0.00    -0.223 NA
HETATM    3  C5  UNK     1      17.679   5.856  31.951  1.00  0.00     0.082 A 
HETATM    4  C8  UNK     1      18.051   3.703  32.013  1.00  0.00     0.171 A 
HETATM    5  C11 UNK     1      18.574   5.780  30.911  1.00  0.00     0.086 A 
ENDROOT
BRANCH   3   6
HETATM    6  C1  UNK     1      17.056   7.075  32.403  1.00  0.00     0.070 A 
HETATM    7  C3  UNK     1      17.770   8.082  32.934  1.00  0.00     0.034 A 
HETATM    8  C2  UNK     1      17.138   9.310  33.384  1.00  0.00     0.000 A 
HETATM    9  C4  UNK     1      15.762   9.440  33.254  1.00  0.00     0.089 A 
HETATM   10  C7  UNK     1      17.866  10.365  33.939  1.00  0.00     0.033 A 
HETATM   11  C10 UNK     1      15.091  10.591  33.661  1.00  0.00     0.039 A 
HETATM   12  O1  UNK     1      14.998   8.396  32.701  1.00  0.00    -0.274 OA
HETATM   13  C14 UNK     1      15.823  11.639  34.214  1.00  0.00     0.022 A 
HETATM   14  C12 UNK     1      17.208  11.526  34.354  1.00  0.00     0.011 A 
HETATM   15 Br1  UNK     1      18.198  12.955  35.100  1.00  0.00    -0.051 Br
HETATM   16  C6  UNK     1      15.573   7.201  32.277  1.00  0.00     0.301 A 
HETATM   17  O3  UNK     1      14.877   6.297  31.824  1.00  0.00    -0.259 OA
ENDBRANCH   3   6
BRANCH   4  18
HETATM   18  N1  UNK     1      17.988   2.399  32.390  1.00  0.00    -0.333 N 
HETATM   19  H4  UNK     1      17.781   1.712  31.668  1.00  0.00     0.168 HD
BRANCH  18  20
HETATM   20  C9  UNK     1      18.223   1.802  33.656  1.00  0.00     0.067 A 
HETATM   21  C13 UNK     1      18.272   0.418  33.783  1.00  0.00     0.094 A 
HETATM   22  C16 UNK     1      18.505  -0.155  35.034  1.00  0.00     0.039 A 
HETATM   23  C18 UNK     1      18.687   0.660  36.151  1.00  0.00     0.003 A 
HETATM   24  C17 UNK     1      18.637   2.047  36.018  1.00  0.00     0.002 A 
HETATM   25  C15 UNK     1      18.404   2.621  34.767  1.00  0.00     0.032 A 
BRANCH  21  26
HETATM   26  O2  UNK     1      18.097  -0.396  32.704  1.00  0.00    -0.354 OA
HETATM   27  C19 UNK     1      19.112  -1.364  32.451  1.00  0.00     0.210 C 
ENDBRANCH  21  26
ENDBRANCH  18  20
ENDBRANCH   4  18
TORSDOF 4
ENDMDL
MODEL 9
REMARK VINA RESULT:      -8.7     16.024     17.733
REMARK  4 active torsions:
REMARK  status: ('A' for Active; 'I' for Inactive)
REMARK    1  A    between atoms: C13_20  and  O2_4 
REMARK    2  A    between atoms: C8_15  and  N1_6 
REMARK    3  A    between atoms: C9_16  and  N1_6 
REMARK    4  A    between atoms: C1_8  and  C5_12 
ROOT
HETATM    1  S1  UNK     1      26.683  -9.242  39.465  1.00  0.00    -0.061 SA
HETATM    2  N2  UNK     1      26.736  -7.467  37.585  1.00  0.00    -0.223 NA
HETATM    3  C5  UNK     1      27.914  -7.370  38.292  1.00  0.00     0.082 A 
HETATM    4  C8  UNK     1      26.008  -8.424  38.115  1.00  0.00     0.171 A 
HETATM    5  C11 UNK     1      28.073  -8.243  39.342  1.00  0.00     0.086 A 
ENDROOT
BRANCH   3   6
HETATM    6  C1  UNK     1      28.888  -6.383  37.898  1.00  0.00     0.070 A 
HETATM    7  C3  UNK     1      29.946  -6.696  37.132  1.00  0.00     0.034 A 
HETATM    8  C2  UNK     1      30.921  -5.697  36.734  1.00  0.00     0.000 A 
HETATM    9  C4  UNK     1      30.746  -4.385  37.156  1.00  0.00     0.089 A 
HETATM   10  C7  UNK     1      32.028  -6.006  35.939  1.00  0.00     0.033 A 
HETATM   11  C10 UNK     1      31.640  -3.376  36.808  1.00  0.00     0.039 A 
HETATM   12  O1  UNK     1      29.644  -4.039  37.959  1.00  0.00    -0.274 OA
HETATM   13  C14 UNK     1      32.741  -3.692  36.015  1.00  0.00     0.022 A 
HETATM   14  C12 UNK     1      32.935  -5.005  35.582  1.00  0.00     0.011 A 
HETATM   15 Br1  UNK     1      34.428  -5.428  34.501  1.00  0.00    -0.051 Br
HETATM   16  C6  UNK     1      28.702  -4.978  38.371  1.00  0.00     0.301 A 
HETATM   17  O3  UNK     1      27.766  -4.650  39.095  1.00  0.00    -0.259 OA
ENDBRANCH   3   6
BRANCH   4  18
HETATM   18  N1  UNK     1      24.779  -8.791  37.664  1.00  0.00    -0.333 N 
HETATM   19  H4  UNK     1      24.739  -9.531  36.966  1.00  0.00     0.168 HD
BRANCH  18  20
HETATM   20  C9  UNK     1      23.491  -8.339  38.053  1.00  0.00     0.067 A 
HETATM   21  C13 UNK     1      22.369  -8.690  37.311  1.00  0.00     0.094 A 
HETATM   22  C16 UNK     1      21.109  -8.239  37.705  1.00  0.00     0.039 A 
HETATM   23  C18 UNK     1      20.979  -7.439  38.840  1.00  0.00     0.003 A 
HETATM   24  C17 UNK     1      22.108  -7.090  39.580  1.00  0.00     0.002 A 
HETATM   25  C15 UNK     1      23.368  -7.541  39.186  1.00  0.00     0.032 A 
BRANCH  21  26
HETATM   26  O2  UNK     1      22.475  -9.471  36.198  1.00  0.00    -0.354 OA
HETATM   27  C19 UNK     1      21.758 -10.703  36.201  1.00  0.00     0.210 C 
ENDBRANCH  21  26
ENDBRANCH  18  20
ENDBRANCH   4  18
TORSDOF 4
ENDMDL
MODEL 10
REMARK VINA RESULT:      -8.7      7.135     11.296
REMARK  4 active torsions:
REMARK  status: ('A' for Active; 'I' for Inactive)
REMARK    1  A    between atoms: C13_20  and  O2_4 
REMARK    2  A    between atoms: C8_15  and  N1_6 
REMARK    3  A    between atoms: C9_16  and  N1_6 
REMARK    4  A    between atoms: C1_8  and  C5_12 
ROOT
HETATM    1  S1  UNK     1      17.146  -0.214  34.909  1.00  0.00    -0.061 SA
HETATM    2  N2  UNK     1      19.290  -1.536  34.328  1.00  0.00    -0.223 NA
HETATM    3  C5  UNK     1      18.799  -2.027  35.518  1.00  0.00     0.082 A 
HETATM    4  C8  UNK     1      18.496  -0.574  33.913  1.00  0.00     0.171 A 
HETATM    5  C11 UNK     1      17.649  -1.444  35.994  1.00  0.00     0.086 A 
ENDROOT
BRANCH   3   6
HETATM    6  C1  UNK     1      19.503  -3.099  36.176  1.00  0.00     0.070 A 
HETATM    7  C3  UNK     1      18.928  -4.292  36.402  1.00  0.00     0.034 A 
HETATM    8  C2  UNK     1      19.643  -5.370  37.062  1.00  0.00     0.000 A 
HETATM    9  C4  UNK     1      20.956  -5.156  37.461  1.00  0.00     0.089 A 
HETATM   10  C7  UNK     1      19.060  -6.616  37.306  1.00  0.00     0.033 A 
HETATM   11  C10 UNK     1      21.702  -6.146  38.095  1.00  0.00     0.039 A 
HETATM   12  O1  UNK     1      21.574  -3.912  37.233  1.00  0.00    -0.274 OA
HETATM   13  C14 UNK     1      21.114  -7.386  38.336  1.00  0.00     0.022 A 
HETATM   14  C12 UNK     1      19.794  -7.620  37.943  1.00  0.00     0.011 A 
HETATM   15 Br1  UNK     1      19.001  -9.306  38.266  1.00  0.00    -0.051 Br
HETATM   16  C6  UNK     1      20.909  -2.855  36.618  1.00  0.00     0.301 A 
HETATM   17  O3  UNK     1      21.466  -1.773  36.458  1.00  0.00    -0.259 OA
ENDBRANCH   3   6
BRANCH   4  18
HETATM   18  N1  UNK     1      18.683   0.133  32.767  1.00  0.00    -0.333 N 
HETATM   19  H4  UNK     1      18.380   1.104  32.762  1.00  0.00     0.168 HD
BRANCH  18  20
HETATM   20  C9  UNK     1      19.302  -0.251  31.549  1.00  0.00     0.067 A 
HETATM   21  C13 UNK     1      19.449   0.667  30.515  1.00  0.00     0.094 A 
HETATM   22  C16 UNK     1      20.060   0.277  29.323  1.00  0.00     0.039 A 
HETATM   23  C18 UNK     1      20.518  -1.032  29.172  1.00  0.00     0.003 A 
HETATM   24  C17 UNK     1      20.368  -1.948  30.212  1.00  0.00     0.002 A 
HETATM   25  C15 UNK     1      19.758  -1.558  31.404  1.00  0.00     0.032 A 
BRANCH  21  26
HETATM   26  O2  UNK     1      19.007   1.950  30.643  1.00  0.00    -0.354 OA
HETATM   27  C19 UNK     1      18.314   2.511  29.532  1.00  0.00     0.210 C 
ENDBRANCH  21  26
ENDBRANCH  18  20
ENDBRANCH   4  18
TORSDOF 4
ENDMDL
