MODEL 1
REMARK VINA RESULT:      -9.6      0.000      0.000
REMARK  3 active torsions:
REMARK  status: ('A' for Active; 'I' for Inactive)
REMARK    1  A    between atoms: C22_28  and  O4_4 
REMARK    2  A    between atoms: C1_7  and  C8_14 
REMARK    3  A    between atoms: C6_12  and  C9_15 
ROOT
HETATM    1  O1  UNK     1      33.131 -10.312  34.192  1.00  0.00    -0.293 OA
HETATM    2  N1  UNK     1      28.947  -9.865  31.841  1.00  0.00    -0.357 N 
HETATM    3  N2  UNK     1      30.923  -7.626  32.180  1.00  0.00    -0.375 N 
HETATM    4  C1  UNK     1      31.401 -12.659  32.086  1.00  0.00     0.031 C 
HETATM    5  C2  UNK     1      30.015 -12.011  32.096  1.00  0.00     0.067 C 
HETATM    6  C3  UNK     1      31.091  -9.938  33.006  1.00  0.00     0.037 C 
HETATM    7  C4  UNK     1      32.130 -12.302  33.373  1.00  0.00     0.093 C 
HETATM    8  C5  UNK     1      30.062 -10.510  32.342  1.00  0.00     0.022 C 
HETATM    9  C6  UNK     1      31.182  -8.470  33.336  1.00  0.00     0.160 C 
HETATM   10  C7  UNK     1      32.202 -10.803  33.552  1.00  0.00     0.160 C 
HETATM   11  C10 UNK     1      28.742  -8.527  31.446  1.00  0.00     0.059 A 
HETATM   12  C11 UNK     1      29.697  -7.501  31.547  1.00  0.00     0.055 A 
HETATM   13  C16 UNK     1      27.491  -8.232  30.855  1.00  0.00     0.032 A 
HETATM   14  C17 UNK     1      29.380  -6.233  31.007  1.00  0.00     0.031 A 
HETATM   15  C23 UNK     1      27.194  -6.969  30.347  1.00  0.00     0.002 A 
HETATM   16  C24 UNK     1      28.147  -5.967  30.415  1.00  0.00     0.002 A 
HETATM   17  H7  UNK     1      28.176 -10.487  31.614  1.00  0.00     0.166 HD
HETATM   18  H8  UNK     1      31.585  -6.871  32.026  1.00  0.00     0.160 HD
ENDROOT
BRANCH   9  19
HETATM   19  C9  UNK     1      30.316  -8.073  34.494  1.00  0.00     0.042 A 
HETATM   20  C14 UNK     1      30.683  -6.862  35.272  1.00  0.00     0.195 A 
HETATM   21  O3  UNK     1      31.664  -6.184  34.995  1.00  0.00    -0.287 OA
HETATM   22  C18 UNK     1      29.798  -6.517  36.400  1.00  0.00     0.049 A 
HETATM   23  C21 UNK     1      28.694  -7.326  36.668  1.00  0.00     0.089 A 
HETATM   24  C25 UNK     1      30.059  -5.396  37.193  1.00  0.00     0.025 A 
HETATM   25  O2  UNK     1      28.390  -8.437  35.922  1.00  0.00    -0.321 OA
HETATM   26  C26 UNK     1      27.843  -7.018  37.731  1.00  0.00     0.039 A 
HETATM   27  C15 UNK     1      29.223  -8.746  34.875  1.00  0.00     0.156 A 
HETATM   28  C28 UNK     1      28.101  -5.899  38.523  1.00  0.00     0.009 A 
HETATM   29  C27 UNK     1      29.207  -5.091  38.255  1.00  0.00    -0.061 A 
HETATM   30  C29 UNK     1      29.478  -3.896  39.107  1.00  0.00     0.048 C 
ENDBRANCH   9  19
BRANCH   4  31
HETATM   31  C8  UNK     1      31.331 -14.158  31.863  1.00  0.00    -0.053 A 
HETATM   32  C12 UNK     1      31.118 -15.011  32.944  1.00  0.00     0.010 A 
HETATM   33  C19 UNK     1      31.055 -16.390  32.739  1.00  0.00     0.037 A 
HETATM   34  C22 UNK     1      31.204 -16.912  31.452  1.00  0.00     0.068 A 
HETATM   35  C20 UNK     1      31.417 -16.055  30.373  1.00  0.00     0.037 A 
HETATM   36  C13 UNK     1      31.481 -14.676  30.578  1.00  0.00     0.010 A 
BRANCH  34  37
HETATM   37  O4  UNK     1      31.140 -18.256  31.254  1.00  0.00    -0.356 OA
HETATM   38  C30 UNK     1      30.206 -18.725  30.283  1.00  0.00     0.210 C 
ENDBRANCH  34  37
ENDBRANCH   4  31
TORSDOF 3
ENDMDL
MODEL 2
REMARK VINA RESULT:      -9.5     32.925     34.777
REMARK  3 active torsions:
REMARK  status: ('A' for Active; 'I' for Inactive)
REMARK    1  A    between atoms: C22_28  and  O4_4 
REMARK    2  A    between atoms: C1_7  and  C8_14 
REMARK    3  A    between atoms: C6_12  and  C9_15 
ROOT
HETATM    1  O1  UNK     1      17.527   7.900  10.103  1.00  0.00    -0.293 OA
HETATM    2  N1  UNK     1      15.095  11.555   8.113  1.00  0.00    -0.357 N 
HETATM    3  N2  UNK     1      18.060  11.159   7.816  1.00  0.00    -0.375 N 
HETATM    4  C1  UNK     1      14.227   7.973   8.673  1.00  0.00     0.031 C 
HETATM    5  C2  UNK     1      13.997   9.487   8.685  1.00  0.00     0.067 C 
HETATM    6  C3  UNK     1      16.459   9.766   9.063  1.00  0.00     0.037 C 
HETATM    7  C4  UNK     1      15.193   7.606   9.790  1.00  0.00     0.093 C 
HETATM    8  C5  UNK     1      15.291  10.286   8.625  1.00  0.00     0.022 C 
HETATM    9  C6  UNK     1      17.769  10.514   9.087  1.00  0.00     0.160 C 
HETATM   10  C7  UNK     1      16.483   8.381   9.662  1.00  0.00     0.160 C 
HETATM   11  C10 UNK     1      15.981  12.453   7.483  1.00  0.00     0.059 A 
HETATM   12  C11 UNK     1      17.354  12.229   7.289  1.00  0.00     0.055 A 
HETATM   13  C16 UNK     1      15.408  13.638   6.964  1.00  0.00     0.032 A 
HETATM   14  C17 UNK     1      18.091  13.177   6.542  1.00  0.00     0.031 A 
HETATM   15  C23 UNK     1      16.159  14.568   6.247  1.00  0.00     0.002 A 
HETATM   16  C24 UNK     1      17.505  14.331   6.027  1.00  0.00     0.002 A 
HETATM   17  H7  UNK     1      14.122  11.845   8.086  1.00  0.00     0.166 HD
HETATM   18  H8  UNK     1      18.999  11.020   7.455  1.00  0.00     0.160 HD
ENDROOT
BRANCH   9  19
HETATM   19  C9  UNK     1      17.867  11.492  10.219  1.00  0.00     0.042 A 
HETATM   20  C14 UNK     1      19.213  11.959  10.638  1.00  0.00     0.195 A 
HETATM   21  O3  UNK     1      20.236  11.573  10.088  1.00  0.00    -0.287 OA
HETATM   22  C18 UNK     1      19.253  12.918  11.757  1.00  0.00     0.049 A 
HETATM   23  C21 UNK     1      18.055  13.325  12.346  1.00  0.00     0.089 A 
HETATM   24  C25 UNK     1      20.472  13.417  12.225  1.00  0.00     0.025 A 
HETATM   25  O2  UNK     1      16.830  12.868  11.926  1.00  0.00    -0.321 OA
HETATM   26  C26 UNK     1      18.069  14.233  13.405  1.00  0.00     0.039 A 
HETATM   27  C15 UNK     1      16.809  11.974  10.884  1.00  0.00     0.156 A 
HETATM   28  C28 UNK     1      19.285  14.732  13.873  1.00  0.00     0.009 A 
HETATM   29  C27 UNK     1      20.483  14.324  13.285  1.00  0.00    -0.061 A 
HETATM   30  C29 UNK     1      21.780  14.862  13.790  1.00  0.00     0.048 C 
ENDBRANCH   9  19
BRANCH   4  31
HETATM   31  C8  UNK     1      12.927   7.196   8.758  1.00  0.00    -0.053 A 
HETATM   32  C12 UNK     1      12.923   5.906   9.285  1.00  0.00     0.010 A 
HETATM   33  C19 UNK     1      11.728   5.191   9.361  1.00  0.00     0.037 A 
HETATM   34  C22 UNK     1      10.539   5.768   8.912  1.00  0.00     0.068 A 
HETATM   35  C20 UNK     1      10.547   7.059   8.386  1.00  0.00     0.037 A 
HETATM   36  C13 UNK     1      11.742   7.775   8.308  1.00  0.00     0.010 A 
BRANCH  34  37
HETATM   37  O4  UNK     1       9.374   5.070   8.989  1.00  0.00    -0.356 OA
HETATM   38  C30 UNK     1       8.203   5.703   8.474  1.00  0.00     0.210 C 
ENDBRANCH  34  37
ENDBRANCH   4  31
TORSDOF 3
ENDMDL
MODEL 3
REMARK VINA RESULT:      -8.9      1.153      1.349
REMARK  3 active torsions:
REMARK  status: ('A' for Active; 'I' for Inactive)
REMARK    1  A    between atoms: C22_28  and  O4_4 
REMARK    2  A    between atoms: C1_7  and  C8_14 
REMARK    3  A    between atoms: C6_12  and  C9_15 
ROOT
HETATM    1  O1  UNK     1      33.802 -10.239  33.187  1.00  0.00    -0.293 OA
HETATM    2  N1  UNK     1      29.350 -10.084  31.345  1.00  0.00    -0.357 N 
HETATM    3  N2  UNK     1      31.062  -7.654  31.792  1.00  0.00    -0.375 N 
HETATM    4  C1  UNK     1      32.141 -12.524  30.959  1.00  0.00     0.031 C 
HETATM    5  C2  UNK     1      30.696 -12.078  31.196  1.00  0.00     0.067 C 
HETATM    6  C3  UNK     1      31.607 -10.006  32.272  1.00  0.00     0.037 C 
HETATM    7  C4  UNK     1      32.965 -12.231  32.205  1.00  0.00     0.093 C 
HETATM    8  C5  UNK     1      30.586 -10.626  31.641  1.00  0.00     0.022 C 
HETATM    9  C6  UNK     1      31.555  -8.591  32.790  1.00  0.00     0.160 C 
HETATM   10  C7  UNK     1      32.871 -10.771  32.580  1.00  0.00     0.160 C 
HETATM   11  C10 UNK     1      28.938  -8.749  31.161  1.00  0.00     0.059 A 
HETATM   12  C11 UNK     1      29.764  -7.621  31.307  1.00  0.00     0.055 A 
HETATM   13  C16 UNK     1      27.600  -8.557  30.742  1.00  0.00     0.032 A 
HETATM   14  C17 UNK     1      29.233  -6.352  30.981  1.00  0.00     0.031 A 
HETATM   15  C23 UNK     1      27.093  -7.294  30.445  1.00  0.00     0.002 A 
HETATM   16  C24 UNK     1      27.917  -6.187  30.556  1.00  0.00     0.002 A 
HETATM   17  H7  UNK     1      28.640 -10.773  31.112  1.00  0.00     0.166 HD
HETATM   18  H8  UNK     1      31.604  -6.803  31.680  1.00  0.00     0.160 HD
ENDROOT
BRANCH   9  19
HETATM   19  C9  UNK     1      30.786  -8.462  34.071  1.00  0.00     0.042 A 
HETATM   20  C14 UNK     1      30.737  -7.137  34.739  1.00  0.00     0.195 A 
HETATM   21  O3  UNK     1      31.300  -6.154  34.275  1.00  0.00    -0.287 OA
HETATM   22  C18 UNK     1      29.969  -7.066  35.996  1.00  0.00     0.049 A 
HETATM   23  C21 UNK     1      29.347  -8.218  36.477  1.00  0.00     0.089 A 
HETATM   24  C25 UNK     1      29.863  -5.863  36.699  1.00  0.00     0.025 A 
HETATM   25  O2  UNK     1      29.418  -9.425  35.827  1.00  0.00    -0.321 OA
HETATM   26  C26 UNK     1      28.615  -8.174  37.664  1.00  0.00     0.039 A 
HETATM   27  C15 UNK     1      30.136  -9.476  34.658  1.00  0.00     0.156 A 
HETATM   28  C28 UNK     1      28.507  -6.975  38.367  1.00  0.00     0.009 A 
HETATM   29  C27 UNK     1      29.131  -5.823  37.887  1.00  0.00    -0.061 A 
HETATM   30  C29 UNK     1      29.012  -4.542  38.644  1.00  0.00     0.048 C 
ENDBRANCH   9  19
BRANCH   4  31
HETATM   31  C8  UNK     1      32.230 -13.979  30.540  1.00  0.00    -0.053 A 
HETATM   32  C12 UNK     1      33.469 -14.542  30.245  1.00  0.00     0.010 A 
HETATM   33  C19 UNK     1      33.550 -15.880  29.858  1.00  0.00     0.037 A 
HETATM   34  C22 UNK     1      32.391 -16.652  29.770  1.00  0.00     0.068 A 
HETATM   35  C20 UNK     1      31.152 -16.086  30.067  1.00  0.00     0.037 A 
HETATM   36  C13 UNK     1      31.070 -14.748  30.453  1.00  0.00     0.010 A 
BRANCH  34  37
HETATM   37  O4  UNK     1      32.472 -17.958  29.394  1.00  0.00    -0.356 OA
HETATM   38  C30 UNK     1      31.418 -18.821  29.817  1.00  0.00     0.210 C 
ENDBRANCH  34  37
ENDBRANCH   4  31
TORSDOF 3
ENDMDL
MODEL 4
REMARK VINA RESULT:      -8.8      4.398      7.163
REMARK  3 active torsions:
REMARK  status: ('A' for Active; 'I' for Inactive)
REMARK    1  A    between atoms: C22_28  and  O4_4 
REMARK    2  A    between atoms: C1_7  and  C8_14 
REMARK    3  A    between atoms: C6_12  and  C9_15 
ROOT
HETATM    1  O1  UNK     1      33.276 -12.294  31.014  1.00  0.00    -0.293 OA
HETATM    2  N1  UNK     1      34.004  -9.069  34.522  1.00  0.00    -0.357 N 
HETATM    3  N2  UNK     1      31.552 -10.796  34.318  1.00  0.00    -0.375 N 
HETATM    4  C1  UNK     1      36.311 -11.366  32.707  1.00  0.00     0.031 C 
HETATM    5  C2  UNK     1      35.849 -10.037  33.311  1.00  0.00     0.067 C 
HETATM    6  C3  UNK     1      33.494 -10.732  32.808  1.00  0.00     0.037 C 
HETATM    7  C4  UNK     1      35.518 -11.641  31.437  1.00  0.00     0.093 C 
HETATM    8  C5  UNK     1      34.345  -9.978  33.538  1.00  0.00     0.022 C 
HETATM    9  C6  UNK     1      31.992 -10.688  32.937  1.00  0.00     0.160 C 
HETATM   10  C7  UNK     1      34.033 -11.626  31.718  1.00  0.00     0.160 C 
HETATM   11  C10 UNK     1      32.868  -8.978  35.352  1.00  0.00     0.059 A 
HETATM   12  C11 UNK     1      31.755  -9.833  35.294  1.00  0.00     0.055 A 
HETATM   13  C16 UNK     1      32.900  -7.976  36.351  1.00  0.00     0.032 A 
HETATM   14  C17 UNK     1      30.740  -9.683  36.267  1.00  0.00     0.031 A 
HETATM   15  C23 UNK     1      31.879  -7.834  37.288  1.00  0.00     0.002 A 
HETATM   16  C24 UNK     1      30.798  -8.699  37.252  1.00  0.00     0.002 A 
HETATM   17  H7  UNK     1      34.748  -8.422  34.765  1.00  0.00     0.166 HD
HETATM   18  H8  UNK     1      30.803 -11.459  34.493  1.00  0.00     0.160 HD
ENDROOT
BRANCH   9  19
HETATM   19  C9  UNK     1      31.380  -9.491  32.271  1.00  0.00     0.042 A 
HETATM   20  C14 UNK     1      29.902  -9.424  32.153  1.00  0.00     0.195 A 
HETATM   21  O3  UNK     1      29.174 -10.311  32.581  1.00  0.00    -0.287 OA
HETATM   22  C18 UNK     1      29.352  -8.227  31.490  1.00  0.00     0.049 A 
HETATM   23  C21 UNK     1      30.229  -7.248  31.022  1.00  0.00     0.089 A 
HETATM   24  C25 UNK     1      27.973  -8.071  31.329  1.00  0.00     0.025 A 
HETATM   25  O2  UNK     1      31.592  -7.349  31.154  1.00  0.00    -0.321 OA
HETATM   26  C26 UNK     1      29.732  -6.106  30.392  1.00  0.00     0.039 A 
HETATM   27  C15 UNK     1      32.088  -8.470  31.772  1.00  0.00     0.156 A 
HETATM   28  C28 UNK     1      28.355  -5.949  30.232  1.00  0.00     0.009 A 
HETATM   29  C27 UNK     1      27.478  -6.929  30.698  1.00  0.00    -0.061 A 
HETATM   30  C29 UNK     1      26.006  -6.754  30.523  1.00  0.00     0.048 C 
ENDBRANCH   9  19
BRANCH   4  31
HETATM   31  C8  UNK     1      37.808 -11.396  32.466  1.00  0.00    -0.053 A 
HETATM   32  C12 UNK     1      38.661 -11.884  33.454  1.00  0.00     0.010 A 
HETATM   33  C19 UNK     1      40.038 -11.910  33.232  1.00  0.00     0.037 A 
HETATM   34  C22 UNK     1      40.559 -11.449  32.022  1.00  0.00     0.068 A 
HETATM   35  C20 UNK     1      39.703 -10.962  31.035  1.00  0.00     0.037 A 
HETATM   36  C13 UNK     1      38.325 -10.935  31.257  1.00  0.00     0.010 A 
BRANCH  34  37
HETATM   37  O4  UNK     1      41.902 -11.477  31.806  1.00  0.00    -0.356 OA
HETATM   38  C30 UNK     1      42.741 -11.077  32.889  1.00  0.00     0.210 C 
ENDBRANCH  34  37
ENDBRANCH   4  31
TORSDOF 3
ENDMDL
MODEL 5
REMARK VINA RESULT:      -8.7      4.401      5.455
REMARK  3 active torsions:
REMARK  status: ('A' for Active; 'I' for Inactive)
REMARK    1  A    between atoms: C22_28  and  O4_4 
REMARK    2  A    between atoms: C1_7  and  C8_14 
REMARK    3  A    between atoms: C6_12  and  C9_15 
ROOT
HETATM    1  O1  UNK     1      35.931  -6.925  35.253  1.00  0.00    -0.293 OA
HETATM    2  N1  UNK     1      32.720  -8.758  32.159  1.00  0.00    -0.357 N 
HETATM    3  N2  UNK     1      32.437  -6.066  33.465  1.00  0.00    -0.375 N 
HETATM    4  C1  UNK     1      36.440  -8.932  32.311  1.00  0.00     0.031 C 
HETATM    5  C2  UNK     1      35.020  -9.479  32.148  1.00  0.00     0.067 C 
HETATM    6  C3  UNK     1      34.251  -7.706  33.744  1.00  0.00     0.037 C 
HETATM    7  C4  UNK     1      36.692  -8.624  33.780  1.00  0.00     0.093 C 
HETATM    8  C5  UNK     1      33.958  -8.566  32.743  1.00  0.00     0.022 C 
HETATM    9  C6  UNK     1      33.244  -6.810  34.420  1.00  0.00     0.160 C 
HETATM   10  C7  UNK     1      35.647  -7.672  34.316  1.00  0.00     0.160 C 
HETATM   11  C10 UNK     1      31.598  -7.911  32.052  1.00  0.00     0.059 A 
HETATM   12  C11 UNK     1      31.501  -6.625  32.610  1.00  0.00     0.055 A 
HETATM   13  C16 UNK     1      30.521  -8.393  31.270  1.00  0.00     0.032 A 
HETATM   14  C17 UNK     1      30.352  -5.853  32.324  1.00  0.00     0.031 A 
HETATM   15  C23 UNK     1      29.390  -7.620  31.017  1.00  0.00     0.002 A 
HETATM   16  C24 UNK     1      29.309  -6.340  31.539  1.00  0.00     0.002 A 
HETATM   17  H7  UNK     1      32.645  -9.615  31.619  1.00  0.00     0.166 HD
HETATM   18  H8  UNK     1      32.336  -5.072  33.652  1.00  0.00     0.160 HD
ENDROOT
BRANCH   9  19
HETATM   19  C9  UNK     1      32.376  -7.538  35.402  1.00  0.00     0.042 A 
HETATM   20  C14 UNK     1      31.318  -6.776  36.114  1.00  0.00     0.195 A 
HETATM   21  O3  UNK     1      31.136  -5.581  35.922  1.00  0.00    -0.287 OA
HETATM   22  C18 UNK     1      30.495  -7.539  37.070  1.00  0.00     0.049 A 
HETATM   23  C21 UNK     1      30.747  -8.900  37.249  1.00  0.00     0.089 A 
HETATM   24  C25 UNK     1      29.474  -6.913  37.790  1.00  0.00     0.025 A 
HETATM   25  O2  UNK     1      31.736  -9.566  36.568  1.00  0.00    -0.321 OA
HETATM   26  C26 UNK     1      29.980  -9.642  38.147  1.00  0.00     0.039 A 
HETATM   27  C15 UNK     1      32.495  -8.842  35.682  1.00  0.00     0.156 A 
HETATM   28  C28 UNK     1      28.960  -9.018  38.866  1.00  0.00     0.009 A 
HETATM   29  C27 UNK     1      28.708  -7.657  38.688  1.00  0.00    -0.061 A 
HETATM   30  C29 UNK     1      27.615  -6.996  39.460  1.00  0.00     0.048 C 
ENDBRANCH   9  19
BRANCH   4  31
HETATM   31  C8  UNK     1      37.485  -9.869  31.734  1.00  0.00    -0.053 A 
HETATM   32  C12 UNK     1      38.544 -10.300  32.528  1.00  0.00     0.010 A 
HETATM   33  C19 UNK     1      39.506 -11.160  31.996  1.00  0.00     0.037 A 
HETATM   34  C22 UNK     1      39.403 -11.588  30.671  1.00  0.00     0.068 A 
HETATM   35  C20 UNK     1      38.341 -11.154  29.879  1.00  0.00     0.037 A 
HETATM   36  C13 UNK     1      37.380 -10.293  30.410  1.00  0.00     0.010 A 
BRANCH  34  37
HETATM   37  O4  UNK     1      40.340 -12.428  30.154  1.00  0.00    -0.356 OA
HETATM   38  C30 UNK     1      41.431 -12.784  31.002  1.00  0.00     0.210 C 
ENDBRANCH  34  37
ENDBRANCH   4  31
TORSDOF 3
ENDMDL
MODEL 6
REMARK VINA RESULT:      -8.6     32.564     34.993
REMARK  3 active torsions:
REMARK  status: ('A' for Active; 'I' for Inactive)
REMARK    1  A    between atoms: C22_28  and  O4_4 
REMARK    2  A    between atoms: C1_7  and  C8_14 
REMARK    3  A    between atoms: C6_12  and  C9_15 
ROOT
HETATM    1  O1  UNK     1      17.784   8.430   9.582  1.00  0.00    -0.293 OA
HETATM    2  N1  UNK     1      16.274  12.901   8.600  1.00  0.00    -0.357 N 
HETATM    3  N2  UNK     1      18.901  11.779   7.665  1.00  0.00    -0.375 N 
HETATM    4  C1  UNK     1      14.475   9.647   8.866  1.00  0.00     0.031 C 
HETATM    5  C2  UNK     1      14.712  11.139   9.115  1.00  0.00     0.067 C 
HETATM    6  C3  UNK     1      17.173  10.671   9.023  1.00  0.00     0.037 C 
HETATM    7  C4  UNK     1      15.450   8.839   9.711  1.00  0.00     0.093 C 
HETATM    8  C5  UNK     1      16.159  11.557   8.897  1.00  0.00     0.022 C 
HETATM    9  C6  UNK     1      18.633  11.020   8.877  1.00  0.00     0.160 C 
HETATM   10  C7  UNK     1      16.876   9.247   9.425  1.00  0.00     0.160 C 
HETATM   11  C10 UNK     1      17.277  13.624   7.923  1.00  0.00     0.059 A 
HETATM   12  C11 UNK     1      18.474  13.076   7.430  1.00  0.00     0.055 A 
HETATM   13  C16 UNK     1      17.011  14.993   7.684  1.00  0.00     0.032 A 
HETATM   14  C17 UNK     1      19.333  13.907   6.676  1.00  0.00     0.031 A 
HETATM   15  C23 UNK     1      17.883  15.798   6.954  1.00  0.00     0.002 A 
HETATM   16  C24 UNK     1      19.045  15.249   6.439  1.00  0.00     0.002 A 
HETATM   17  H7  UNK     1      15.440  13.444   8.806  1.00  0.00     0.166 HD
HETATM   18  H8  UNK     1      19.688  11.459   7.108  1.00  0.00     0.160 HD
ENDROOT
BRANCH   9  19
HETATM   19  C9  UNK     1      19.194  11.716  10.081  1.00  0.00     0.042 A 
HETATM   20  C14 UNK     1      20.661  11.931  10.156  1.00  0.00     0.195 A 
HETATM   21  O3  UNK     1      21.419  11.560   9.269  1.00  0.00    -0.287 OA
HETATM   22  C18 UNK     1      21.160  12.619  11.360  1.00  0.00     0.049 A 
HETATM   23  C21 UNK     1      20.251  13.020  12.339  1.00  0.00     0.089 A 
HETATM   24  C25 UNK     1      22.526  12.867  11.525  1.00  0.00     0.025 A 
HETATM   25  O2  UNK     1      18.900  12.802  12.229  1.00  0.00    -0.321 OA
HETATM   26  C26 UNK     1      20.701  13.673  13.487  1.00  0.00     0.039 A 
HETATM   27  C15 UNK     1      18.450  12.160  11.102  1.00  0.00     0.156 A 
HETATM   28  C28 UNK     1      22.063  13.923  13.653  1.00  0.00     0.009 A 
HETATM   29  C27 UNK     1      22.973  13.520  12.675  1.00  0.00    -0.061 A 
HETATM   30  C29 UNK     1      24.429  13.790  12.858  1.00  0.00     0.048 C 
ENDBRANCH   9  19
BRANCH   4  31
HETATM   31  C8  UNK     1      13.033   9.247   9.112  1.00  0.00    -0.053 A 
HETATM   32  C12 UNK     1      12.253   9.976  10.006  1.00  0.00     0.010 A 
HETATM   33  C19 UNK     1      10.927   9.607  10.234  1.00  0.00     0.037 A 
HETATM   34  C22 UNK     1      10.384   8.509   9.564  1.00  0.00     0.068 A 
HETATM   35  C20 UNK     1      11.168   7.781   8.669  1.00  0.00     0.037 A 
HETATM   36  C13 UNK     1      12.494   8.150   8.442  1.00  0.00     0.010 A 
BRANCH  34  37
HETATM   37  O4  UNK     1       9.090   8.151   9.785  1.00  0.00    -0.356 OA
HETATM   38  C30 UNK     1       8.433   7.421   8.750  1.00  0.00     0.210 C 
ENDBRANCH  34  37
ENDBRANCH   4  31
TORSDOF 3
ENDMDL
MODEL 7
REMARK VINA RESULT:      -8.6      3.963      5.286
REMARK  3 active torsions:
REMARK  status: ('A' for Active; 'I' for Inactive)
REMARK    1  A    between atoms: C22_28  and  O4_4 
REMARK    2  A    between atoms: C1_7  and  C8_14 
REMARK    3  A    between atoms: C6_12  and  C9_15 
ROOT
HETATM    1  O1  UNK     1      34.800  -6.395  34.814  1.00  0.00    -0.293 OA
HETATM    2  N1  UNK     1      31.992  -9.300  32.184  1.00  0.00    -0.357 N 
HETATM    3  N2  UNK     1      31.214  -6.516  33.007  1.00  0.00    -0.375 N 
HETATM    4  C1  UNK     1      35.680  -8.765  32.255  1.00  0.00     0.031 C 
HETATM    5  C2  UNK     1      34.385  -9.582  32.232  1.00  0.00     0.067 C 
HETATM    6  C3  UNK     1      33.298  -7.723  33.514  1.00  0.00     0.037 C 
HETATM    7  C4  UNK     1      35.866  -8.161  33.639  1.00  0.00     0.093 C 
HETATM    8  C5  UNK     1      33.171  -8.785  32.688  1.00  0.00     0.022 C 
HETATM    9  C6  UNK     1      32.141  -6.919  34.053  1.00  0.00     0.160 C 
HETATM   10  C7  UNK     1      34.662  -7.335  34.031  1.00  0.00     0.160 C 
HETATM   11  C10 UNK     1      30.734  -8.704  31.963  1.00  0.00     0.059 A 
HETATM   12  C11 UNK     1      30.400  -7.379  32.291  1.00  0.00     0.055 A 
HETATM   13  C16 UNK     1      29.767  -9.504  31.309  1.00  0.00     0.032 A 
HETATM   14  C17 UNK     1      29.129  -6.892  31.907  1.00  0.00     0.031 A 
HETATM   15  C23 UNK     1      28.514  -9.007  30.958  1.00  0.00     0.002 A 
HETATM   16  C24 UNK     1      28.197  -7.691  31.250  1.00  0.00     0.002 A 
HETATM   17  H7  UNK     1      32.078 -10.239  31.805  1.00  0.00     0.166 HD
HETATM   18  H8  UNK     1      30.931  -5.540  33.020  1.00  0.00     0.160 HD
ENDROOT
BRANCH   9  19
HETATM   19  C9  UNK     1      31.418  -7.607  35.172  1.00  0.00     0.042 A 
HETATM   20  C14 UNK     1      30.216  -6.953  35.748  1.00  0.00     0.195 A 
HETATM   21  O3  UNK     1      29.801  -5.877  35.336  1.00  0.00    -0.287 OA
HETATM   22  C18 UNK     1      29.544  -7.670  36.847  1.00  0.00     0.049 A 
HETATM   23  C21 UNK     1      30.061  -8.893  37.275  1.00  0.00     0.089 A 
HETATM   24  C25 UNK     1      28.405  -7.137  37.456  1.00  0.00     0.025 A 
HETATM   25  O2  UNK     1      31.177  -9.464  36.714  1.00  0.00    -0.321 OA
HETATM   26  C26 UNK     1      29.442  -9.590  38.313  1.00  0.00     0.039 A 
HETATM   27  C15 UNK     1      31.791  -8.784  35.692  1.00  0.00     0.156 A 
HETATM   28  C28 UNK     1      28.304  -9.060  38.921  1.00  0.00     0.009 A 
HETATM   29  C27 UNK     1      27.788  -7.836  38.494  1.00  0.00    -0.061 A 
HETATM   30  C29 UNK     1      26.570  -7.273  39.148  1.00  0.00     0.048 C 
ENDBRANCH   9  19
BRANCH   4  31
HETATM   31  C8  UNK     1      36.881  -9.584  31.820  1.00  0.00    -0.053 A 
HETATM   32  C12 UNK     1      36.963 -10.056  30.513  1.00  0.00     0.010 A 
HETATM   33  C19 UNK     1      38.067 -10.810  30.114  1.00  0.00     0.037 A 
HETATM   34  C22 UNK     1      39.088 -11.088  31.025  1.00  0.00     0.068 A 
HETATM   35  C20 UNK     1      39.003 -10.613  32.333  1.00  0.00     0.037 A 
HETATM   36  C13 UNK     1      37.899  -9.860  32.732  1.00  0.00     0.010 A 
BRANCH  34  37
HETATM   37  O4  UNK     1      40.165 -11.822  30.634  1.00  0.00    -0.356 OA
HETATM   38  C30 UNK     1      40.378 -11.966  29.231  1.00  0.00     0.210 C 
ENDBRANCH  34  37
ENDBRANCH   4  31
TORSDOF 3
ENDMDL
MODEL 8
REMARK VINA RESULT:      -8.6      5.020      7.618
REMARK  3 active torsions:
REMARK  status: ('A' for Active; 'I' for Inactive)
REMARK    1  A    between atoms: C22_28  and  O4_4 
REMARK    2  A    between atoms: C1_7  and  C8_14 
REMARK    3  A    between atoms: C6_12  and  C9_15 
ROOT
HETATM    1  O1  UNK     1      34.072 -12.224  33.068  1.00  0.00    -0.293 OA
HETATM    2  N1  UNK     1      35.572  -7.682  33.668  1.00  0.00    -0.357 N 
HETATM    3  N2  UNK     1      33.103  -8.813  34.955  1.00  0.00    -0.375 N 
HETATM    4  C1  UNK     1      37.410 -10.907  33.333  1.00  0.00     0.031 C 
HETATM    5  C2  UNK     1      37.107  -9.434  33.048  1.00  0.00     0.067 C 
HETATM    6  C3  UNK     1      34.687  -9.947  33.453  1.00  0.00     0.037 C 
HETATM    7  C4  UNK     1      36.364 -11.774  32.646  1.00  0.00     0.093 C 
HETATM    8  C5  UNK     1      35.685  -9.036  33.418  1.00  0.00     0.022 C 
HETATM    9  C6  UNK     1      33.246  -9.622  33.755  1.00  0.00     0.160 C 
HETATM   10  C7  UNK     1      34.971 -11.382  33.081  1.00  0.00     0.160 C 
HETATM   11  C10 UNK     1      34.637  -6.949  34.426  1.00  0.00     0.059 A 
HETATM   12  C11 UNK     1      33.521  -7.497  35.081  1.00  0.00     0.055 A 
HETATM   13  C16 UNK     1      34.894  -5.565  34.571  1.00  0.00     0.032 A 
HETATM   14  C17 UNK     1      32.735  -6.649  35.894  1.00  0.00     0.031 A 
HETATM   15  C23 UNK     1      34.093  -4.744  35.364  1.00  0.00     0.002 A 
HETATM   16  C24 UNK     1      33.014  -5.292  36.036  1.00  0.00     0.002 A 
HETATM   17  H7  UNK     1      36.362  -7.132  33.340  1.00  0.00     0.166 HD
HETATM   18  H8  UNK     1      32.395  -9.122  35.615  1.00  0.00     0.160 HD
ENDROOT
BRANCH   9  19
HETATM   19  C9  UNK     1      32.530  -8.994  32.597  1.00  0.00     0.042 A 
HETATM   20  C14 UNK     1      31.072  -8.740  32.718  1.00  0.00     0.195 A 
HETATM   21  O3  UNK     1      30.444  -9.024  33.730  1.00  0.00    -0.287 OA
HETATM   22  C18 UNK     1      30.416  -8.123  31.551  1.00  0.00     0.049 A 
HETATM   23  C21 UNK     1      31.181  -7.819  30.425  1.00  0.00     0.089 A 
HETATM   24  C25 UNK     1      29.047  -7.844  31.567  1.00  0.00     0.025 A 
HETATM   25  O2  UNK     1      32.529  -8.070  30.355  1.00  0.00    -0.321 OA
HETATM   26  C26 UNK     1      30.582  -7.234  29.308  1.00  0.00     0.039 A 
HETATM   27  C15 UNK     1      33.125  -8.646  31.449  1.00  0.00     0.156 A 
HETATM   28  C28 UNK     1      29.216  -6.954  29.323  1.00  0.00     0.009 A 
HETATM   29  C27 UNK     1      28.450  -7.259  30.449  1.00  0.00    -0.061 A 
HETATM   30  C29 UNK     1      26.988  -6.958  30.458  1.00  0.00     0.048 C 
ENDBRANCH   9  19
BRANCH   4  31
HETATM   31  C8  UNK     1      38.823 -11.289  32.936  1.00  0.00    -0.053 A 
HETATM   32  C12 UNK     1      39.530 -12.219  33.693  1.00  0.00     0.010 A 
HETATM   33  C19 UNK     1      40.831 -12.568  33.328  1.00  0.00     0.037 A 
HETATM   34  C22 UNK     1      41.420 -11.987  32.204  1.00  0.00     0.068 A 
HETATM   35  C20 UNK     1      40.709 -11.056  31.448  1.00  0.00     0.037 A 
HETATM   36  C13 UNK     1      39.409 -10.706  31.813  1.00  0.00     0.010 A 
BRANCH  34  37
HETATM   37  O4  UNK     1      42.687 -12.330  31.848  1.00  0.00    -0.356 OA
HETATM   38  C30 UNK     1      43.744 -11.879  32.695  1.00  0.00     0.210 C 
ENDBRANCH  34  37
ENDBRANCH   4  31
TORSDOF 3
ENDMDL
MODEL 9
REMARK VINA RESULT:      -8.5     32.597     36.157
REMARK  3 active torsions:
REMARK  status: ('A' for Active; 'I' for Inactive)
REMARK    1  A    between atoms: C22_28  and  O4_4 
REMARK    2  A    between atoms: C1_7  and  C8_14 
REMARK    3  A    between atoms: C6_12  and  C9_15 
ROOT
HETATM    1  O1  UNK     1      15.216  13.431   8.644  1.00  0.00    -0.293 OA
HETATM    2  N1  UNK     1      19.530  11.403   9.361  1.00  0.00    -0.357 N 
HETATM    3  N2  UNK     1      18.849  14.218  10.167  1.00  0.00    -0.375 N 
HETATM    4  C1  UNK     1      16.062  10.048   9.526  1.00  0.00     0.031 C 
HETATM    5  C2  UNK     1      17.541  10.062   9.130  1.00  0.00     0.067 C 
HETATM    6  C3  UNK     1      17.404  12.564   9.058  1.00  0.00     0.037 C 
HETATM    7  C4  UNK     1      15.308  11.060   8.676  1.00  0.00     0.093 C 
HETATM    8  C5  UNK     1      18.160  11.451   9.191  1.00  0.00     0.022 C 
HETATM    9  C6  UNK     1      17.949  13.970   9.052  1.00  0.00     0.160 C 
HETATM   10  C7  UNK     1      15.921  12.435   8.806  1.00  0.00     0.160 C 
HETATM   11  C10 UNK     1      20.438  12.345   9.888  1.00  0.00     0.059 A 
HETATM   12  C11 UNK     1      20.097  13.637  10.325  1.00  0.00     0.055 A 
HETATM   13  C16 UNK     1      21.778  11.914  10.029  1.00  0.00     0.032 A 
HETATM   14  C17 UNK     1      21.101  14.428  10.931  1.00  0.00     0.031 A 
HETATM   15  C23 UNK     1      22.754  12.719  10.613  1.00  0.00     0.002 A 
HETATM   16  C24 UNK     1      22.412  13.978  11.074  1.00  0.00     0.002 A 
HETATM   17  H7  UNK     1      19.939  10.491   9.179  1.00  0.00     0.166 HD
HETATM   18  H8  UNK     1      18.688  15.079  10.682  1.00  0.00     0.160 HD
ENDROOT
BRANCH   9  19
HETATM   19  C9  UNK     1      18.593  14.344   7.750  1.00  0.00     0.042 A 
HETATM   20  C14 UNK     1      19.120  15.724   7.591  1.00  0.00     0.195 A 
HETATM   21  O3  UNK     1      19.047  16.555   8.486  1.00  0.00    -0.287 OA
HETATM   22  C18 UNK     1      19.741  16.040   6.292  1.00  0.00     0.049 A 
HETATM   23  C21 UNK     1      19.798  15.052   5.308  1.00  0.00     0.089 A 
HETATM   24  C25 UNK     1      20.267  17.311   6.044  1.00  0.00     0.025 A 
HETATM   25  O2  UNK     1      19.298  13.788   5.498  1.00  0.00    -0.321 OA
HETATM   26  C26 UNK     1      20.382  15.329   4.072  1.00  0.00     0.039 A 
HETATM   27  C15 UNK     1      18.722  13.508   6.712  1.00  0.00     0.156 A 
HETATM   28  C28 UNK     1      20.908  16.597   3.823  1.00  0.00     0.009 A 
HETATM   29  C27 UNK     1      20.850  17.585   4.806  1.00  0.00    -0.061 A 
HETATM   30  C29 UNK     1      21.415  18.940   4.534  1.00  0.00     0.048 C 
ENDBRANCH   9  19
BRANCH   4  31
HETATM   31  C8  UNK     1      15.459   8.659   9.436  1.00  0.00    -0.053 A 
HETATM   32  C12 UNK     1      14.292   8.455   8.703  1.00  0.00     0.010 A 
HETATM   33  C19 UNK     1      13.737   7.178   8.622  1.00  0.00     0.037 A 
HETATM   34  C22 UNK     1      14.351   6.107   9.273  1.00  0.00     0.068 A 
HETATM   35  C20 UNK     1      15.519   6.315  10.006  1.00  0.00     0.037 A 
HETATM   36  C13 UNK     1      16.075   7.592  10.088  1.00  0.00     0.010 A 
BRANCH  34  37
HETATM   37  O4  UNK     1      13.810   4.861   9.192  1.00  0.00    -0.356 OA
HETATM   38  C30 UNK     1      12.656   4.708   8.367  1.00  0.00     0.210 C 
ENDBRANCH  34  37
ENDBRANCH   4  31
TORSDOF 3
ENDMDL
MODEL 10
REMARK VINA RESULT:      -8.5     31.280     34.672
REMARK  3 active torsions:
REMARK  status: ('A' for Active; 'I' for Inactive)
REMARK    1  A    between atoms: C22_28  and  O4_4 
REMARK    2  A    between atoms: C1_7  and  C8_14 
REMARK    3  A    between atoms: C6_12  and  C9_15 
ROOT
HETATM    1  O1  UNK     1      19.093  12.923  13.251  1.00  0.00    -0.293 OA
HETATM    2  N1  UNK     1      19.775  13.090   8.482  1.00  0.00    -0.357 N 
HETATM    3  N2  UNK     1      17.325  14.154   9.861  1.00  0.00    -0.375 N 
HETATM    4  C1  UNK     1      22.105  13.479  11.365  1.00  0.00     0.031 C 
HETATM    5  C2  UNK     1      21.636  12.950  10.007  1.00  0.00     0.067 C 
HETATM    6  C3  UNK     1      19.287  13.069  10.874  1.00  0.00     0.037 C 
HETATM    7  C4  UNK     1      21.329  12.777  12.470  1.00  0.00     0.093 C 
HETATM    8  C5  UNK     1      20.129  13.051   9.817  1.00  0.00     0.022 C 
HETATM    9  C6  UNK     1      17.784  13.113  10.766  1.00  0.00     0.160 C 
HETATM   10  C7  UNK     1      19.841  12.948  12.273  1.00  0.00     0.160 C 
HETATM   11  C10 UNK     1      18.628  13.596   7.836  1.00  0.00     0.059 A 
HETATM   12  C11 UNK     1      17.515  14.153   8.488  1.00  0.00     0.055 A 
HETATM   13  C16 UNK     1      18.647  13.581   6.421  1.00  0.00     0.032 A 
HETATM   14  C17 UNK     1      16.487  14.718   7.698  1.00  0.00     0.031 A 
HETATM   15  C23 UNK     1      17.613  14.127   5.664  1.00  0.00     0.002 A 
HETATM   16  C24 UNK     1      16.532  14.707   6.306  1.00  0.00     0.002 A 
HETATM   17  H7  UNK     1      20.516  12.806   7.848  1.00  0.00     0.166 HD
HETATM   18  H8  UNK     1      16.573  14.742  10.208  1.00  0.00     0.160 HD
ENDROOT
BRANCH   9  19
HETATM   19  C9  UNK     1      17.182  11.787  10.407  1.00  0.00     0.042 A 
HETATM   20  C14 UNK     1      15.703  11.677  10.331  1.00  0.00     0.195 A 
HETATM   21  O3  UNK     1      14.968  12.630  10.550  1.00  0.00    -0.287 OA
HETATM   22  C18 UNK     1      15.164  10.351   9.975  1.00  0.00     0.049 A 
HETATM   23  C21 UNK     1      16.049   9.300   9.736  1.00  0.00     0.089 A 
HETATM   24  C25 UNK     1      13.785  10.145   9.879  1.00  0.00     0.025 A 
HETATM   25  O2  UNK     1      17.412   9.446   9.816  1.00  0.00    -0.321 OA
HETATM   26  C26 UNK     1      15.561   8.037   9.397  1.00  0.00     0.039 A 
HETATM   27  C15 UNK     1      17.899  10.686  10.148  1.00  0.00     0.156 A 
HETATM   28  C28 UNK     1      14.185   7.830   9.299  1.00  0.00     0.009 A 
HETATM   29  C27 UNK     1      13.300   8.881   9.541  1.00  0.00    -0.061 A 
HETATM   30  C29 UNK     1      11.829   8.653   9.435  1.00  0.00     0.048 C 
ENDBRANCH   9  19
BRANCH   4  31
HETATM   31  C8  UNK     1      23.606  13.346  11.543  1.00  0.00    -0.053 A 
HETATM   32  C12 UNK     1      24.372  12.735  10.554  1.00  0.00     0.010 A 
HETATM   33  C19 UNK     1      25.751  12.612  10.720  1.00  0.00     0.037 A 
HETATM   34  C22 UNK     1      26.362  13.103  11.875  1.00  0.00     0.068 A 
HETATM   35  C20 UNK     1      25.592  13.715  12.863  1.00  0.00     0.037 A 
HETATM   36  C13 UNK     1      24.212  13.837  12.698  1.00  0.00     0.010 A 
BRANCH  34  37
HETATM   37  O4  UNK     1      27.708  12.984  12.034  1.00  0.00    -0.356 OA
HETATM   38  C30 UNK     1      28.249  11.664  12.023  1.00  0.00     0.210 C 
ENDBRANCH  34  37
ENDBRANCH   4  31
TORSDOF 3
ENDMDL
