MODEL 1
REMARK VINA RESULT:      -9.4      0.000      0.000
REMARK  4 active torsions:
REMARK  status: ('A' for Active; 'I' for Inactive)
REMARK    1  A    between atoms: C18_22  and  O2_2 
REMARK    2  A    between atoms: C4_8  and  N1_4 
REMARK    3  A    between atoms: C4_8  and  C7_11 
REMARK    4  A    between atoms: C5_9  and  C8_12 
ROOT
HETATM    1  O1  UNK     1      14.359   8.776  32.800  1.00  0.00    -0.275 OA
HETATM    2  O3  UNK     1      13.375   6.888  31.967  1.00  0.00    -0.260 OA
HETATM    3  C7  UNK     1      16.803   7.354  32.867  1.00  0.00    -0.011 A 
HETATM    4  C9  UNK     1      16.747   8.752  33.313  1.00  0.00     0.006 A 
HETATM    5  C10 UNK     1      15.681   6.766  32.430  1.00  0.00     0.092 A 
HETATM    6  C11 UNK     1      15.523   9.421  33.266  1.00  0.00     0.093 A 
HETATM    7  C12 UNK     1      17.858   9.463  33.787  1.00  0.00     0.017 A 
HETATM    8  C15 UNK     1      14.382   7.458  32.373  1.00  0.00     0.288 A 
HETATM    9  C16 UNK     1      15.382  10.749  33.670  1.00  0.00     0.075 A 
HETATM   10  C17 UNK     1      17.733  10.795  34.197  1.00  0.00     0.038 A 
HETATM   11  C18 UNK     1      16.497  11.437  34.138  1.00  0.00     0.070 A 
ENDROOT
BRANCH   3  12
HETATM   12  C4  UNK     1      18.105   6.607  32.906  1.00  0.00     0.312 C 
BRANCH  12  13
HETATM   13  N1  UNK     1      18.085   5.439  32.029  1.00  0.00     0.096 N 
HETATM   14  C1  UNK     1      19.194   5.480  31.070  1.00  0.00     0.277 C 
HETATM   15  C2  UNK     1      19.050   4.333  30.058  1.00  0.00     0.069 C 
HETATM   16  C5  UNK     1      18.772   2.998  30.714  1.00  0.00    -0.048 C 
HETATM   17  C6  UNK     1      18.346   2.956  31.990  1.00  0.00     0.011 C 
HETATM   18  C3  UNK     1      18.123   4.196  32.814  1.00  0.00     0.300 C 
BRANCH  16  19
HETATM   19  C8  UNK     1      18.976   1.766  29.914  1.00  0.00    -0.030 A 
HETATM   20  C13 UNK     1      18.221   1.548  28.758  1.00  0.00     0.012 A 
HETATM   21  C19 UNK     1      18.413   0.390  28.006  1.00  0.00     0.001 A 
HETATM   22  C21 UNK     1      19.358  -0.554  28.406  1.00  0.00     0.000 A 
HETATM   23  C20 UNK     1      20.113  -0.339  29.559  1.00  0.00     0.001 A 
HETATM   24  C14 UNK     1      19.922   0.819  30.312  1.00  0.00     0.012 A 
ENDBRANCH  16  19
ENDBRANCH  12  13
ENDBRANCH   3  12
BRANCH  11  25
HETATM   25  O2  UNK     1      16.382  12.733  34.538  1.00  0.00    -0.356 OA
HETATM   26  C22 UNK     1      17.593  13.443  34.799  1.00  0.00     0.210 C 
ENDBRANCH  11  25
TORSDOF 4
ENDMDL
MODEL 2
REMARK VINA RESULT:      -9.1      8.742     12.108
REMARK  4 active torsions:
REMARK  status: ('A' for Active; 'I' for Inactive)
REMARK    1  A    between atoms: C18_22  and  O2_2 
REMARK    2  A    between atoms: C4_8  and  N1_4 
REMARK    3  A    between atoms: C4_8  and  C7_11 
REMARK    4  A    between atoms: C5_9  and  C8_12 
ROOT
HETATM    1  O1  UNK     1      17.562  -0.705  33.769  1.00  0.00    -0.275 OA
HETATM    2  O3  UNK     1      16.352  -0.263  35.658  1.00  0.00    -0.260 OA
HETATM    3  C7  UNK     1      19.504  -1.933  35.420  1.00  0.00    -0.011 A 
HETATM    4  C9  UNK     1      19.698  -1.875  33.966  1.00  0.00     0.006 A 
HETATM    5  C10 UNK     1      18.396  -1.395  35.950  1.00  0.00     0.092 A 
HETATM    6  C11 UNK     1      18.718  -1.262  33.184  1.00  0.00     0.093 A 
HETATM    7  C12 UNK     1      20.817  -2.405  33.308  1.00  0.00     0.017 A 
HETATM    8  C15 UNK     1      17.353  -0.745  35.139  1.00  0.00     0.288 A 
HETATM    9  C16 UNK     1      18.824  -1.166  31.796  1.00  0.00     0.075 A 
HETATM   10  C17 UNK     1      20.937  -2.315  31.917  1.00  0.00     0.038 A 
HETATM   11  C18 UNK     1      19.942  -1.697  31.162  1.00  0.00     0.070 A 
ENDROOT
BRANCH   3  12
HETATM   12  C4  UNK     1      20.541  -2.585  36.289  1.00  0.00     0.312 C 
BRANCH  12  13
HETATM   13  N1  UNK     1      20.100  -3.894  36.766  1.00  0.00     0.096 N 
HETATM   14  C1  UNK     1      20.005  -4.854  35.662  1.00  0.00     0.277 C 
HETATM   15  C2  UNK     1      19.383  -6.165  36.163  1.00  0.00     0.069 C 
HETATM   16  C5  UNK     1      20.014  -6.668  37.443  1.00  0.00    -0.048 C 
HETATM   17  C6  UNK     1      20.760  -5.834  38.192  1.00  0.00     0.011 C 
HETATM   18  C3  UNK     1      20.999  -4.397  37.816  1.00  0.00     0.300 C 
BRANCH  16  19
HETATM   19  C8  UNK     1      19.780  -8.078  37.836  1.00  0.00    -0.030 A 
HETATM   20  C13 UNK     1      19.328  -9.003  36.891  1.00  0.00     0.012 A 
HETATM   21  C19 UNK     1      19.108 -10.330  37.260  1.00  0.00     0.001 A 
HETATM   22  C21 UNK     1      19.338 -10.736  38.574  1.00  0.00     0.000 A 
HETATM   23  C20 UNK     1      19.789  -9.815  39.519  1.00  0.00     0.001 A 
HETATM   24  C14 UNK     1      20.010  -8.488  39.151  1.00  0.00     0.012 A 
ENDBRANCH  16  19
ENDBRANCH  12  13
ENDBRANCH   3  12
BRANCH  11  25
HETATM   25  O2  UNK     1      20.065  -1.613  29.810  1.00  0.00    -0.356 OA
HETATM   26  C22 UNK     1      20.483  -0.359  29.271  1.00  0.00     0.210 C 
ENDBRANCH  11  25
TORSDOF 4
ENDMDL
MODEL 3
REMARK VINA RESULT:      -8.5     22.680     25.219
REMARK  4 active torsions:
REMARK  status: ('A' for Active; 'I' for Inactive)
REMARK    1  A    between atoms: C18_22  and  O2_2 
REMARK    2  A    between atoms: C4_8  and  N1_4 
REMARK    3  A    between atoms: C4_8  and  C7_11 
REMARK    4  A    between atoms: C5_9  and  C8_12 
ROOT
HETATM    1  O1  UNK     1      14.012   4.554   8.991  1.00  0.00    -0.275 OA
HETATM    2  O3  UNK     1      16.067   3.926   9.772  1.00  0.00    -0.260 OA
HETATM    3  C7  UNK     1      14.584   7.177   9.882  1.00  0.00    -0.011 A 
HETATM    4  C9  UNK     1      13.302   6.879   9.229  1.00  0.00     0.006 A 
HETATM    5  C10 UNK     1      15.473   6.189  10.048  1.00  0.00     0.092 A 
HETATM    6  C11 UNK     1      13.056   5.574   8.803  1.00  0.00     0.093 A 
HETATM    7  C12 UNK     1      12.303   7.836   9.005  1.00  0.00     0.017 A 
HETATM    8  C15 UNK     1      15.229   4.806   9.603  1.00  0.00     0.288 A 
HETATM    9  C16 UNK     1      11.866   5.206   8.173  1.00  0.00     0.075 A 
HETATM   10  C17 UNK     1      11.103   7.482   8.376  1.00  0.00     0.038 A 
HETATM   11  C18 UNK     1      10.885   6.170   7.961  1.00  0.00     0.070 A 
ENDROOT
BRANCH   3  12
HETATM   12  C4  UNK     1      14.878   8.573  10.352  1.00  0.00     0.312 C 
BRANCH  12  13
HETATM   13  N1  UNK     1      15.513   9.372   9.307  1.00  0.00     0.096 N 
HETATM   14  C1  UNK     1      14.768  10.612   9.066  1.00  0.00     0.277 C 
HETATM   15  C2  UNK     1      15.360  11.348   7.854  1.00  0.00     0.069 C 
HETATM   16  C5  UNK     1      16.867  11.466   7.913  1.00  0.00    -0.048 C 
HETATM   17  C6  UNK     1      17.566  10.681   8.753  1.00  0.00     0.011 C 
HETATM   18  C3  UNK     1      16.912   9.667   9.653  1.00  0.00     0.300 C 
BRANCH  16  19
HETATM   19  C8  UNK     1      17.530  12.452   7.026  1.00  0.00    -0.030 A 
HETATM   20  C13 UNK     1      16.957  13.712   6.826  1.00  0.00     0.012 A 
HETATM   21  C19 UNK     1      17.581  14.639   5.992  1.00  0.00     0.001 A 
HETATM   22  C21 UNK     1      18.777  14.311   5.355  1.00  0.00     0.000 A 
HETATM   23  C20 UNK     1      19.350  13.055   5.552  1.00  0.00     0.001 A 
HETATM   24  C14 UNK     1      18.728  12.127   6.386  1.00  0.00     0.012 A 
ENDBRANCH  16  19
ENDBRANCH  12  13
ENDBRANCH   3  12
BRANCH  11  25
HETATM   25  O2  UNK     1       9.718   5.833   7.350  1.00  0.00    -0.356 OA
HETATM   26  C22 UNK     1       9.579   6.185   5.973  1.00  0.00     0.210 C 
ENDBRANCH  11  25
TORSDOF 4
ENDMDL
MODEL 4
REMARK VINA RESULT:      -8.3      9.333     13.333
REMARK  4 active torsions:
REMARK  status: ('A' for Active; 'I' for Inactive)
REMARK    1  A    between atoms: C18_22  and  O2_2 
REMARK    2  A    between atoms: C4_8  and  N1_4 
REMARK    3  A    between atoms: C4_8  and  C7_11 
REMARK    4  A    between atoms: C5_9  and  C8_12 
ROOT
HETATM    1  O1  UNK     1      19.519  -7.828  36.838  1.00  0.00    -0.275 OA
HETATM    2  O3  UNK     1      17.579  -7.762  35.631  1.00  0.00    -0.260 OA
HETATM    3  C7  UNK     1      19.576  -5.002  36.715  1.00  0.00    -0.011 A 
HETATM    4  C9  UNK     1      20.639  -5.735  37.415  1.00  0.00     0.006 A 
HETATM    5  C10 UNK     1      18.583  -5.693  36.137  1.00  0.00     0.092 A 
HETATM    6  C11 UNK     1      20.577  -7.128  37.454  1.00  0.00     0.093 A 
HETATM    7  C12 UNK     1      21.722  -5.113  38.052  1.00  0.00     0.017 A 
HETATM    8  C15 UNK     1      18.503  -7.163  36.171  1.00  0.00     0.288 A 
HETATM    9  C16 UNK     1      21.545  -7.900  38.099  1.00  0.00     0.075 A 
HETATM   10  C17 UNK     1      22.701  -5.874  38.702  1.00  0.00     0.038 A 
HETATM   11  C18 UNK     1      22.613  -7.265  38.726  1.00  0.00     0.070 A 
ENDROOT
BRANCH   3  12
HETATM   12  C4  UNK     1      19.615  -3.502  36.653  1.00  0.00     0.312 C 
BRANCH  12  13
HETATM   13  N1  UNK     1      19.431  -3.012  35.290  1.00  0.00     0.096 N 
HETATM   14  C1  UNK     1      19.148  -1.574  35.279  1.00  0.00     0.277 C 
HETATM   15  C2  UNK     1      18.795  -1.122  33.854  1.00  0.00     0.069 C 
HETATM   16  C5  UNK     1      19.774  -1.625  32.816  1.00  0.00    -0.048 C 
HETATM   17  C6  UNK     1      20.606  -2.639  33.118  1.00  0.00     0.011 C 
HETATM   18  C3  UNK     1      20.610  -3.315  34.463  1.00  0.00     0.300 C 
BRANCH  16  19
HETATM   19  C8  UNK     1      19.778  -0.978  31.481  1.00  0.00    -0.030 A 
HETATM   20  C13 UNK     1      20.292  -1.659  30.374  1.00  0.00     0.012 A 
HETATM   21  C19 UNK     1      20.295  -1.051  29.119  1.00  0.00     0.001 A 
HETATM   22  C21 UNK     1      19.786   0.237  28.967  1.00  0.00     0.000 A 
HETATM   23  C20 UNK     1      19.272   0.919  30.070  1.00  0.00     0.001 A 
HETATM   24  C14 UNK     1      19.268   0.312  31.325  1.00  0.00     0.012 A 
ENDBRANCH  16  19
ENDBRANCH  12  13
ENDBRANCH   3  12
BRANCH  11  25
HETATM   25  O2  UNK     1      23.567  -7.998  39.359  1.00  0.00    -0.356 OA
HETATM   26  C22 UNK     1      24.857  -8.051  38.750  1.00  0.00     0.210 C 
ENDBRANCH  11  25
TORSDOF 4
ENDMDL
MODEL 5
REMARK VINA RESULT:      -8.3      8.801     11.451
REMARK  4 active torsions:
REMARK  status: ('A' for Active; 'I' for Inactive)
REMARK    1  A    between atoms: C18_22  and  O2_2 
REMARK    2  A    between atoms: C4_8  and  N1_4 
REMARK    3  A    between atoms: C4_8  and  C7_11 
REMARK    4  A    between atoms: C5_9  and  C8_12 
ROOT
HETATM    1  O1  UNK     1      17.907  -0.807  33.123  1.00  0.00    -0.275 OA
HETATM    2  O3  UNK     1      19.319  -1.629  31.523  1.00  0.00    -0.260 OA
HETATM    3  C7  UNK     1      19.649  -1.886  35.074  1.00  0.00    -0.011 A 
HETATM    4  C9  UNK     1      18.436  -1.164  35.481  1.00  0.00     0.006 A 
HETATM    5  C10 UNK     1      19.915  -2.023  33.767  1.00  0.00     0.092 A 
HETATM    6  C11 UNK     1      17.601  -0.647  34.490  1.00  0.00     0.093 A 
HETATM    7  C12 UNK     1      18.063  -0.962  36.817  1.00  0.00     0.017 A 
HETATM    8  C15 UNK     1      19.044  -1.483  32.709  1.00  0.00     0.288 A 
HETATM    9  C16 UNK     1      16.431   0.052  34.790  1.00  0.00     0.075 A 
HETATM   10  C17 UNK     1      16.892  -0.265  37.134  1.00  0.00     0.038 A 
HETATM   11  C18 UNK     1      16.077   0.242  36.122  1.00  0.00     0.070 A 
ENDROOT
BRANCH   3  12
HETATM   12  C4  UNK     1      20.567  -2.455  36.116  1.00  0.00     0.312 C 
BRANCH  12  13
HETATM   13  N1  UNK     1      20.110  -3.761  36.585  1.00  0.00     0.096 N 
HETATM   14  C1  UNK     1      20.154  -4.754  35.507  1.00  0.00     0.277 C 
HETATM   15  C2  UNK     1      19.513  -6.067  35.981  1.00  0.00     0.069 C 
HETATM   16  C5  UNK     1      20.018  -6.516  37.334  1.00  0.00    -0.048 C 
HETATM   17  C6  UNK     1      20.662  -5.642  38.131  1.00  0.00     0.011 C 
HETATM   18  C3  UNK     1      20.905  -4.210  37.738  1.00  0.00     0.300 C 
BRANCH  16  19
HETATM   19  C8  UNK     1      19.778  -7.921  37.744  1.00  0.00    -0.030 A 
HETATM   20  C13 UNK     1      19.260  -8.839  36.826  1.00  0.00     0.012 A 
HETATM   21  C19 UNK     1      19.033 -10.160  37.211  1.00  0.00     0.001 A 
HETATM   22  C21 UNK     1      19.323 -10.567  38.513  1.00  0.00     0.000 A 
HETATM   23  C20 UNK     1      19.839  -9.653  39.431  1.00  0.00     0.001 A 
HETATM   24  C14 UNK     1      20.067  -8.331  39.047  1.00  0.00     0.012 A 
ENDBRANCH  16  19
ENDBRANCH  12  13
ENDBRANCH   3  12
BRANCH  11  25
HETATM   25  O2  UNK     1      14.940   0.919  36.437  1.00  0.00    -0.356 OA
HETATM   26  C22 UNK     1      15.087   2.118  37.198  1.00  0.00     0.210 C 
ENDBRANCH  11  25
TORSDOF 4
ENDMDL
MODEL 6
REMARK VINA RESULT:      -8.3     12.994     16.649
REMARK  4 active torsions:
REMARK  status: ('A' for Active; 'I' for Inactive)
REMARK    1  A    between atoms: C18_22  and  O2_2 
REMARK    2  A    between atoms: C4_8  and  N1_4 
REMARK    3  A    between atoms: C4_8  and  C7_11 
REMARK    4  A    between atoms: C5_9  and  C8_12 
ROOT
HETATM    1  O1  UNK     1      20.871  -8.122  35.424  1.00  0.00    -0.275 OA
HETATM    2  O3  UNK     1      21.760 -10.157  34.881  1.00  0.00    -0.260 OA
HETATM    3  C7  UNK     1      22.564  -8.098  37.690  1.00  0.00    -0.011 A 
HETATM    4  C9  UNK     1      21.654  -6.975  37.433  1.00  0.00     0.006 A 
HETATM    5  C10 UNK     1      22.578  -9.131  36.836  1.00  0.00     0.092 A 
HETATM    6  C11 UNK     1      20.834  -7.022  36.305  1.00  0.00     0.093 A 
HETATM    7  C12 UNK     1      21.558  -5.846  38.260  1.00  0.00     0.017 A 
HETATM    8  C15 UNK     1      21.720  -9.196  35.641  1.00  0.00     0.288 A 
HETATM    9  C16 UNK     1      19.942  -5.997  35.988  1.00  0.00     0.075 A 
HETATM   10  C17 UNK     1      20.668  -4.811  37.955  1.00  0.00     0.038 A 
HETATM   11  C18 UNK     1      19.861  -4.885  36.821  1.00  0.00     0.070 A 
ENDROOT
BRANCH   3  12
HETATM   12  C4  UNK     1      23.459  -8.077  38.896  1.00  0.00     0.312 C 
BRANCH  12  13
HETATM   13  N1  UNK     1      24.800  -7.603  38.566  1.00  0.00     0.096 N 
HETATM   14  C1  UNK     1      25.032  -6.258  39.102  1.00  0.00     0.277 C 
HETATM   15  C2  UNK     1      26.381  -5.722  38.600  1.00  0.00     0.069 C 
HETATM   16  C5  UNK     1      27.509  -6.716  38.759  1.00  0.00    -0.048 C 
HETATM   17  C6  UNK     1      27.229  -8.016  38.972  1.00  0.00     0.011 C 
HETATM   18  C3  UNK     1      25.821  -8.541  39.057  1.00  0.00     0.300 C 
BRANCH  16  19
HETATM   19  C8  UNK     1      28.903  -6.219  38.668  1.00  0.00    -0.030 A 
HETATM   20  C13 UNK     1      29.177  -4.862  38.856  1.00  0.00     0.012 A 
HETATM   21  C19 UNK     1      30.488  -4.394  38.769  1.00  0.00     0.001 A 
HETATM   22  C21 UNK     1      31.528  -5.280  38.495  1.00  0.00     0.000 A 
HETATM   23  C20 UNK     1      31.258  -6.635  38.307  1.00  0.00     0.001 A 
HETATM   24  C14 UNK     1      29.947  -7.105  38.393  1.00  0.00     0.012 A 
ENDBRANCH  16  19
ENDBRANCH  12  13
ENDBRANCH   3  12
BRANCH  11  25
HETATM   25  O2  UNK     1      18.998  -3.875  36.530  1.00  0.00    -0.356 OA
HETATM   26  C22 UNK     1      19.415  -2.549  36.856  1.00  0.00     0.210 C 
ENDBRANCH  11  25
TORSDOF 4
ENDMDL
MODEL 7
REMARK VINA RESULT:      -8.2      3.356      9.132
REMARK  4 active torsions:
REMARK  status: ('A' for Active; 'I' for Inactive)
REMARK    1  A    between atoms: C18_22  and  O2_2 
REMARK    2  A    between atoms: C4_8  and  N1_4 
REMARK    3  A    between atoms: C4_8  and  C7_11 
REMARK    4  A    between atoms: C5_9  and  C8_12 
ROOT
HETATM    1  O1  UNK     1      18.012   1.834  32.977  1.00  0.00    -0.275 OA
HETATM    2  O3  UNK     1      17.819   1.895  35.254  1.00  0.00    -0.260 OA
HETATM    3  C7  UNK     1      18.573   4.606  33.048  1.00  0.00    -0.011 A 
HETATM    4  C9  UNK     1      18.542   3.889  31.767  1.00  0.00     0.006 A 
HETATM    5  C10 UNK     1      18.331   3.926  34.179  1.00  0.00     0.092 A 
HETATM    6  C11 UNK     1      18.262   2.522  31.772  1.00  0.00     0.093 A 
HETATM    7  C12 UNK     1      18.780   4.499  30.528  1.00  0.00     0.017 A 
HETATM    8  C15 UNK     1      18.035   2.484  34.200  1.00  0.00     0.288 A 
HETATM    9  C16 UNK     1      18.214   1.766  30.599  1.00  0.00     0.075 A 
HETATM   10  C17 UNK     1      18.734   3.755  29.344  1.00  0.00     0.038 A 
HETATM   11  C18 UNK     1      18.453   2.391  29.379  1.00  0.00     0.070 A 
ENDROOT
BRANCH   3  12
HETATM   12  C4  UNK     1      18.870   6.077  33.077  1.00  0.00     0.312 C 
BRANCH  12  13
HETATM   13  N1  UNK     1      17.685   6.862  33.413  1.00  0.00     0.096 N 
HETATM   14  C1  UNK     1      17.956   7.779  34.524  1.00  0.00     0.277 C 
HETATM   15  C2  UNK     1      16.655   8.466  34.962  1.00  0.00     0.069 C 
HETATM   16  C5  UNK     1      15.862   9.027  33.802  1.00  0.00    -0.048 C 
HETATM   17  C6  UNK     1      16.131   8.615  32.549  1.00  0.00     0.011 C 
HETATM   18  C3  UNK     1      17.197   7.600  32.237  1.00  0.00     0.300 C 
BRANCH  16  19
HETATM   19  C8  UNK     1      14.799  10.019  34.091  1.00  0.00    -0.030 A 
HETATM   20  C13 UNK     1      14.655  10.536  35.381  1.00  0.00     0.012 A 
HETATM   21  C19 UNK     1      13.655  11.470  35.653  1.00  0.00     0.001 A 
HETATM   22  C21 UNK     1      12.797  11.889  34.637  1.00  0.00     0.000 A 
HETATM   23  C20 UNK     1      12.939  11.375  33.348  1.00  0.00     0.001 A 
HETATM   24  C14 UNK     1      13.939  10.441  33.075  1.00  0.00     0.012 A 
ENDBRANCH  16  19
ENDBRANCH  12  13
ENDBRANCH   3  12
BRANCH  11  25
HETATM   25  O2  UNK     1      18.410   1.672  28.225  1.00  0.00    -0.356 OA
HETATM   26  C22 UNK     1      18.791   0.298  28.300  1.00  0.00     0.210 C 
ENDBRANCH  11  25
TORSDOF 4
ENDMDL
MODEL 8
REMARK VINA RESULT:      -8.2      4.919      9.777
REMARK  4 active torsions:
REMARK  status: ('A' for Active; 'I' for Inactive)
REMARK    1  A    between atoms: C18_22  and  O2_2 
REMARK    2  A    between atoms: C4_8  and  N1_4 
REMARK    3  A    between atoms: C4_8  and  C7_11 
REMARK    4  A    between atoms: C5_9  and  C8_12 
ROOT
HETATM    1  O1  UNK     1      21.166  -1.362  30.253  1.00  0.00    -0.275 OA
HETATM    2  O3  UNK     1      21.594  -0.556  28.157  1.00  0.00    -0.260 OA
HETATM    3  C7  UNK     1      19.139   0.598  30.485  1.00  0.00    -0.011 A 
HETATM    4  C9  UNK     1      19.401  -0.332  31.592  1.00  0.00     0.006 A 
HETATM    5  C10 UNK     1      19.874   0.502  29.369  1.00  0.00     0.092 A 
HETATM    6  C11 UNK     1      20.409  -1.284  31.440  1.00  0.00     0.093 A 
HETATM    7  C12 UNK     1      18.693  -0.320  32.801  1.00  0.00     0.017 A 
HETATM    8  C15 UNK     1      20.941  -0.498  29.193  1.00  0.00     0.288 A 
HETATM    9  C16 UNK     1      20.722  -2.205  32.442  1.00  0.00     0.075 A 
HETATM   10  C17 UNK     1      18.996  -1.236  33.815  1.00  0.00     0.038 A 
HETATM   11  C18 UNK     1      20.008  -2.178  33.636  1.00  0.00     0.070 A 
ENDROOT
BRANCH   3  12
HETATM   12  C4  UNK     1      18.061   1.635  30.618  1.00  0.00     0.312 C 
BRANCH  12  13
HETATM   13  N1  UNK     1      18.560   2.856  31.247  1.00  0.00     0.096 N 
HETATM   14  C1  UNK     1      18.454   4.000  30.337  1.00  0.00     0.277 C 
HETATM   15  C2  UNK     1      19.136   5.227  30.960  1.00  0.00     0.069 C 
HETATM   16  C5  UNK     1      18.725   5.466  32.396  1.00  0.00    -0.048 C 
HETATM   17  C6  UNK     1      18.127   4.480  33.093  1.00  0.00     0.011 C 
HETATM   18  C3  UNK     1      17.846   3.124  32.504  1.00  0.00     0.300 C 
BRANCH  16  19
HETATM   19  C8  UNK     1      19.004   6.793  32.996  1.00  0.00    -0.030 A 
HETATM   20  C13 UNK     1      20.286   7.094  33.465  1.00  0.00     0.012 A 
HETATM   21  C19 UNK     1      20.549   8.342  34.030  1.00  0.00     0.001 A 
HETATM   22  C21 UNK     1      19.533   9.291  34.128  1.00  0.00     0.000 A 
HETATM   23  C20 UNK     1      18.253   8.993  33.661  1.00  0.00     0.001 A 
HETATM   24  C14 UNK     1      17.988   7.746  33.096  1.00  0.00     0.012 A 
ENDBRANCH  16  19
ENDBRANCH  12  13
ENDBRANCH   3  12
BRANCH  11  25
HETATM   25  O2  UNK     1      20.297  -3.066  34.625  1.00  0.00    -0.356 OA
HETATM   26  C22 UNK     1      20.349  -2.559  35.959  1.00  0.00     0.210 C 
ENDBRANCH  11  25
TORSDOF 4
ENDMDL
MODEL 9
REMARK VINA RESULT:      -8.2      3.191      9.501
REMARK  4 active torsions:
REMARK  status: ('A' for Active; 'I' for Inactive)
REMARK    1  A    between atoms: C18_22  and  O2_2 
REMARK    2  A    between atoms: C4_8  and  N1_4 
REMARK    3  A    between atoms: C4_8  and  C7_11 
REMARK    4  A    between atoms: C5_9  and  C8_12 
ROOT
HETATM    1  O1  UNK     1      18.674   1.258  33.426  1.00  0.00    -0.275 OA
HETATM    2  O3  UNK     1      18.159   2.281  35.405  1.00  0.00    -0.260 OA
HETATM    3  C7  UNK     1      18.267   3.748  32.147  1.00  0.00    -0.011 A 
HETATM    4  C9  UNK     1      18.652   2.567  31.364  1.00  0.00     0.006 A 
HETATM    5  C10 UNK     1      18.112   3.626  33.473  1.00  0.00     0.092 A 
HETATM    6  C11 UNK     1      18.844   1.356  32.030  1.00  0.00     0.093 A 
HETATM    7  C12 UNK     1      18.842   2.582  29.975  1.00  0.00     0.017 A 
HETATM    8  C15 UNK     1      18.311   2.355  34.191  1.00  0.00     0.288 A 
HETATM    9  C16 UNK     1      19.212   0.187  31.362  1.00  0.00     0.075 A 
HETATM   10  C17 UNK     1      19.210   1.418  29.291  1.00  0.00     0.038 A 
HETATM   11  C18 UNK     1      19.394   0.222  29.983  1.00  0.00     0.070 A 
ENDROOT
BRANCH   3  12
HETATM   12  C4  UNK     1      18.053   5.065  31.459  1.00  0.00     0.312 C 
BRANCH  12  13
HETATM   13  N1  UNK     1      17.538   6.077  32.378  1.00  0.00     0.096 N 
HETATM   14  C1  UNK     1      18.477   7.195  32.513  1.00  0.00     0.277 C 
HETATM   15  C2  UNK     1      17.990   8.157  33.607  1.00  0.00     0.069 C 
HETATM   16  C5  UNK     1      16.527   8.517  33.467  1.00  0.00    -0.048 C 
HETATM   17  C6  UNK     1      15.725   7.766  32.690  1.00  0.00     0.011 C 
HETATM   18  C3  UNK     1      16.219   6.559  31.940  1.00  0.00     0.300 C 
BRANCH  16  19
HETATM   19  C8  UNK     1      16.021   9.698  34.208  1.00  0.00    -0.030 A 
HETATM   20  C13 UNK     1      16.792  10.860  34.287  1.00  0.00     0.012 A 
HETATM   21  C19 UNK     1      16.316  11.970  34.984  1.00  0.00     0.001 A 
HETATM   22  C21 UNK     1      15.068  11.922  35.603  1.00  0.00     0.000 A 
HETATM   23  C20 UNK     1      14.295  10.764  35.526  1.00  0.00     0.001 A 
HETATM   24  C14 UNK     1      14.771   9.653  34.830  1.00  0.00     0.012 A 
ENDBRANCH  16  19
ENDBRANCH  12  13
ENDBRANCH   3  12
BRANCH  11  25
HETATM   25  O2  UNK     1      19.752  -0.906  29.313  1.00  0.00    -0.356 OA
HETATM   26  C22 UNK     1      20.318  -1.968  30.082  1.00  0.00     0.210 C 
ENDBRANCH  11  25
TORSDOF 4
ENDMDL
MODEL 10
REMARK VINA RESULT:      -8.1     17.654     19.481
REMARK  4 active torsions:
REMARK  status: ('A' for Active; 'I' for Inactive)
REMARK    1  A    between atoms: C18_22  and  O2_2 
REMARK    2  A    between atoms: C4_8  and  N1_4 
REMARK    3  A    between atoms: C4_8  and  C7_11 
REMARK    4  A    between atoms: C5_9  and  C8_12 
ROOT
HETATM    1  O1  UNK     1      30.877  -4.544  38.934  1.00  0.00    -0.275 OA
HETATM    2  O3  UNK     1      28.922  -3.691  39.758  1.00  0.00    -0.260 OA
HETATM    3  C7  UNK     1      29.394  -6.757  37.981  1.00  0.00    -0.011 A 
HETATM    4  C9  UNK     1      30.844  -6.686  37.759  1.00  0.00     0.006 A 
HETATM    5  C10 UNK     1      28.788  -5.760  38.641  1.00  0.00     0.092 A 
HETATM    6  C11 UNK     1      31.541  -5.579  38.244  1.00  0.00     0.093 A 
HETATM    7  C12 UNK     1      31.577  -7.671  37.083  1.00  0.00     0.017 A 
HETATM    8  C15 UNK     1      29.510  -4.585  39.158  1.00  0.00     0.288 A 
HETATM    9  C16 UNK     1      32.919  -5.432  38.075  1.00  0.00     0.075 A 
HETATM   10  C17 UNK     1      32.959  -7.539  36.906  1.00  0.00     0.038 A 
HETATM   11  C18 UNK     1      33.629  -6.421  37.401  1.00  0.00     0.070 A 
ENDROOT
BRANCH   3  12
HETATM   12  C4  UNK     1      28.615  -7.936  37.473  1.00  0.00     0.312 C 
BRANCH  12  13
HETATM   13  N1  UNK     1      28.901  -8.206  36.065  1.00  0.00     0.096 N 
HETATM   14  C1  UNK     1      28.368  -9.510  35.659  1.00  0.00     0.277 C 
HETATM   15  C2  UNK     1      28.826  -9.838  34.230  1.00  0.00     0.069 C 
HETATM   16  C5  UNK     1      28.615  -8.692  33.265  1.00  0.00    -0.048 C 
HETATM   17  C6  UNK     1      28.401  -7.450  33.739  1.00  0.00     0.011 C 
HETATM   18  C3  UNK     1      28.363  -7.136  35.210  1.00  0.00     0.300 C 
BRANCH  16  19
HETATM   19  C8  UNK     1      28.660  -8.980  31.811  1.00  0.00    -0.030 A 
HETATM   20  C13 UNK     1      27.692  -8.441  30.959  1.00  0.00     0.012 A 
HETATM   21  C19 UNK     1      27.734  -8.712  29.592  1.00  0.00     0.001 A 
HETATM   22  C21 UNK     1      28.743  -9.523  29.072  1.00  0.00     0.000 A 
HETATM   23  C20 UNK     1      29.710 -10.062  29.920  1.00  0.00     0.001 A 
HETATM   24  C14 UNK     1      29.669  -9.792  31.287  1.00  0.00     0.012 A 
ENDBRANCH  16  19
ENDBRANCH  12  13
ENDBRANCH   3  12
BRANCH  11  25
HETATM   25  O2  UNK     1      34.972  -6.298  37.226  1.00  0.00    -0.356 OA
HETATM   26  C22 UNK     1      35.427  -5.923  35.926  1.00  0.00     0.210 C 
ENDBRANCH  11  25
TORSDOF 4
ENDMDL
