MODEL 1
REMARK VINA RESULT:      -8.3      0.000      0.000
REMARK  1 active torsions:
REMARK  status: ('A' for Active; 'I' for Inactive)
REMARK       I    between atoms: C5_10  and  N1_4 
REMARK    1  A    between atoms: C2_7  and  C5_10 
ROOT
HETATM    1  O1  UNK     1      19.381   1.202  15.438  1.00  0.00    -0.274 OA
HETATM    2  O3  UNK     1      19.250  -0.435  13.850  1.00  0.00    -0.259 OA
HETATM    3  C1  UNK     1      18.932   0.657  17.764  1.00  0.00    -0.001 A 
HETATM    4  C2  UNK     1      18.793  -1.081  16.083  1.00  0.00     0.110 A 
HETATM    5  C3  UNK     1      18.689  -0.721  17.368  1.00  0.00     0.037 A 
HETATM    6  C4  UNK     1      19.273   1.589  16.788  1.00  0.00     0.089 A 
HETATM    7  C8  UNK     1      19.155  -0.108  15.028  1.00  0.00     0.304 A 
HETATM    8  C9  UNK     1      18.836   1.079  19.093  1.00  0.00     0.014 A 
HETATM    9  C10 UNK     1      19.519   2.924  17.101  1.00  0.00     0.038 A 
HETATM   10  C12 UNK     1      19.079   2.416  19.422  1.00  0.00     0.001 A 
HETATM   11  C13 UNK     1      19.420   3.336  18.428  1.00  0.00     0.003 A 
ENDROOT
BRANCH   4  12
HETATM   12  C5  UNK     1      18.528  -2.495  15.782  1.00  0.00     0.284 C 
HETATM   13  O2  UNK     1      17.406  -2.949  15.611  1.00  0.00    -0.265 OA
HETATM   14  N1  UNK     1      19.631  -3.344  15.693  1.00  0.00    -0.208 N 
HETATM   15  C7  UNK     1      19.608  -4.696  15.422  1.00  0.00     0.130 A 
HETATM   16  N2  UNK     1      20.894  -2.888  15.873  1.00  0.00    -0.177 NA
HETATM   17  C6  UNK     1      20.912  -5.125  15.431  1.00  0.00    -0.025 A 
HETATM   18  C11 UNK     1      21.657  -3.970  15.714  1.00  0.00     0.147 A 
HETATM   19  C14 UNK     1      21.411  -6.489  15.196  1.00  0.00     0.051 C 
ENDBRANCH   4  12
TORSDOF 1
ENDMDL
MODEL 2
REMARK VINA RESULT:      -7.8     12.316     14.462
REMARK  1 active torsions:
REMARK  status: ('A' for Active; 'I' for Inactive)
REMARK       I    between atoms: C5_10  and  N1_4 
REMARK    1  A    between atoms: C2_7  and  C5_10 
ROOT
HETATM    1  O1  UNK     1      11.131   7.515   9.559  1.00  0.00    -0.274 OA
HETATM    2  O3  UNK     1      12.670   8.098  11.143  1.00  0.00    -0.259 OA
HETATM    3  C1  UNK     1      11.885   6.694   7.398  1.00  0.00    -0.001 A 
HETATM    4  C2  UNK     1      13.519   7.311   9.077  1.00  0.00     0.110 A 
HETATM    5  C3  UNK     1      13.259   6.850   7.847  1.00  0.00     0.037 A 
HETATM    6  C4  UNK     1      10.851   7.031   8.267  1.00  0.00     0.089 A 
HETATM    7  C8  UNK     1      12.436   7.674  10.017  1.00  0.00     0.304 A 
HETATM    8  C9  UNK     1      11.566   6.217   6.124  1.00  0.00     0.014 A 
HETATM    9  C10 UNK     1       9.512   6.905   7.899  1.00  0.00     0.038 A 
HETATM   10  C12 UNK     1      10.228   6.086   5.741  1.00  0.00     0.001 A 
HETATM   11  C13 UNK     1       9.204   6.429   6.626  1.00  0.00     0.003 A 
ENDROOT
BRANCH   4  12
HETATM   12  C5  UNK     1      14.938   7.434   9.437  1.00  0.00     0.284 C 
HETATM   13  O2  UNK     1      15.615   6.500   9.842  1.00  0.00    -0.265 OA
HETATM   14  N1  UNK     1      15.523   8.694   9.302  1.00  0.00    -0.208 N 
HETATM   15  C7  UNK     1      16.830   9.028   9.582  1.00  0.00     0.130 A 
HETATM   16  N2  UNK     1      14.814   9.760   8.857  1.00  0.00    -0.177 NA
HETATM   17  C6  UNK     1      16.966  10.366   9.306  1.00  0.00    -0.025 A 
HETATM   18  C11 UNK     1      15.695  10.762   8.865  1.00  0.00     0.147 A 
HETATM   19  C14 UNK     1      18.175  11.194   9.445  1.00  0.00     0.051 C 
ENDBRANCH   4  12
TORSDOF 1
ENDMDL
MODEL 3
REMARK VINA RESULT:      -7.8     15.340     17.878
REMARK  1 active torsions:
REMARK  status: ('A' for Active; 'I' for Inactive)
REMARK       I    between atoms: C5_10  and  N1_4 
REMARK    1  A    between atoms: C2_7  and  C5_10 
ROOT
HETATM    1  O1  UNK     1      16.895   8.053  33.002  1.00  0.00    -0.274 OA
HETATM    2  O3  UNK     1      15.826   6.144  32.348  1.00  0.00    -0.259 OA
HETATM    3  C1  UNK     1      19.166   7.922  33.860  1.00  0.00    -0.001 A 
HETATM    4  C2  UNK     1      18.035   5.896  33.166  1.00  0.00     0.110 A 
HETATM    5  C3  UNK     1      19.131   6.482  33.663  1.00  0.00     0.037 A 
HETATM    6  C4  UNK     1      18.045   8.676  33.524  1.00  0.00     0.089 A 
HETATM    7  C8  UNK     1      16.832   6.677  32.801  1.00  0.00     0.304 A 
HETATM    8  C9  UNK     1      20.288   8.577  34.375  1.00  0.00     0.014 A 
HETATM    9  C10 UNK     1      18.015  10.060  33.688  1.00  0.00     0.038 A 
HETATM   10  C12 UNK     1      20.272   9.964  34.545  1.00  0.00     0.001 A 
HETATM   11  C13 UNK     1      19.138  10.703  34.203  1.00  0.00     0.003 A 
ENDROOT
BRANCH   4  12
HETATM   12  C5  UNK     1      18.096   4.437  33.005  1.00  0.00     0.284 C 
HETATM   13  O2  UNK     1      17.930   3.649  33.924  1.00  0.00    -0.265 OA
HETATM   14  N1  UNK     1      18.360   3.949  31.724  1.00  0.00    -0.208 N 
HETATM   15  C7  UNK     1      18.459   2.624  31.354  1.00  0.00     0.130 A 
HETATM   16  N2  UNK     1      18.550   4.782  30.673  1.00  0.00    -0.177 NA
HETATM   17  C6  UNK     1      18.727   2.608  30.007  1.00  0.00    -0.025 A 
HETATM   18  C11 UNK     1      18.772   3.962  29.644  1.00  0.00     0.147 A 
HETATM   19  C14 UNK     1      18.923   1.432  29.144  1.00  0.00     0.051 C 
ENDBRANCH   4  12
TORSDOF 1
ENDMDL
MODEL 4
REMARK VINA RESULT:      -7.7     19.003     20.372
REMARK  1 active torsions:
REMARK  status: ('A' for Active; 'I' for Inactive)
REMARK       I    between atoms: C5_10  and  N1_4 
REMARK    1  A    between atoms: C2_7  and  C5_10 
ROOT
HETATM    1  O1  UNK     1      19.396  -1.442  34.721  1.00  0.00    -0.274 OA
HETATM    2  O3  UNK     1      20.633  -3.285  34.182  1.00  0.00    -0.259 OA
HETATM    3  C1  UNK     1      18.587  -1.162  36.996  1.00  0.00    -0.001 A 
HETATM    4  C2  UNK     1      19.900  -3.117  36.429  1.00  0.00     0.110 A 
HETATM    5  C3  UNK     1      19.228  -2.419  37.351  1.00  0.00     0.037 A 
HETATM    6  C4  UNK     1      18.687  -0.702  35.686  1.00  0.00     0.089 A 
HETATM    7  C8  UNK     1      20.020  -2.647  35.030  1.00  0.00     0.304 A 
HETATM    8  C9  UNK     1      17.875  -0.399  37.926  1.00  0.00     0.014 A 
HETATM    9  C10 UNK     1      18.096   0.494  35.281  1.00  0.00     0.038 A 
HETATM   10  C12 UNK     1      17.278   0.802  37.534  1.00  0.00     0.001 A 
HETATM   11  C13 UNK     1      17.388   1.247  36.215  1.00  0.00     0.003 A 
ENDROOT
BRANCH   4  12
HETATM   12  C5  UNK     1      20.511  -4.373  36.884  1.00  0.00     0.284 C 
HETATM   13  O2  UNK     1      21.675  -4.466  37.246  1.00  0.00    -0.265 OA
HETATM   14  N1  UNK     1      19.700  -5.509  36.894  1.00  0.00    -0.208 N 
HETATM   15  C7  UNK     1      20.068  -6.780  37.281  1.00  0.00     0.130 A 
HETATM   16  N2  UNK     1      18.403  -5.458  36.503  1.00  0.00    -0.177 NA
HETATM   17  C6  UNK     1      18.962  -7.578  37.131  1.00  0.00    -0.025 A 
HETATM   18  C11 UNK     1      17.969  -6.711  36.649  1.00  0.00     0.147 A 
HETATM   19  C14 UNK     1      18.847  -9.018  37.411  1.00  0.00     0.051 C 
ENDBRANCH   4  12
TORSDOF 1
ENDMDL
MODEL 5
REMARK VINA RESULT:      -7.6     15.169     17.816
REMARK  1 active torsions:
REMARK  status: ('A' for Active; 'I' for Inactive)
REMARK       I    between atoms: C5_10  and  N1_4 
REMARK    1  A    between atoms: C2_7  and  C5_10 
ROOT
HETATM    1  O1  UNK     1      18.209   8.087  33.999  1.00  0.00    -0.274 OA
HETATM    2  O3  UNK     1      20.042   6.956  33.240  1.00  0.00    -0.259 OA
HETATM    3  C1  UNK     1      16.155   8.055  32.697  1.00  0.00    -0.001 A 
HETATM    4  C2  UNK     1      18.098   6.854  31.890  1.00  0.00     0.110 A 
HETATM    5  C3  UNK     1      16.822   7.216  31.714  1.00  0.00     0.037 A 
HETATM    6  C4  UNK     1      16.866   8.471  33.820  1.00  0.00     0.089 A 
HETATM    7  C8  UNK     1      18.873   7.284  33.076  1.00  0.00     0.304 A 
HETATM    8  C9  UNK     1      14.825   8.457  32.556  1.00  0.00     0.014 A 
HETATM    9  C10 UNK     1      16.286   9.276  34.799  1.00  0.00     0.038 A 
HETATM   10  C12 UNK     1      14.230   9.264  33.529  1.00  0.00     0.001 A 
HETATM   11  C13 UNK     1      14.959   9.672  34.648  1.00  0.00     0.003 A 
ENDROOT
BRANCH   4  12
HETATM   12  C5  UNK     1      18.683   6.008  30.842  1.00  0.00     0.284 C 
HETATM   13  O2  UNK     1      19.245   6.451  29.851  1.00  0.00    -0.265 OA
HETATM   14  N1  UNK     1      18.580   4.626  31.008  1.00  0.00    -0.208 N 
HETATM   15  C7  UNK     1      19.056   3.657  30.151  1.00  0.00     0.130 A 
HETATM   16  N2  UNK     1      17.968   4.085  32.089  1.00  0.00    -0.177 NA
HETATM   17  C6  UNK     1      18.735   2.443  30.705  1.00  0.00    -0.025 A 
HETATM   18  C11 UNK     1      18.066   2.769  31.895  1.00  0.00     0.147 A 
HETATM   19  C14 UNK     1      19.026   1.104  30.169  1.00  0.00     0.051 C 
ENDBRANCH   4  12
TORSDOF 1
ENDMDL
MODEL 6
REMARK VINA RESULT:      -7.6     16.862     20.061
REMARK  1 active torsions:
REMARK  status: ('A' for Active; 'I' for Inactive)
REMARK       I    between atoms: C5_10  and  N1_4 
REMARK    1  A    between atoms: C2_7  and  C5_10 
ROOT
HETATM    1  O1  UNK     1      17.590   6.939  30.723  1.00  0.00    -0.274 OA
HETATM    2  O3  UNK     1      15.497   7.783  31.073  1.00  0.00    -0.259 OA
HETATM    3  C1  UNK     1      19.180   6.869  32.561  1.00  0.00    -0.001 A 
HETATM    4  C2  UNK     1      16.960   7.764  32.936  1.00  0.00     0.110 A 
HETATM    5  C3  UNK     1      18.170   7.463  33.423  1.00  0.00     0.037 A 
HETATM    6  C4  UNK     1      18.865   6.620  31.228  1.00  0.00     0.089 A 
HETATM    7  C8  UNK     1      16.604   7.507  31.523  1.00  0.00     0.304 A 
HETATM    8  C9  UNK     1      20.456   6.539  33.025  1.00  0.00     0.014 A 
HETATM    9  C10 UNK     1      19.787   6.053  30.350  1.00  0.00     0.038 A 
HETATM   10  C12 UNK     1      21.391   5.970  32.156  1.00  0.00     0.001 A 
HETATM   11  C13 UNK     1      21.057   5.728  30.822  1.00  0.00     0.003 A 
ENDROOT
BRANCH   4  12
HETATM   12  C5  UNK     1      16.009   8.361  33.884  1.00  0.00     0.284 C 
HETATM   13  O2  UNK     1      15.095   7.739  34.404  1.00  0.00    -0.265 OA
HETATM   14  N1  UNK     1      16.179   9.712  34.191  1.00  0.00    -0.208 N 
HETATM   15  C7  UNK     1      15.406  10.464  35.049  1.00  0.00     0.130 A 
HETATM   16  N2  UNK     1      17.178  10.443  33.640  1.00  0.00    -0.177 NA
HETATM   17  C6  UNK     1      15.930  11.732  35.048  1.00  0.00    -0.025 A 
HETATM   18  C11 UNK     1      17.017  11.660  34.164  1.00  0.00     0.147 A 
HETATM   19  C14 UNK     1      15.455  12.902  35.804  1.00  0.00     0.051 C 
ENDBRANCH   4  12
TORSDOF 1
ENDMDL
MODEL 7
REMARK VINA RESULT:      -7.5     15.485     18.043
REMARK  1 active torsions:
REMARK  status: ('A' for Active; 'I' for Inactive)
REMARK       I    between atoms: C5_10  and  N1_4 
REMARK    1  A    between atoms: C2_7  and  C5_10 
ROOT
HETATM    1  O1  UNK     1      19.591   8.095  33.585  1.00  0.00    -0.274 OA
HETATM    2  O3  UNK     1      20.726   6.147  33.220  1.00  0.00    -0.259 OA
HETATM    3  C1  UNK     1      17.164   8.063  33.722  1.00  0.00    -0.001 A 
HETATM    4  C2  UNK     1      18.365   5.995  33.336  1.00  0.00     0.110 A 
HETATM    5  C3  UNK     1      17.196   6.625  33.501  1.00  0.00     0.037 A 
HETATM    6  C4  UNK     1      18.364   8.765  33.759  1.00  0.00     0.089 A 
HETATM    7  C8  UNK     1      19.653   6.721  33.372  1.00  0.00     0.304 A 
HETATM    8  C9  UNK     1      15.967   8.763  33.900  1.00  0.00     0.014 A 
HETATM    9  C10 UNK     1      18.403  10.143  33.967  1.00  0.00     0.038 A 
HETATM   10  C12 UNK     1      15.990  10.145  34.108  1.00  0.00     0.001 A 
HETATM   11  C13 UNK     1      17.205  10.833  34.142  1.00  0.00     0.003 A 
ENDROOT
BRANCH   4  12
HETATM   12  C5  UNK     1      18.294   4.543  33.118  1.00  0.00     0.284 C 
HETATM   13  O2  UNK     1      18.119   3.734  34.017  1.00  0.00    -0.265 OA
HETATM   14  N1  UNK     1      18.436   4.089  31.806  1.00  0.00    -0.208 N 
HETATM   15  C7  UNK     1      18.402   2.777  31.382  1.00  0.00     0.130 A 
HETATM   16  N2  UNK     1      18.631   4.947  30.776  1.00  0.00    -0.177 NA
HETATM   17  C6  UNK     1      18.584   2.795  30.022  1.00  0.00    -0.025 A 
HETATM   18  C11 UNK     1      18.719   4.155  29.705  1.00  0.00     0.147 A 
HETATM   19  C14 UNK     1      18.628   1.644  29.106  1.00  0.00     0.051 C 
ENDBRANCH   4  12
TORSDOF 1
ENDMDL
MODEL 8
REMARK VINA RESULT:      -7.4     17.144     20.229
REMARK  1 active torsions:
REMARK  status: ('A' for Active; 'I' for Inactive)
REMARK       I    between atoms: C5_10  and  N1_4 
REMARK    1  A    between atoms: C2_7  and  C5_10 
ROOT
HETATM    1  O1  UNK     1      18.829   6.997  33.971  1.00  0.00    -0.274 OA
HETATM    2  O3  UNK     1      17.355   7.791  35.525  1.00  0.00    -0.259 OA
HETATM    3  C1  UNK     1      18.123   6.761  31.657  1.00  0.00    -0.001 A 
HETATM    4  C2  UNK     1      16.557   7.603  33.302  1.00  0.00     0.110 A 
HETATM    5  C3  UNK     1      16.811   7.264  32.033  1.00  0.00     0.037 A 
HETATM    6  C4  UNK     1      19.103   6.639  32.637  1.00  0.00     0.089 A 
HETATM    7  C8  UNK     1      17.584   7.483  34.360  1.00  0.00     0.304 A 
HETATM    8  C9  UNK     1      18.433   6.396  30.344  1.00  0.00     0.014 A 
HETATM    9  C10 UNK     1      20.380   6.163  32.343  1.00  0.00     0.038 A 
HETATM   10  C12 UNK     1      19.709   5.917  30.035  1.00  0.00     0.001 A 
HETATM   11  C13 UNK     1      20.680   5.801  31.032  1.00  0.00     0.003 A 
ENDROOT
BRANCH   4  12
HETATM   12  C5  UNK     1      15.203   8.100  33.582  1.00  0.00     0.284 C 
HETATM   13  O2  UNK     1      14.230   7.372  33.712  1.00  0.00    -0.265 OA
HETATM   14  N1  UNK     1      15.044   9.482  33.702  1.00  0.00    -0.208 N 
HETATM   15  C7  UNK     1      13.869  10.155  33.962  1.00  0.00     0.130 A 
HETATM   16  N2  UNK     1      16.092  10.330  33.568  1.00  0.00    -0.177 NA
HETATM   17  C6  UNK     1      14.177  11.492  33.994  1.00  0.00    -0.025 A 
HETATM   18  C11 UNK     1      15.557  11.539  33.744  1.00  0.00     0.147 A 
HETATM   19  C14 UNK     1      13.261  12.619  34.234  1.00  0.00     0.051 C 
ENDBRANCH   4  12
TORSDOF 1
ENDMDL
MODEL 9
REMARK VINA RESULT:      -7.3     12.100     14.189
REMARK  1 active torsions:
REMARK  status: ('A' for Active; 'I' for Inactive)
REMARK       I    between atoms: C5_10  and  N1_4 
REMARK    1  A    between atoms: C2_7  and  C5_10 
ROOT
HETATM    1  O1  UNK     1      12.336   5.715   7.247  1.00  0.00    -0.274 OA
HETATM    2  O3  UNK     1      14.562   5.532   7.724  1.00  0.00    -0.259 OA
HETATM    3  C1  UNK     1      10.916   7.099   8.653  1.00  0.00    -0.001 A 
HETATM    4  C2  UNK     1      13.276   6.908   9.162  1.00  0.00     0.110 A 
HETATM    5  C3  UNK     1      12.078   7.422   9.465  1.00  0.00     0.037 A 
HETATM    6  C4  UNK     1      11.072   6.251   7.560  1.00  0.00     0.089 A 
HETATM    7  C8  UNK     1      13.466   6.006   8.004  1.00  0.00     0.304 A 
HETATM    8  C9  UNK     1       9.646   7.611   8.931  1.00  0.00     0.014 A 
HETATM    9  C10 UNK     1       9.999   5.902   6.742  1.00  0.00     0.038 A 
HETATM   10  C12 UNK     1       8.560   7.270   8.120  1.00  0.00     0.001 A 
HETATM   11  C13 UNK     1       8.737   6.418   7.028  1.00  0.00     0.003 A 
ENDROOT
BRANCH   4  12
HETATM   12  C5  UNK     1      14.388   7.292  10.042  1.00  0.00     0.284 C 
HETATM   13  O2  UNK     1      14.722   6.651  11.027  1.00  0.00    -0.265 OA
HETATM   14  N1  UNK     1      15.086   8.456   9.715  1.00  0.00    -0.208 N 
HETATM   15  C7  UNK     1      16.154   8.994  10.401  1.00  0.00     0.130 A 
HETATM   16  N2  UNK     1      14.755   9.201   8.633  1.00  0.00    -0.177 NA
HETATM   17  C6  UNK     1      16.524  10.133   9.730  1.00  0.00    -0.025 A 
HETATM   18  C11 UNK     1      15.627  10.210   8.653  1.00  0.00     0.147 A 
HETATM   19  C14 UNK     1      17.613  11.063  10.069  1.00  0.00     0.051 C 
ENDBRANCH   4  12
TORSDOF 1
ENDMDL
MODEL 10
REMARK VINA RESULT:      -7.3     11.669     13.204
REMARK  1 active torsions:
REMARK  status: ('A' for Active; 'I' for Inactive)
REMARK       I    between atoms: C5_10  and  N1_4 
REMARK    1  A    between atoms: C2_7  and  C5_10 
ROOT
HETATM    1  O1  UNK     1      16.364   7.051   9.528  1.00  0.00    -0.274 OA
HETATM    2  O3  UNK     1      15.289   5.072   9.151  1.00  0.00    -0.259 OA
HETATM    3  C1  UNK     1      15.071   9.031  10.092  1.00  0.00    -0.001 A 
HETATM    4  C2  UNK     1      13.928   6.933   9.694  1.00  0.00     0.110 A 
HETATM    5  C3  UNK     1      13.859   8.233  10.003  1.00  0.00     0.037 A 
HETATM    6  C4  UNK     1      16.298   8.420   9.852  1.00  0.00     0.089 A 
HETATM    7  C8  UNK     1      15.222   6.262   9.436  1.00  0.00     0.304 A 
HETATM    8  C9  UNK     1      15.047  10.391  10.412  1.00  0.00     0.014 A 
HETATM    9  C10 UNK     1      17.497   9.128   9.922  1.00  0.00     0.038 A 
HETATM   10  C12 UNK     1      16.241  11.114  10.485  1.00  0.00     0.001 A 
HETATM   11  C13 UNK     1      17.463  10.484  10.240  1.00  0.00     0.003 A 
ENDROOT
BRANCH   4  12
HETATM   12  C5  UNK     1      12.649   6.213   9.627  1.00  0.00     0.284 C 
HETATM   13  O2  UNK     1      12.248   5.466  10.508  1.00  0.00    -0.265 OA
HETATM   14  N1  UNK     1      11.867   6.407   8.488  1.00  0.00    -0.208 N 
HETATM   15  C7  UNK     1      10.642   5.833   8.223  1.00  0.00     0.130 A 
HETATM   16  N2  UNK     1      12.268   7.226   7.485  1.00  0.00    -0.177 NA
HETATM   17  C6  UNK     1      10.240   6.303   6.997  1.00  0.00    -0.025 A 
HETATM   18  C11 UNK     1      11.279   7.154   6.591  1.00  0.00     0.147 A 
HETATM   19  C14 UNK     1       8.999   5.982   6.275  1.00  0.00     0.051 C 
ENDBRANCH   4  12
TORSDOF 1
ENDMDL
