MODEL 1
REMARK VINA RESULT:      -8.6      0.000      0.000
REMARK  4 active torsions:
REMARK  status: ('A' for Active; 'I' for Inactive)
REMARK    1  A    between atoms: C5_10  and  O2_2 
REMARK    2  A    between atoms: C7_12  and  O3_3 
REMARK    3  A    between atoms: C9_14  and  O5_5 
REMARK    4  A    between atoms: C3_8  and  C6_11 
ROOT
HETATM    1  O1  UNK     1      19.028  -0.984  17.700  1.00  0.00    -0.306 OA
HETATM    2  O4  UNK     1      19.301   2.301  15.305  1.00  0.00    -0.284 OA
HETATM    3  C1  UNK     1      19.108   1.434  17.488  1.00  0.00     0.084 A 
HETATM    4  C2  UNK     1      19.015   0.272  18.252  1.00  0.00     0.096 A 
HETATM    5  C3  UNK     1      19.150  -1.100  16.325  1.00  0.00     0.123 A 
HETATM    6  C4  UNK     1      19.223   1.316  16.026  1.00  0.00     0.223 A 
HETATM    7  C5  UNK     1      19.237  -0.060  15.476  1.00  0.00     0.152 A 
HETATM    8  C7  UNK     1      19.088   2.687  18.105  1.00  0.00     0.085 A 
HETATM    9  C8  UNK     1      18.903   0.356  19.639  1.00  0.00     0.075 A 
HETATM   10  C9  UNK     1      18.884   1.605  20.260  1.00  0.00     0.071 A 
HETATM   11  C10 UNK     1      18.976   2.769  19.494  1.00  0.00     0.074 A 
ENDROOT
BRANCH   5  12
HETATM   12  C6  UNK     1      19.150  -2.499  15.864  1.00  0.00     0.001 A 
HETATM   13  C11 UNK     1      17.963  -3.090  15.428  1.00  0.00     0.014 A 
HETATM   14  C13 UNK     1      17.963  -4.415  14.992  1.00  0.00     0.001 A 
HETATM   15  C15 UNK     1      19.149  -5.150  14.991  1.00  0.00     0.000 A 
HETATM   16  C14 UNK     1      20.335  -4.560  15.427  1.00  0.00     0.001 A 
HETATM   17  C12 UNK     1      20.335  -3.235  15.864  1.00  0.00     0.014 A 
ENDBRANCH   5  12
BRANCH   7  18
HETATM   18  O2  UNK     1      19.324  -0.210  14.109  1.00  0.00    -0.355 OA
HETATM   19  H8  UNK     1      20.080  -0.777  13.886  1.00  0.00     0.218 HD
ENDBRANCH   7  18
BRANCH   8  20
HETATM   20  O3  UNK     1      19.174   3.852  17.405  1.00  0.00    -0.360 OA
HETATM   21  H9  UNK     1      19.155   3.678  16.452  1.00  0.00     0.217 HD
ENDBRANCH   8  20
BRANCH  10  22
HETATM   22  O5  UNK     1      18.774   1.690  21.614  1.00  0.00    -0.361 OA
HETATM   23  H10 UNK     1      18.490   2.590  21.851  1.00  0.00     0.217 HD
ENDBRANCH  10  22
TORSDOF 4
ENDMDL
MODEL 2
REMARK VINA RESULT:      -8.5     12.739     16.723
REMARK  4 active torsions:
REMARK  status: ('A' for Active; 'I' for Inactive)
REMARK    1  A    between atoms: C5_10  and  O2_2 
REMARK    2  A    between atoms: C7_12  and  O3_3 
REMARK    3  A    between atoms: C9_14  and  O5_5 
REMARK    4  A    between atoms: C3_8  and  C6_11 
ROOT
HETATM    1  O1  UNK     1      18.882  -0.346  33.238  1.00  0.00    -0.306 OA
HETATM    2  O4  UNK     1      18.782   2.614  30.440  1.00  0.00    -0.284 OA
HETATM    3  C1  UNK     1      19.371   0.396  30.979  1.00  0.00     0.084 A 
HETATM    4  C2  UNK     1      19.378  -0.573  31.980  1.00  0.00     0.096 A 
HETATM    5  C3  UNK     1      18.340   0.898  33.520  1.00  0.00     0.123 A 
HETATM    6  C4  UNK     1      18.809   1.723  31.277  1.00  0.00     0.223 A 
HETATM    7  C5  UNK     1      18.281   1.921  32.648  1.00  0.00     0.152 A 
HETATM    8  C7  UNK     1      19.891   0.108  29.715  1.00  0.00     0.085 A 
HETATM    9  C8  UNK     1      19.907  -1.838  31.723  1.00  0.00     0.075 A 
HETATM   10  C9  UNK     1      20.427  -2.130  30.463  1.00  0.00     0.071 A 
HETATM   11  C10 UNK     1      20.419  -1.159  29.460  1.00  0.00     0.074 A 
ENDROOT
BRANCH   5  12
HETATM   12  C6  UNK     1      17.846   1.009  34.904  1.00  0.00     0.001 A 
HETATM   13  C11 UNK     1      16.584   0.515  35.237  1.00  0.00     0.014 A 
HETATM   14  C13 UNK     1      16.116   0.620  36.546  1.00  0.00     0.001 A 
HETATM   15  C15 UNK     1      16.910   1.219  37.525  1.00  0.00     0.000 A 
HETATM   16  C14 UNK     1      18.171   1.713  37.194  1.00  0.00     0.001 A 
HETATM   17  C12 UNK     1      18.639   1.608  35.884  1.00  0.00     0.014 A 
ENDBRANCH   5  12
BRANCH   7  18
HETATM   18  O2  UNK     1      17.765   3.157  32.972  1.00  0.00    -0.355 OA
HETATM   19  H8  UNK     1      17.421   3.144  33.879  1.00  0.00     0.218 HD
ENDBRANCH   7  18
BRANCH   8  20
HETATM   20  O3  UNK     1      19.909   1.019  28.702  1.00  0.00    -0.360 OA
HETATM   21  H9  UNK     1      20.584   0.786  28.048  1.00  0.00     0.217 HD
ENDBRANCH   8  20
BRANCH  10  22
HETATM   22  O5  UNK     1      20.943  -3.363  30.210  1.00  0.00    -0.361 OA
HETATM   23  H10 UNK     1      21.753  -3.480  30.736  1.00  0.00     0.217 HD
ENDBRANCH  10  22
TORSDOF 4
ENDMDL
MODEL 3
REMARK VINA RESULT:      -8.4     13.845     17.289
REMARK  4 active torsions:
REMARK  status: ('A' for Active; 'I' for Inactive)
REMARK    1  A    between atoms: C5_10  and  O2_2 
REMARK    2  A    between atoms: C7_12  and  O3_3 
REMARK    3  A    between atoms: C9_14  and  O5_5 
REMARK    4  A    between atoms: C3_8  and  C6_11 
ROOT
HETATM    1  O1  UNK     1      18.138  -0.434  33.297  1.00  0.00    -0.306 OA
HETATM    2  O4  UNK     1      20.187  -2.498  36.151  1.00  0.00    -0.284 OA
HETATM    3  C1  UNK     1      18.332  -1.147  35.610  1.00  0.00     0.084 A 
HETATM    4  C2  UNK     1      17.679  -0.458  34.590  1.00  0.00     0.096 A 
HETATM    5  C3  UNK     1      19.294  -1.134  32.993  1.00  0.00     0.123 A 
HETATM    6  C4  UNK     1      19.567  -1.881  35.295  1.00  0.00     0.223 A 
HETATM    7  C5  UNK     1      20.022  -1.830  33.885  1.00  0.00     0.152 A 
HETATM    8  C7  UNK     1      17.819  -1.136  36.909  1.00  0.00     0.085 A 
HETATM    9  C8  UNK     1      16.507   0.247  34.863  1.00  0.00     0.075 A 
HETATM   10  C9  UNK     1      15.991   0.260  36.158  1.00  0.00     0.071 A 
HETATM   11  C10 UNK     1      16.645  -0.430  37.180  1.00  0.00     0.074 A 
ENDROOT
BRANCH   5  12
HETATM   12  C6  UNK     1      19.676  -1.024  31.574  1.00  0.00     0.001 A 
HETATM   13  C11 UNK     1      20.039  -2.166  30.858  1.00  0.00     0.014 A 
HETATM   14  C13 UNK     1      20.401  -2.062  29.515  1.00  0.00     0.001 A 
HETATM   15  C15 UNK     1      20.398  -0.816  28.886  1.00  0.00     0.000 A 
HETATM   16  C14 UNK     1      20.036   0.325  29.601  1.00  0.00     0.001 A 
HETATM   17  C12 UNK     1      19.674   0.221  30.944  1.00  0.00     0.014 A 
ENDBRANCH   5  12
BRANCH   7  18
HETATM   18  O2  UNK     1      21.187  -2.488  33.555  1.00  0.00    -0.355 OA
HETATM   19  H8  UNK     1      21.811  -1.869  33.144  1.00  0.00     0.218 HD
ENDBRANCH   7  18
BRANCH   8  20
HETATM   20  O3  UNK     1      18.418  -1.791  37.942  1.00  0.00    -0.360 OA
HETATM   21  H9  UNK     1      19.378  -1.665  37.913  1.00  0.00     0.217 HD
ENDBRANCH   8  20
BRANCH  10  22
HETATM   22  O5  UNK     1      14.848   0.948  36.427  1.00  0.00    -0.361 OA
HETATM   23  H10 UNK     1      14.392   1.141  35.590  1.00  0.00     0.217 HD
ENDBRANCH  10  22
TORSDOF 4
ENDMDL
MODEL 4
REMARK VINA RESULT:      -8.2     11.334     13.231
REMARK  4 active torsions:
REMARK  status: ('A' for Active; 'I' for Inactive)
REMARK    1  A    between atoms: C5_10  and  O2_2 
REMARK    2  A    between atoms: C7_12  and  O3_3 
REMARK    3  A    between atoms: C9_14  and  O5_5 
REMARK    4  A    between atoms: C3_8  and  C6_11 
ROOT
HETATM    1  O1  UNK     1      12.961   7.792   8.353  1.00  0.00    -0.306 OA
HETATM    2  O4  UNK     1      15.225   4.619   9.541  1.00  0.00    -0.284 OA
HETATM    3  C1  UNK     1      15.035   6.956   9.299  1.00  0.00     0.084 A 
HETATM    4  C2  UNK     1      14.214   7.998   8.873  1.00  0.00     0.096 A 
HETATM    5  C3  UNK     1      12.490   6.492   8.259  1.00  0.00     0.123 A 
HETATM    6  C4  UNK     1      14.545   5.574   9.189  1.00  0.00     0.223 A 
HETATM    7  C5  UNK     1      13.185   5.400   8.625  1.00  0.00     0.152 A 
HETATM    8  C7  UNK     1      16.303   7.226   9.820  1.00  0.00     0.085 A 
HETATM    9  C8  UNK     1      14.655   9.318   8.964  1.00  0.00     0.075 A 
HETATM   10  C9  UNK     1      15.920   9.592   9.485  1.00  0.00     0.071 A 
HETATM   11  C10 UNK     1      16.743   8.549   9.911  1.00  0.00     0.074 A 
ENDROOT
BRANCH   5  12
HETATM   12  C6  UNK     1      11.136   6.412   7.684  1.00  0.00     0.001 A 
HETATM   13  C11 UNK     1      10.970   6.261   6.306  1.00  0.00     0.014 A 
HETATM   14  C13 UNK     1       9.688   6.185   5.762  1.00  0.00     0.001 A 
HETATM   15  C15 UNK     1       8.571   6.258   6.594  1.00  0.00     0.000 A 
HETATM   16  C14 UNK     1       8.736   6.409   7.971  1.00  0.00     0.001 A 
HETATM   17  C12 UNK     1      10.018   6.485   8.515  1.00  0.00     0.014 A 
ENDBRANCH   5  12
BRANCH   7  18
HETATM   18  O2  UNK     1      12.700   4.118   8.487  1.00  0.00    -0.355 OA
HETATM   19  H8  UNK     1      13.423   3.514   8.253  1.00  0.00     0.218 HD
ENDBRANCH   7  18
BRANCH   8  20
HETATM   20  O3  UNK     1      17.145   6.246  10.249  1.00  0.00    -0.360 OA
HETATM   21  H9  UNK     1      16.656   5.567  10.737  1.00  0.00     0.217 HD
ENDBRANCH   8  20
BRANCH  10  22
HETATM   22  O5  UNK     1      16.353  10.879   9.575  1.00  0.00    -0.361 OA
HETATM   23  H10 UNK     1      17.193  10.895  10.066  1.00  0.00     0.217 HD
ENDBRANCH  10  22
TORSDOF 4
ENDMDL
MODEL 5
REMARK VINA RESULT:      -7.9     13.314     15.064
REMARK  4 active torsions:
REMARK  status: ('A' for Active; 'I' for Inactive)
REMARK    1  A    between atoms: C5_10  and  O2_2 
REMARK    2  A    between atoms: C7_12  and  O3_3 
REMARK    3  A    between atoms: C9_14  and  O5_5 
REMARK    4  A    between atoms: C3_8  and  C6_11 
ROOT
HETATM    1  O1  UNK     1       9.630   5.818   9.723  1.00  0.00    -0.306 OA
HETATM    2  O4  UNK     1       9.532   6.813   5.773  1.00  0.00    -0.284 OA
HETATM    3  C1  UNK     1      10.789   6.012   7.599  1.00  0.00     0.084 A 
HETATM    4  C2  UNK     1      10.758   5.691   8.955  1.00  0.00     0.096 A 
HETATM    5  C3  UNK     1       8.468   6.274   9.121  1.00  0.00     0.123 A 
HETATM    6  C4  UNK     1       9.562   6.509   6.958  1.00  0.00     0.223 A 
HETATM    7  C5  UNK     1       8.367   6.626   7.827  1.00  0.00     0.152 A 
HETATM    8  C7  UNK     1      11.969   5.863   6.866  1.00  0.00     0.085 A 
HETATM    9  C8  UNK     1      11.908   5.219   9.586  1.00  0.00     0.075 A 
HETATM   10  C9  UNK     1      13.089   5.068   8.858  1.00  0.00     0.071 A 
HETATM   11  C10 UNK     1      13.119   5.390   7.500  1.00  0.00     0.074 A 
ENDROOT
BRANCH   5  12
HETATM   12  C6  UNK     1       7.333   6.364  10.057  1.00  0.00     0.001 A 
HETATM   13  C11 UNK     1       6.507   5.258  10.262  1.00  0.00     0.014 A 
HETATM   14  C13 UNK     1       5.433   5.344  11.148  1.00  0.00     0.001 A 
HETATM   15  C15 UNK     1       5.184   6.536  11.829  1.00  0.00     0.000 A 
HETATM   16  C14 UNK     1       6.008   7.641  11.624  1.00  0.00     0.001 A 
HETATM   17  C12 UNK     1       7.083   7.556  10.739  1.00  0.00     0.014 A 
ENDBRANCH   5  12
BRANCH   7  18
HETATM   18  O2  UNK     1       7.203   7.108   7.267  1.00  0.00    -0.355 OA
HETATM   19  H8  UNK     1       7.055   6.691   6.403  1.00  0.00     0.218 HD
ENDBRANCH   7  18
BRANCH   8  20
HETATM   20  O3  UNK     1      12.053   6.163   5.540  1.00  0.00    -0.360 OA
HETATM   21  H9  UNK     1      11.213   5.976   5.095  1.00  0.00     0.217 HD
ENDBRANCH   8  20
BRANCH  10  22
HETATM   22  O5  UNK     1      14.212   4.608   9.472  1.00  0.00    -0.361 OA
HETATM   23  H10 UNK     1      14.357   5.118  10.288  1.00  0.00     0.217 HD
ENDBRANCH  10  22
TORSDOF 4
ENDMDL
MODEL 6
REMARK VINA RESULT:      -7.8     12.764     16.901
REMARK  4 active torsions:
REMARK  status: ('A' for Active; 'I' for Inactive)
REMARK    1  A    between atoms: C5_10  and  O2_2 
REMARK    2  A    between atoms: C7_12  and  O3_3 
REMARK    3  A    between atoms: C9_14  and  O5_5 
REMARK    4  A    between atoms: C3_8  and  C6_11 
ROOT
HETATM    1  O1  UNK     1      18.055   1.545  32.915  1.00  0.00    -0.306 OA
HETATM    2  O4  UNK     1      19.725  -1.957  31.668  1.00  0.00    -0.284 OA
HETATM    3  C1  UNK     1      19.035   0.231  31.124  1.00  0.00     0.084 A 
HETATM    4  C2  UNK     1      18.455   1.401  31.611  1.00  0.00     0.096 A 
HETATM    5  C3  UNK     1      18.246   0.485  33.786  1.00  0.00     0.123 A 
HETATM    6  C4  UNK     1      19.228  -0.902  32.041  1.00  0.00     0.223 A 
HETATM    7  C5  UNK     1      18.784  -0.699  33.441  1.00  0.00     0.152 A 
HETATM    8  C7  UNK     1      19.423   0.140  29.785  1.00  0.00     0.085 A 
HETATM    9  C8  UNK     1      18.260   2.489  30.761  1.00  0.00     0.075 A 
HETATM   10  C9  UNK     1      18.647   2.404  29.423  1.00  0.00     0.071 A 
HETATM   11  C10 UNK     1      19.227   1.232  28.936  1.00  0.00     0.074 A 
ENDROOT
BRANCH   5  12
HETATM   12  C6  UNK     1      17.772   0.771  35.152  1.00  0.00     0.001 A 
HETATM   13  C11 UNK     1      18.620   1.392  36.069  1.00  0.00     0.014 A 
HETATM   14  C13 UNK     1      18.171   1.663  37.362  1.00  0.00     0.001 A 
HETATM   15  C15 UNK     1      16.874   1.313  37.738  1.00  0.00     0.000 A 
HETATM   16  C14 UNK     1      16.026   0.692  36.822  1.00  0.00     0.001 A 
HETATM   17  C12 UNK     1      16.475   0.421  35.529  1.00  0.00     0.014 A 
ENDBRANCH   5  12
BRANCH   7  18
HETATM   18  O2  UNK     1      18.929  -1.746  34.326  1.00  0.00    -0.355 OA
HETATM   19  H8  UNK     1      19.539  -2.405  33.959  1.00  0.00     0.218 HD
ENDBRANCH   7  18
BRANCH   8  20
HETATM   20  O3  UNK     1      19.992  -0.980  29.259  1.00  0.00    -0.360 OA
HETATM   21  H9  UNK     1      20.321  -1.557  29.964  1.00  0.00     0.217 HD
ENDBRANCH   8  20
BRANCH  10  22
HETATM   22  O5  UNK     1      18.457   3.464  28.592  1.00  0.00    -0.361 OA
HETATM   23  H10 UNK     1      17.729   4.009  28.938  1.00  0.00     0.217 HD
ENDBRANCH  10  22
TORSDOF 4
ENDMDL
MODEL 7
REMARK VINA RESULT:      -7.8     13.999     16.704
REMARK  4 active torsions:
REMARK  status: ('A' for Active; 'I' for Inactive)
REMARK    1  A    between atoms: C5_10  and  O2_2 
REMARK    2  A    between atoms: C7_12  and  O3_3 
REMARK    3  A    between atoms: C9_14  and  O5_5 
REMARK    4  A    between atoms: C3_8  and  C6_11 
ROOT
HETATM    1  O1  UNK     1      18.141   3.106  33.179  1.00  0.00    -0.306 OA
HETATM    2  O4  UNK     1      19.281   1.715  29.523  1.00  0.00    -0.284 OA
HETATM    3  C1  UNK     1      18.731   1.225  31.762  1.00  0.00     0.084 A 
HETATM    4  C2  UNK     1      18.344   1.763  32.988  1.00  0.00     0.096 A 
HETATM    5  C3  UNK     1      18.318   3.961  32.103  1.00  0.00     0.123 A 
HETATM    6  C4  UNK     1      18.934   2.130  30.620  1.00  0.00     0.223 A 
HETATM    7  C5  UNK     1      18.699   3.571  30.873  1.00  0.00     0.152 A 
HETATM    8  C7  UNK     1      18.924  -0.152  31.626  1.00  0.00     0.085 A 
HETATM    9  C8  UNK     1      18.147   0.927  34.086  1.00  0.00     0.075 A 
HETATM   10  C9  UNK     1      18.338  -0.448  33.955  1.00  0.00     0.071 A 
HETATM   11  C10 UNK     1      18.726  -0.987  32.728  1.00  0.00     0.074 A 
ENDROOT
BRANCH   5  12
HETATM   12  C6  UNK     1      18.070   5.373  32.444  1.00  0.00     0.001 A 
HETATM   13  C11 UNK     1      19.108   6.165  32.936  1.00  0.00     0.014 A 
HETATM   14  C13 UNK     1      18.873   7.502  33.259  1.00  0.00     0.001 A 
HETATM   15  C15 UNK     1      17.600   8.048  33.089  1.00  0.00     0.000 A 
HETATM   16  C14 UNK     1      16.562   7.256  32.597  1.00  0.00     0.001 A 
HETATM   17  C12 UNK     1      16.797   5.920  32.275  1.00  0.00     0.014 A 
ENDBRANCH   5  12
BRANCH   7  18
HETATM   18  O2  UNK     1      18.899   4.453  29.833  1.00  0.00    -0.355 OA
HETATM   19  H8  UNK     1      18.964   3.966  28.995  1.00  0.00     0.218 HD
ENDBRANCH   7  18
BRANCH   8  20
HETATM   20  O3  UNK     1      19.304  -0.729  30.452  1.00  0.00    -0.360 OA
HETATM   21  H9  UNK     1      18.579  -1.255  30.083  1.00  0.00     0.217 HD
ENDBRANCH   8  20
BRANCH  10  22
HETATM   22  O5  UNK     1      18.146  -1.266  35.026  1.00  0.00    -0.361 OA
HETATM   23  H10 UNK     1      18.723  -2.044  34.936  1.00  0.00     0.217 HD
ENDBRANCH  10  22
TORSDOF 4
ENDMDL
MODEL 8
REMARK VINA RESULT:      -7.7     13.868     17.299
REMARK  4 active torsions:
REMARK  status: ('A' for Active; 'I' for Inactive)
REMARK    1  A    between atoms: C5_10  and  O2_2 
REMARK    2  A    between atoms: C7_12  and  O3_3 
REMARK    3  A    between atoms: C9_14  and  O5_5 
REMARK    4  A    between atoms: C3_8  and  C6_11 
ROOT
HETATM    1  O1  UNK     1      19.526  -1.473  33.690  1.00  0.00    -0.306 OA
HETATM    2  O4  UNK     1      17.303   1.525  35.327  1.00  0.00    -0.284 OA
HETATM    3  C1  UNK     1      18.449  -0.511  35.642  1.00  0.00     0.084 A 
HETATM    4  C2  UNK     1      19.203  -1.506  35.023  1.00  0.00     0.096 A 
HETATM    5  C3  UNK     1      19.092  -0.397  32.932  1.00  0.00     0.123 A 
HETATM    6  C4  UNK     1      17.974   0.626  34.839  1.00  0.00     0.223 A 
HETATM    7  C5  UNK     1      18.350   0.621  33.405  1.00  0.00     0.152 A 
HETATM    8  C7  UNK     1      18.150  -0.598  37.004  1.00  0.00     0.085 A 
HETATM    9  C8  UNK     1      19.664  -2.595  35.762  1.00  0.00     0.075 A 
HETATM   10  C9  UNK     1      19.369  -2.685  37.122  1.00  0.00     0.071 A 
HETATM   11  C10 UNK     1      18.613  -1.689  37.742  1.00  0.00     0.074 A 
ENDROOT
BRANCH   5  12
HETATM   12  C6  UNK     1      19.504  -0.486  31.520  1.00  0.00     0.001 A 
HETATM   13  C11 UNK     1      19.423   0.638  30.697  1.00  0.00     0.014 A 
HETATM   14  C13 UNK     1      19.814   0.554  29.360  1.00  0.00     0.001 A 
HETATM   15  C15 UNK     1      20.287  -0.654  28.846  1.00  0.00     0.000 A 
HETATM   16  C14 UNK     1      20.368  -1.777  29.668  1.00  0.00     0.001 A 
HETATM   17  C12 UNK     1      19.977  -1.693  31.004  1.00  0.00     0.014 A 
ENDBRANCH   5  12
BRANCH   7  18
HETATM   18  O2  UNK     1      17.906   1.659  32.615  1.00  0.00    -0.355 OA
HETATM   19  H8  UNK     1      16.937   1.639  32.558  1.00  0.00     0.218 HD
ENDBRANCH   7  18
BRANCH   8  20
HETATM   20  O3  UNK     1      17.417   0.345  37.657  1.00  0.00    -0.360 OA
HETATM   21  H9  UNK     1      17.000  -0.034  38.446  1.00  0.00     0.217 HD
ENDBRANCH   8  20
BRANCH  10  22
HETATM   22  O5  UNK     1      19.817  -3.747  37.846  1.00  0.00    -0.361 OA
HETATM   23  H10 UNK     1      20.788  -3.771  37.802  1.00  0.00     0.217 HD
ENDBRANCH  10  22
TORSDOF 4
ENDMDL
MODEL 9
REMARK VINA RESULT:      -7.6     15.353     17.962
REMARK  4 active torsions:
REMARK  status: ('A' for Active; 'I' for Inactive)
REMARK    1  A    between atoms: C5_10  and  O2_2 
REMARK    2  A    between atoms: C7_12  and  O3_3 
REMARK    3  A    between atoms: C9_14  and  O5_5 
REMARK    4  A    between atoms: C3_8  and  C6_11 
ROOT
HETATM    1  O1  UNK     1      18.361   3.530  34.514  1.00  0.00    -0.306 OA
HETATM    2  O4  UNK     1      18.353   1.569  30.942  1.00  0.00    -0.284 OA
HETATM    3  C1  UNK     1      18.345   1.431  33.295  1.00  0.00     0.084 A 
HETATM    4  C2  UNK     1      18.351   2.159  34.483  1.00  0.00     0.096 A 
HETATM    5  C3  UNK     1      18.354   4.218  33.311  1.00  0.00     0.123 A 
HETATM    6  C4  UNK     1      18.351   2.156  32.016  1.00  0.00     0.223 A 
HETATM    7  C5  UNK     1      18.358   3.636  32.099  1.00  0.00     0.152 A 
HETATM    8  C7  UNK     1      18.335   0.034  33.325  1.00  0.00     0.085 A 
HETATM    9  C8  UNK     1      18.347   1.495  35.709  1.00  0.00     0.075 A 
HETATM   10  C9  UNK     1      18.336   0.101  35.744  1.00  0.00     0.071 A 
HETATM   11  C10 UNK     1      18.330  -0.629  34.554  1.00  0.00     0.074 A 
ENDROOT
BRANCH   5  12
HETATM   12  C6  UNK     1      18.368   5.681  33.486  1.00  0.00     0.001 A 
HETATM   13  C11 UNK     1      19.570   6.343  33.743  1.00  0.00     0.014 A 
HETATM   14  C13 UNK     1      19.583   7.728  33.909  1.00  0.00     0.001 A 
HETATM   15  C15 UNK     1      18.394   8.453  33.817  1.00  0.00     0.000 A 
HETATM   16  C14 UNK     1      17.193   7.793  33.561  1.00  0.00     0.001 A 
HETATM   17  C12 UNK     1      17.180   6.408  33.395  1.00  0.00     0.014 A 
ENDBRANCH   5  12
BRANCH   7  18
HETATM   18  O2  UNK     1      18.385   4.351  30.921  1.00  0.00    -0.355 OA
HETATM   19  H8  UNK     1      17.503   4.709  30.732  1.00  0.00     0.218 HD
ENDBRANCH   7  18
BRANCH   8  20
HETATM   20  O3  UNK     1      18.330  -0.725  32.194  1.00  0.00    -0.360 OA
HETATM   21  H9  UNK     1      19.171  -1.196  32.098  1.00  0.00     0.217 HD
ENDBRANCH   8  20
BRANCH  10  22
HETATM   22  O5  UNK     1      18.333  -0.550  36.939  1.00  0.00    -0.361 OA
HETATM   23  H10 UNK     1      18.809  -1.392  36.841  1.00  0.00     0.217 HD
ENDBRANCH  10  22
TORSDOF 4
ENDMDL
MODEL 10
REMARK VINA RESULT:      -7.5     14.587     16.805
REMARK  4 active torsions:
REMARK  status: ('A' for Active; 'I' for Inactive)
REMARK    1  A    between atoms: C5_10  and  O2_2 
REMARK    2  A    between atoms: C7_12  and  O3_3 
REMARK    3  A    between atoms: C9_14  and  O5_5 
REMARK    4  A    between atoms: C3_8  and  C6_11 
ROOT
HETATM    1  O1  UNK     1      17.909   3.496  33.836  1.00  0.00    -0.306 OA
HETATM    2  O4  UNK     1      18.943   2.578  30.003  1.00  0.00    -0.284 OA
HETATM    3  C1  UNK     1      18.477   4.249  31.599  1.00  0.00     0.084 A 
HETATM    4  C2  UNK     1      18.120   4.498  32.923  1.00  0.00     0.096 A 
HETATM    5  C3  UNK     1      18.070   2.183  33.426  1.00  0.00     0.123 A 
HETATM    6  C4  UNK     1      18.637   2.856  31.155  1.00  0.00     0.223 A 
HETATM    7  C5  UNK     1      18.403   1.809  32.177  1.00  0.00     0.152 A 
HETATM    8  C7  UNK     1      18.678   5.310  30.712  1.00  0.00     0.085 A 
HETATM    9  C8  UNK     1      17.960   5.809  33.369  1.00  0.00     0.075 A 
HETATM   10  C9  UNK     1      18.161   6.871  32.487  1.00  0.00     0.071 A 
HETATM   11  C10 UNK     1      18.519   6.623  31.161  1.00  0.00     0.074 A 
ENDROOT
BRANCH   5  12
HETATM   12  C6  UNK     1      17.813   1.209  34.501  1.00  0.00     0.001 A 
HETATM   13  C11 UNK     1      16.574   0.572  34.585  1.00  0.00     0.014 A 
HETATM   14  C13 UNK     1      16.331  -0.350  35.603  1.00  0.00     0.001 A 
HETATM   15  C15 UNK     1      17.326  -0.636  36.538  1.00  0.00     0.000 A 
HETATM   16  C14 UNK     1      18.564  -0.000  36.455  1.00  0.00     0.001 A 
HETATM   17  C12 UNK     1      18.808   0.922  35.436  1.00  0.00     0.014 A 
ENDBRANCH   5  12
BRANCH   7  18
HETATM   18  O2  UNK     1      18.522   0.490  31.793  1.00  0.00    -0.355 OA
HETATM   19  H8  UNK     1      18.548   0.430  30.825  1.00  0.00     0.218 HD
ENDBRANCH   7  18
BRANCH   8  20
HETATM   20  O3  UNK     1      19.027   5.123  29.409  1.00  0.00    -0.360 OA
HETATM   21  H9  UNK     1      18.724   4.257  29.098  1.00  0.00     0.217 HD
ENDBRANCH   8  20
BRANCH  10  22
HETATM   22  O5  UNK     1      18.006   8.152  32.920  1.00  0.00    -0.361 OA
HETATM   23  H10 UNK     1      18.176   8.185  33.877  1.00  0.00     0.217 HD
ENDBRANCH  10  22
TORSDOF 4
ENDMDL
