MODEL 1
REMARK VINA RESULT:      -9.8      0.000      0.000
REMARK  4 active torsions:
REMARK  status: ('A' for Active; 'I' for Inactive)
REMARK    1  A    between atoms: C5_9  and  N1_3 
REMARK    2  A    between atoms: C6_10  and  N2_4 
REMARK    3  A    between atoms: C5_9  and  C7_11 
REMARK    4  A    between atoms: C6_10  and  C8_12 
ROOT
HETATM    1  N1  UNK     1      18.363   5.666  32.236  1.00  0.00     0.096 N 
HETATM    2  N2  UNK     1      18.870   3.405  30.506  1.00  0.00     0.096 N 
HETATM    3  C1  UNK     1      19.362   5.737  31.162  1.00  0.00     0.303 C 
HETATM    4  C2  UNK     1      18.236   4.288  32.726  1.00  0.00     0.303 C 
HETATM    5  C3  UNK     1      19.000   4.783  30.018  1.00  0.00     0.303 C 
HETATM    6  C4  UNK     1      17.873   3.335  31.582  1.00  0.00     0.303 C 
ENDROOT
BRANCH   1   7
HETATM    7  C5  UNK     1      18.710   6.575  33.327  1.00  0.00     0.312 C 
BRANCH   7   8
HETATM    8  C7  UNK     1      17.518   7.435  33.549  1.00  0.00    -0.011 A 
HETATM    9  C10 UNK     1      16.279   6.922  33.523  1.00  0.00     0.092 A 
HETATM   10  C15 UNK     1      15.070   7.735  33.738  1.00  0.00     0.288 A 
HETATM   11  O1  UNK     1      15.261   9.087  33.975  1.00  0.00    -0.275 OA
HETATM   12  O2  UNK     1      13.952   7.231  33.708  1.00  0.00    -0.260 OA
HETATM   13  C11 UNK     1      16.551   9.654  34.008  1.00  0.00     0.090 A 
HETATM   14  C9  UNK     1      17.688   8.873  33.802  1.00  0.00     0.006 A 
HETATM   15  C16 UNK     1      16.624  11.026  34.255  1.00  0.00     0.045 A 
HETATM   16  C14 UNK     1      18.934   9.512  33.850  1.00  0.00     0.015 A 
HETATM   17  C21 UNK     1      19.023  10.887  34.097  1.00  0.00     0.007 A 
HETATM   18  C20 UNK     1      17.870  11.643  34.299  1.00  0.00    -0.059 A 
HETATM   19  C23 UNK     1      17.972  13.108  34.559  1.00  0.00     0.048 C 
ENDBRANCH   7   8
ENDBRANCH   1   7
BRANCH   2  20
HETATM   20  C6  UNK     1      18.522   2.497  29.415  1.00  0.00     0.311 C 
BRANCH  20  21
HETATM   21  C8  UNK     1      19.111   1.145  29.681  1.00  0.00    -0.030 A 
HETATM   22  C12 UNK     1      19.383   0.282  28.620  1.00  0.00     0.009 A 
HETATM   23  C17 UNK     1      19.929  -0.977  28.867  1.00  0.00     0.007 A 
HETATM   24  C19 UNK     1      20.204  -1.373  30.176  1.00  0.00    -0.062 A 
HETATM   25  C18 UNK     1      19.933  -0.509  31.238  1.00  0.00     0.007 A 
HETATM   26  C22 UNK     1      20.789  -2.718  30.441  1.00  0.00     0.048 C 
HETATM   27  C13 UNK     1      19.386   0.749  30.990  1.00  0.00     0.009 A 
ENDBRANCH  20  21
ENDBRANCH   2  20
TORSDOF 4
ENDMDL
MODEL 2
REMARK VINA RESULT:      -9.3     16.304     17.791
REMARK  4 active torsions:
REMARK  status: ('A' for Active; 'I' for Inactive)
REMARK    1  A    between atoms: C5_9  and  N1_3 
REMARK    2  A    between atoms: C6_10  and  N2_4 
REMARK    3  A    between atoms: C5_9  and  C7_11 
REMARK    4  A    between atoms: C6_10  and  C8_12 
ROOT
HETATM    1  N1  UNK     1      30.752  -5.806  35.413  1.00  0.00     0.096 N 
HETATM    2  N2  UNK     1      29.987  -6.187  32.650  1.00  0.00     0.096 N 
HETATM    3  C1  UNK     1      31.744  -5.746  34.331  1.00  0.00     0.303 C 
HETATM    4  C2  UNK     1      29.647  -6.699  35.044  1.00  0.00     0.303 C 
HETATM    5  C3  UNK     1      31.093  -5.296  33.019  1.00  0.00     0.303 C 
HETATM    6  C4  UNK     1      28.995  -6.248  33.732  1.00  0.00     0.303 C 
ENDROOT
BRANCH   1   7
HETATM    7  C5  UNK     1      31.373  -6.237  36.663  1.00  0.00     0.312 C 
BRANCH   7   8
HETATM    8  C7  UNK     1      30.376  -5.979  37.735  1.00  0.00    -0.011 A 
HETATM    9  C10 UNK     1      30.212  -4.751  38.248  1.00  0.00     0.092 A 
HETATM   10  C15 UNK     1      29.238  -4.448  39.310  1.00  0.00     0.288 A 
HETATM   11  O1  UNK     1      28.474  -5.506  39.776  1.00  0.00    -0.275 OA
HETATM   12  O2  UNK     1      29.115  -3.311  39.754  1.00  0.00    -0.260 OA
HETATM   13  C11 UNK     1      28.624  -6.808  39.257  1.00  0.00     0.090 A 
HETATM   14  C9  UNK     1      29.551  -7.081  38.251  1.00  0.00     0.006 A 
HETATM   15  C16 UNK     1      27.802  -7.796  39.802  1.00  0.00     0.045 A 
HETATM   16  C14 UNK     1      29.641  -8.401  37.789  1.00  0.00     0.015 A 
HETATM   17  C21 UNK     1      28.823  -9.403  38.325  1.00  0.00     0.007 A 
HETATM   18  C20 UNK     1      27.906  -9.101  39.330  1.00  0.00    -0.059 A 
HETATM   19  C23 UNK     1      27.039 -10.174  39.898  1.00  0.00     0.048 C 
ENDBRANCH   7   8
ENDBRANCH   1   7
BRANCH   2  20
HETATM   20  C6  UNK     1      29.366  -5.754  31.400  1.00  0.00     0.311 C 
BRANCH  20  21
HETATM   21  C8  UNK     1      29.093  -6.948  30.536  1.00  0.00    -0.030 A 
HETATM   22  C12 UNK     1      27.865  -7.603  30.620  1.00  0.00     0.009 A 
HETATM   23  C17 UNK     1      27.611  -8.715  29.817  1.00  0.00     0.007 A 
HETATM   24  C19 UNK     1      28.587  -9.172  28.931  1.00  0.00    -0.062 A 
HETATM   25  C18 UNK     1      29.816  -8.517  28.848  1.00  0.00     0.007 A 
HETATM   26  C22 UNK     1      28.316 -10.360  28.072  1.00  0.00     0.048 C 
HETATM   27  C13 UNK     1      30.068  -7.405  29.650  1.00  0.00     0.009 A 
ENDBRANCH  20  21
ENDBRANCH   2  20
TORSDOF 4
ENDMDL
MODEL 3
REMARK VINA RESULT:      -9.3      8.079     11.602
REMARK  4 active torsions:
REMARK  status: ('A' for Active; 'I' for Inactive)
REMARK    1  A    between atoms: C5_9  and  N1_3 
REMARK    2  A    between atoms: C6_10  and  N2_4 
REMARK    3  A    between atoms: C5_9  and  C7_11 
REMARK    4  A    between atoms: C6_10  and  C8_12 
ROOT
HETATM    1  N1  UNK     1      20.064  -3.788  36.597  1.00  0.00     0.096 N 
HETATM    2  N2  UNK     1      20.421  -6.636  36.956  1.00  0.00     0.096 N 
HETATM    3  C1  UNK     1      20.146  -4.698  35.446  1.00  0.00     0.303 C 
HETATM    4  C2  UNK     1      20.832  -4.324  37.728  1.00  0.00     0.303 C 
HETATM    5  C3  UNK     1      19.656  -6.100  35.824  1.00  0.00     0.303 C 
HETATM    6  C4  UNK     1      20.340  -5.726  38.106  1.00  0.00     0.303 C 
ENDROOT
BRANCH   1   7
HETATM    7  C5  UNK     1      20.534  -2.453  36.236  1.00  0.00     0.312 C 
BRANCH   7   8
HETATM    8  C7  UNK     1      19.501  -1.874  35.338  1.00  0.00    -0.011 A 
HETATM    9  C10 UNK     1      18.350  -1.390  35.828  1.00  0.00     0.092 A 
HETATM   10  C15 UNK     1      17.298  -0.807  34.978  1.00  0.00     0.288 A 
HETATM   11  O1  UNK     1      17.544  -0.776  33.615  1.00  0.00    -0.275 OA
HETATM   12  O2  UNK     1      16.258  -0.373  35.463  1.00  0.00    -0.260 OA
HETATM   13  C11 UNK     1      18.744  -1.277  33.071  1.00  0.00     0.090 A 
HETATM   14  C9  UNK     1      19.732  -1.827  33.888  1.00  0.00     0.006 A 
HETATM   15  C16 UNK     1      18.884  -1.194  31.684  1.00  0.00     0.045 A 
HETATM   16  C14 UNK     1      20.895  -2.305  33.270  1.00  0.00     0.015 A 
HETATM   17  C21 UNK     1      21.050  -2.228  31.881  1.00  0.00     0.007 A 
HETATM   18  C20 UNK     1      20.046  -1.674  31.089  1.00  0.00    -0.059 A 
HETATM   19  C23 UNK     1      20.217  -1.597  29.610  1.00  0.00     0.048 C 
ENDBRANCH   7   8
ENDBRANCH   1   7
BRANCH   2  20
HETATM   20  C6  UNK     1      19.949  -7.971  37.316  1.00  0.00     0.311 C 
BRANCH  20  21
HETATM   21  C8  UNK     1      20.956  -8.992  36.883  1.00  0.00    -0.030 A 
HETATM   22  C12 UNK     1      22.318  -8.700  36.948  1.00  0.00     0.009 A 
HETATM   23  C17 UNK     1      23.256  -9.650  36.543  1.00  0.00     0.007 A 
HETATM   24  C19 UNK     1      22.831 -10.893  36.072  1.00  0.00    -0.062 A 
HETATM   25  C18 UNK     1      21.467 -11.185  36.007  1.00  0.00     0.007 A 
HETATM   26  C22 UNK     1      23.832 -11.909  35.639  1.00  0.00     0.048 C 
HETATM   27  C13 UNK     1      20.531 -10.235  36.412  1.00  0.00     0.009 A 
ENDBRANCH  20  21
ENDBRANCH   2  20
TORSDOF 4
ENDMDL
MODEL 4
REMARK VINA RESULT:      -9.2      7.736     11.213
REMARK  4 active torsions:
REMARK  status: ('A' for Active; 'I' for Inactive)
REMARK    1  A    between atoms: C5_9  and  N1_3 
REMARK    2  A    between atoms: C6_10  and  N2_4 
REMARK    3  A    between atoms: C5_9  and  C7_11 
REMARK    4  A    between atoms: C6_10  and  C8_12 
ROOT
HETATM    1  N1  UNK     1      20.161  -3.717  36.442  1.00  0.00     0.096 N 
HETATM    2  N2  UNK     1      20.462  -6.570  36.809  1.00  0.00     0.096 N 
HETATM    3  C1  UNK     1      20.256  -4.628  35.294  1.00  0.00     0.303 C 
HETATM    4  C2  UNK     1      20.892  -4.266  37.591  1.00  0.00     0.303 C 
HETATM    5  C3  UNK     1      19.733  -6.022  35.659  1.00  0.00     0.303 C 
HETATM    6  C4  UNK     1      20.368  -5.659  37.957  1.00  0.00     0.303 C 
ENDROOT
BRANCH   1   7
HETATM    7  C5  UNK     1      20.661  -2.390  36.094  1.00  0.00     0.312 C 
BRANCH   7   8
HETATM    8  C7  UNK     1      19.709  -1.833  35.097  1.00  0.00    -0.011 A 
HETATM    9  C10 UNK     1      19.921  -1.980  33.781  1.00  0.00     0.092 A 
HETATM   10  C15 UNK     1      19.006  -1.446  32.757  1.00  0.00     0.288 A 
HETATM   11  O1  UNK     1      17.888  -0.768  33.212  1.00  0.00    -0.275 OA
HETATM   12  O2  UNK     1      19.232  -1.601  31.561  1.00  0.00    -0.260 OA
HETATM   13  C11 UNK     1      17.639  -0.598  34.589  1.00  0.00     0.090 A 
HETATM   14  C9  UNK     1      18.514  -1.108  35.549  1.00  0.00     0.006 A 
HETATM   15  C16 UNK     1      16.481   0.102  34.933  1.00  0.00     0.045 A 
HETATM   16  C14 UNK     1      18.196  -0.897  36.897  1.00  0.00     0.015 A 
HETATM   17  C21 UNK     1      17.039  -0.196  37.257  1.00  0.00     0.007 A 
HETATM   18  C20 UNK     1      16.183   0.302  36.277  1.00  0.00    -0.059 A 
HETATM   19  C23 UNK     1      14.953   1.049  36.669  1.00  0.00     0.048 C 
ENDBRANCH   7   8
ENDBRANCH   1   7
BRANCH   2  20
HETATM   20  C6  UNK     1      19.960  -7.898  37.158  1.00  0.00     0.311 C 
BRANCH  20  21
HETATM   21  C8  UNK     1      20.972  -8.933  36.772  1.00  0.00    -0.030 A 
HETATM   22  C12 UNK     1      22.333  -8.660  36.900  1.00  0.00     0.009 A 
HETATM   23  C17 UNK     1      23.276  -9.623  36.539  1.00  0.00     0.007 A 
HETATM   24  C19 UNK     1      22.856 -10.860  36.051  1.00  0.00    -0.062 A 
HETATM   25  C18 UNK     1      21.493 -11.134  35.923  1.00  0.00     0.007 A 
HETATM   26  C22 UNK     1      23.862 -11.891  35.666  1.00  0.00     0.048 C 
HETATM   27  C13 UNK     1      20.552 -10.170  36.283  1.00  0.00     0.009 A 
ENDBRANCH  20  21
ENDBRANCH   2  20
TORSDOF 4
ENDMDL
MODEL 5
REMARK VINA RESULT:      -9.0      2.581      9.707
REMARK  4 active torsions:
REMARK  status: ('A' for Active; 'I' for Inactive)
REMARK    1  A    between atoms: C5_9  and  N1_3 
REMARK    2  A    between atoms: C6_10  and  N2_4 
REMARK    3  A    between atoms: C5_9  and  C7_11 
REMARK    4  A    between atoms: C6_10  and  C8_12 
ROOT
HETATM    1  N1  UNK     1      18.622   4.690  32.398  1.00  0.00     0.096 N 
HETATM    2  N2  UNK     1      18.970   7.445  33.205  1.00  0.00     0.096 N 
HETATM    3  C1  UNK     1      19.601   5.561  31.734  1.00  0.00     0.303 C 
HETATM    4  C2  UNK     1      17.498   5.482  32.911  1.00  0.00     0.303 C 
HETATM    5  C3  UNK     1      20.093   6.654  32.690  1.00  0.00     0.303 C 
HETATM    6  C4  UNK     1      17.991   6.573  33.867  1.00  0.00     0.303 C 
ENDROOT
BRANCH   1   7
HETATM    7  C5  UNK     1      18.152   3.650  31.486  1.00  0.00     0.312 C 
BRANCH   7   8
HETATM    8  C7  UNK     1      18.376   2.354  32.178  1.00  0.00    -0.011 A 
HETATM    9  C10 UNK     1      18.042   2.191  33.467  1.00  0.00     0.092 A 
HETATM   10  C15 UNK     1      18.245   0.926  34.194  1.00  0.00     0.288 A 
HETATM   11  O1  UNK     1      18.808  -0.120  33.481  1.00  0.00    -0.275 OA
HETATM   12  O2  UNK     1      17.926   0.813  35.373  1.00  0.00    -0.260 OA
HETATM   13  C11 UNK     1      19.169   0.022  32.126  1.00  0.00     0.090 A 
HETATM   14  C9  UNK     1      18.972   1.226  31.449  1.00  0.00     0.006 A 
HETATM   15  C16 UNK     1      19.728  -1.098  31.508  1.00  0.00     0.045 A 
HETATM   16  C14 UNK     1      19.358   1.287  30.103  1.00  0.00     0.015 A 
HETATM   17  C21 UNK     1      19.920   0.172  29.470  1.00  0.00     0.007 A 
HETATM   18  C20 UNK     1      20.105  -1.018  30.171  1.00  0.00    -0.059 A 
HETATM   19  C23 UNK     1      20.707  -2.201  29.490  1.00  0.00     0.048 C 
ENDBRANCH   7   8
ENDBRANCH   1   7
BRANCH   2  20
HETATM   20  C6  UNK     1      19.441   8.484  34.118  1.00  0.00     0.311 C 
BRANCH  20  21
HETATM   21  C8  UNK     1      18.484   9.637  34.103  1.00  0.00    -0.030 A 
HETATM   22  C12 UNK     1      17.110   9.402  34.130  1.00  0.00     0.009 A 
HETATM   23  C17 UNK     1      16.219  10.475  34.114  1.00  0.00     0.007 A 
HETATM   24  C19 UNK     1      16.702  11.783  34.070  1.00  0.00    -0.062 A 
HETATM   25  C18 UNK     1      18.078  12.017  34.043  1.00  0.00     0.007 A 
HETATM   26  C22 UNK     1      15.751  12.930  34.054  1.00  0.00     0.048 C 
HETATM   27  C13 UNK     1      18.968  10.944  34.059  1.00  0.00     0.009 A 
ENDBRANCH  20  21
ENDBRANCH   2  20
TORSDOF 4
ENDMDL
MODEL 6
REMARK VINA RESULT:      -9.0     17.086     19.767
REMARK  4 active torsions:
REMARK  status: ('A' for Active; 'I' for Inactive)
REMARK    1  A    between atoms: C5_9  and  N1_3 
REMARK    2  A    between atoms: C6_10  and  N2_4 
REMARK    3  A    between atoms: C5_9  and  C7_11 
REMARK    4  A    between atoms: C6_10  and  C8_12 
ROOT
HETATM    1  N1  UNK     1      31.483  -5.974  35.684  1.00  0.00     0.096 N 
HETATM    2  N2  UNK     1      34.070  -6.423  34.473  1.00  0.00     0.096 N 
HETATM    3  C1  UNK     1      31.952  -7.330  35.369  1.00  0.00     0.303 C 
HETATM    4  C2  UNK     1      32.069  -5.001  34.755  1.00  0.00     0.303 C 
HETATM    5  C3  UNK     1      33.483  -7.398  35.401  1.00  0.00     0.303 C 
HETATM    6  C4  UNK     1      33.599  -5.068  34.787  1.00  0.00     0.303 C 
ENDROOT
BRANCH   1   7
HETATM    7  C5  UNK     1      30.024  -5.911  35.652  1.00  0.00     0.312 C 
BRANCH   7   8
HETATM    8  C7  UNK     1      29.577  -5.827  37.067  1.00  0.00    -0.011 A 
HETATM    9  C10 UNK     1      29.766  -4.713  37.789  1.00  0.00     0.092 A 
HETATM   10  C15 UNK     1      29.340  -4.584  39.193  1.00  0.00     0.288 A 
HETATM   11  O1  UNK     1      28.721  -5.686  39.760  1.00  0.00    -0.275 OA
HETATM   12  O2  UNK     1      29.529  -3.548  39.821  1.00  0.00    -0.260 OA
HETATM   13  C11 UNK     1      28.509  -6.871  39.027  1.00  0.00     0.090 A 
HETATM   14  C9  UNK     1      28.917  -6.980  37.698  1.00  0.00     0.006 A 
HETATM   15  C16 UNK     1      27.876  -7.918  39.700  1.00  0.00     0.045 A 
HETATM   16  C14 UNK     1      28.672  -8.191  37.038  1.00  0.00     0.015 A 
HETATM   17  C21 UNK     1      28.037  -9.249  37.699  1.00  0.00     0.007 A 
HETATM   18  C20 UNK     1      27.640  -9.113  39.028  1.00  0.00    -0.059 A 
HETATM   19  C23 UNK     1      26.967 -10.245  39.727  1.00  0.00     0.048 C 
ENDBRANCH   7   8
ENDBRANCH   1   7
BRANCH   2  20
HETATM   20  C6  UNK     1      35.529  -6.487  34.507  1.00  0.00     0.311 C 
BRANCH  20  21
HETATM   21  C8  UNK     1      36.008  -7.537  33.551  1.00  0.00    -0.030 A 
HETATM   22  C12 UNK     1      35.438  -7.636  32.282  1.00  0.00     0.009 A 
HETATM   23  C17 UNK     1      35.882  -8.614  31.392  1.00  0.00     0.007 A 
HETATM   24  C19 UNK     1      36.896  -9.494  31.772  1.00  0.00    -0.062 A 
HETATM   25  C18 UNK     1      37.466  -9.395  33.042  1.00  0.00     0.007 A 
HETATM   26  C22 UNK     1      37.372 -10.539  30.822  1.00  0.00     0.048 C 
HETATM   27  C13 UNK     1      37.021  -8.417  33.931  1.00  0.00     0.009 A 
ENDBRANCH  20  21
ENDBRANCH   2  20
TORSDOF 4
ENDMDL
MODEL 7
REMARK VINA RESULT:      -8.6     16.010     18.888
REMARK  4 active torsions:
REMARK  status: ('A' for Active; 'I' for Inactive)
REMARK    1  A    between atoms: C5_9  and  N1_3 
REMARK    2  A    between atoms: C6_10  and  N2_4 
REMARK    3  A    between atoms: C5_9  and  C7_11 
REMARK    4  A    between atoms: C6_10  and  C8_12 
ROOT
HETATM    1  N1  UNK     1      26.713  -9.146  37.623  1.00  0.00     0.096 N 
HETATM    2  N2  UNK     1      29.569  -9.060  38.068  1.00  0.00     0.096 N 
HETATM    3  C1  UNK     1      27.601  -8.382  36.736  1.00  0.00     0.303 C 
HETATM    4  C2  UNK     1      27.276  -9.211  38.977  1.00  0.00     0.303 C 
HETATM    5  C3  UNK     1      29.006  -8.993  36.714  1.00  0.00     0.303 C 
HETATM    6  C4  UNK     1      28.681  -9.823  38.955  1.00  0.00     0.303 C 
ENDROOT
BRANCH   1   7
HETATM    7  C5  UNK     1      25.374  -8.563  37.644  1.00  0.00     0.312 C 
BRANCH   7   8
HETATM    8  C7  UNK     1      24.481  -9.540  36.969  1.00  0.00    -0.011 A 
HETATM    9  C10 UNK     1      24.972 -10.658  36.413  1.00  0.00     0.092 A 
HETATM   10  C15 UNK     1      24.126 -11.655  35.735  1.00  0.00     0.288 A 
HETATM   11  O1  UNK     1      22.767 -11.391  35.688  1.00  0.00    -0.275 OA
HETATM   12  O2  UNK     1      24.611 -12.666  35.238  1.00  0.00    -0.260 OA
HETATM   13  C11 UNK     1      22.222 -10.226  36.263  1.00  0.00     0.090 A 
HETATM   14  C9  UNK     1      23.035  -9.289  36.903  1.00  0.00     0.006 A 
HETATM   15  C16 UNK     1      20.839 -10.064  36.157  1.00  0.00     0.045 A 
HETATM   16  C14 UNK     1      22.417  -8.156  37.448  1.00  0.00     0.015 A 
HETATM   17  C21 UNK     1      21.031  -7.980  37.349  1.00  0.00     0.007 A 
HETATM   18  C20 UNK     1      20.244  -8.932  36.704  1.00  0.00    -0.059 A 
HETATM   19  C23 UNK     1      18.769  -8.736  36.601  1.00  0.00     0.048 C 
ENDBRANCH   7   8
ENDBRANCH   1   7
BRANCH   2  20
HETATM   20  C6  UNK     1      30.908  -9.645  38.046  1.00  0.00     0.311 C 
BRANCH  20  21
HETATM   21  C8  UNK     1      31.900  -8.611  37.608  1.00  0.00    -0.030 A 
HETATM   22  C12 UNK     1      32.631  -8.798  36.435  1.00  0.00     0.009 A 
HETATM   23  C17 UNK     1      33.555  -7.836  36.028  1.00  0.00     0.007 A 
HETATM   24  C19 UNK     1      33.749  -6.688  36.795  1.00  0.00    -0.062 A 
HETATM   25  C18 UNK     1      33.018  -6.501  37.969  1.00  0.00     0.007 A 
HETATM   26  C22 UNK     1      34.737  -5.659  36.361  1.00  0.00     0.048 C 
HETATM   27  C13 UNK     1      32.094  -7.462  38.375  1.00  0.00     0.009 A 
ENDBRANCH  20  21
ENDBRANCH   2  20
TORSDOF 4
ENDMDL
MODEL 8
REMARK VINA RESULT:      -8.6     22.495     24.709
REMARK  4 active torsions:
REMARK  status: ('A' for Active; 'I' for Inactive)
REMARK    1  A    between atoms: C5_9  and  N1_3 
REMARK    2  A    between atoms: C6_10  and  N2_4 
REMARK    3  A    between atoms: C5_9  and  C7_11 
REMARK    4  A    between atoms: C6_10  and  C8_12 
ROOT
HETATM    1  N1  UNK     1      15.213   9.288   9.727  1.00  0.00     0.096 N 
HETATM    2  N2  UNK     1      17.208  11.334   9.283  1.00  0.00     0.096 N 
HETATM    3  C1  UNK     1      14.865  10.714   9.770  1.00  0.00     0.303 C 
HETATM    4  C2  UNK     1      16.611   9.090  10.129  1.00  0.00     0.303 C 
HETATM    5  C3  UNK     1      15.810  11.532   8.883  1.00  0.00     0.303 C 
HETATM    6  C4  UNK     1      17.555   9.908   9.241  1.00  0.00     0.303 C 
ENDROOT
BRANCH   1   7
HETATM    7  C5  UNK     1      14.314   8.509  10.574  1.00  0.00     0.312 C 
BRANCH   7   8
HETATM    8  C7  UNK     1      14.159   7.186   9.915  1.00  0.00    -0.011 A 
HETATM    9  C10 UNK     1      14.972   6.163  10.215  1.00  0.00     0.092 A 
HETATM   10  C15 UNK     1      14.857   4.835   9.589  1.00  0.00     0.288 A 
HETATM   11  O1  UNK     1      13.850   4.674   8.650  1.00  0.00    -0.275 OA
HETATM   12  O2  UNK     1      15.619   3.922   9.890  1.00  0.00    -0.260 OA
HETATM   13  C11 UNK     1      12.980   5.730   8.314  1.00  0.00     0.090 A 
HETATM   14  C9  UNK     1      13.101   6.983   8.915  1.00  0.00     0.006 A 
HETATM   15  C16 UNK     1      12.003   5.454   7.356  1.00  0.00     0.045 A 
HETATM   16  C14 UNK     1      12.198   7.982   8.525  1.00  0.00     0.015 A 
HETATM   17  C21 UNK     1      11.213   7.720   7.566  1.00  0.00     0.007 A 
HETATM   18  C20 UNK     1      11.116   6.459   6.982  1.00  0.00    -0.059 A 
HETATM   19  C23 UNK     1      10.065   6.187   5.959  1.00  0.00     0.048 C 
ENDBRANCH   7   8
ENDBRANCH   1   7
BRANCH   2  20
HETATM   20  C6  UNK     1      18.107  12.112   8.434  1.00  0.00     0.311 C 
BRANCH  20  21
HETATM   21  C8  UNK     1      19.467  12.168   9.062  1.00  0.00    -0.030 A 
HETATM   22  C12 UNK     1      20.607  12.088   8.264  1.00  0.00     0.009 A 
HETATM   23  C17 UNK     1      21.873  12.138   8.849  1.00  0.00     0.007 A 
HETATM   24  C19 UNK     1      21.997  12.269  10.232  1.00  0.00    -0.062 A 
HETATM   25  C18 UNK     1      20.855  12.349  11.031  1.00  0.00     0.007 A 
HETATM   26  C22 UNK     1      23.349  12.323  10.858  1.00  0.00     0.048 C 
HETATM   27  C13 UNK     1      19.591  12.299  10.445  1.00  0.00     0.009 A 
ENDBRANCH  20  21
ENDBRANCH   2  20
TORSDOF 4
ENDMDL
MODEL 9
REMARK VINA RESULT:      -8.5      9.655     15.249
REMARK  4 active torsions:
REMARK  status: ('A' for Active; 'I' for Inactive)
REMARK    1  A    between atoms: C5_9  and  N1_3 
REMARK    2  A    between atoms: C6_10  and  N2_4 
REMARK    3  A    between atoms: C5_9  and  C7_11 
REMARK    4  A    between atoms: C6_10  and  C8_12 
ROOT
HETATM    1  N1  UNK     1      20.707  -6.250  37.071  1.00  0.00     0.096 N 
HETATM    2  N2  UNK     1      19.915  -3.524  36.519  1.00  0.00     0.096 N 
HETATM    3  C1  UNK     1      19.647  -5.945  36.101  1.00  0.00     0.303 C 
HETATM    4  C2  UNK     1      20.763  -5.214  38.110  1.00  0.00     0.303 C 
HETATM    5  C3  UNK     1      19.858  -4.559  35.481  1.00  0.00     0.303 C 
HETATM    6  C4  UNK     1      20.974  -3.829  37.490  1.00  0.00     0.303 C 
ENDROOT
BRANCH   1   7
HETATM    7  C5  UNK     1      20.505  -7.569  37.662  1.00  0.00     0.312 C 
BRANCH   7   8
HETATM    8  C7  UNK     1      21.489  -8.474  37.013  1.00  0.00    -0.011 A 
HETATM    9  C10 UNK     1      21.132  -9.268  35.993  1.00  0.00     0.092 A 
HETATM   10  C15 UNK     1      22.072 -10.179  35.318  1.00  0.00     0.288 A 
HETATM   11  O1  UNK     1      23.376 -10.191  35.788  1.00  0.00    -0.275 OA
HETATM   12  O2  UNK     1      21.709 -10.890  34.387  1.00  0.00    -0.260 OA
HETATM   13  C11 UNK     1      23.780  -9.368  36.858  1.00  0.00     0.090 A 
HETATM   14  C9  UNK     1      22.879  -8.509  37.489  1.00  0.00     0.006 A 
HETATM   15  C16 UNK     1      25.117  -9.462  37.248  1.00  0.00     0.045 A 
HETATM   16  C14 UNK     1      23.359  -7.725  38.546  1.00  0.00     0.015 A 
HETATM   17  C21 UNK     1      24.697  -7.808  38.948  1.00  0.00     0.007 A 
HETATM   18  C20 UNK     1      25.575  -8.675  38.300  1.00  0.00    -0.059 A 
HETATM   19  C23 UNK     1      26.999  -8.760  38.735  1.00  0.00     0.048 C 
ENDBRANCH   7   8
ENDBRANCH   1   7
BRANCH   2  20
HETATM   20  C6  UNK     1      20.119  -2.203  35.927  1.00  0.00     0.311 C 
BRANCH  20  21
HETATM   21  C8  UNK     1      18.865  -1.394  36.061  1.00  0.00    -0.030 A 
HETATM   22  C12 UNK     1      18.321  -1.155  37.323  1.00  0.00     0.009 A 
HETATM   23  C17 UNK     1      17.153  -0.403  37.448  1.00  0.00     0.007 A 
HETATM   24  C19 UNK     1      16.528   0.109  36.311  1.00  0.00    -0.062 A 
HETATM   25  C18 UNK     1      17.072  -0.131  35.048  1.00  0.00     0.007 A 
HETATM   26  C22 UNK     1      15.280   0.913  36.444  1.00  0.00     0.048 C 
HETATM   27  C13 UNK     1      18.240  -0.882  34.924  1.00  0.00     0.009 A 
ENDBRANCH  20  21
ENDBRANCH   2  20
TORSDOF 4
ENDMDL
MODEL 10
REMARK VINA RESULT:      -8.5      3.405      9.536
REMARK  4 active torsions:
REMARK  status: ('A' for Active; 'I' for Inactive)
REMARK    1  A    between atoms: C5_9  and  N1_3 
REMARK    2  A    between atoms: C6_10  and  N2_4 
REMARK    3  A    between atoms: C5_9  and  C7_11 
REMARK    4  A    between atoms: C6_10  and  C8_12 
ROOT
HETATM    1  N1  UNK     1      18.770   3.713  31.342  1.00  0.00     0.096 N 
HETATM    2  N2  UNK     1      19.275   6.279  32.577  1.00  0.00     0.096 N 
HETATM    3  C1  UNK     1      19.367   4.820  30.583  1.00  0.00     0.303 C 
HETATM    4  C2  UNK     1      17.902   4.232  32.405  1.00  0.00     0.303 C 
HETATM    5  C3  UNK     1      20.143   5.761  31.512  1.00  0.00     0.303 C 
HETATM    6  C4  UNK     1      18.678   5.172  33.334  1.00  0.00     0.303 C 
ENDROOT
BRANCH   1   7
HETATM    7  C5  UNK     1      18.029   2.818  30.456  1.00  0.00     0.312 C 
BRANCH   7   8
HETATM    8  C7  UNK     1      18.759   1.523  30.465  1.00  0.00    -0.011 A 
HETATM    9  C10 UNK     1      19.381   1.072  29.366  1.00  0.00     0.092 A 
HETATM   10  C15 UNK     1      20.117  -0.204  29.327  1.00  0.00     0.288 A 
HETATM   11  O1  UNK     1      20.145  -0.943  30.498  1.00  0.00    -0.275 OA
HETATM   12  O2  UNK     1      20.674  -0.584  28.302  1.00  0.00    -0.260 OA
HETATM   13  C11 UNK     1      19.501  -0.494  31.668  1.00  0.00     0.090 A 
HETATM   14  C9  UNK     1      18.808   0.716  31.692  1.00  0.00     0.006 A 
HETATM   15  C16 UNK     1      19.596  -1.321  32.790  1.00  0.00     0.045 A 
HETATM   16  C14 UNK     1      18.193   1.091  32.894  1.00  0.00     0.015 A 
HETATM   17  C21 UNK     1      18.280   0.273  34.027  1.00  0.00     0.007 A 
HETATM   18  C20 UNK     1      18.979  -0.931  33.974  1.00  0.00    -0.059 A 
HETATM   19  C23 UNK     1      19.065  -1.798  35.184  1.00  0.00     0.048 C 
ENDBRANCH   7   8
ENDBRANCH   1   7
BRANCH   2  20
HETATM   20  C6  UNK     1      20.017   7.173  33.463  1.00  0.00     0.311 C 
BRANCH  20  21
HETATM   21  C8  UNK     1      19.220   8.420  33.699  1.00  0.00    -0.030 A 
HETATM   22  C12 UNK     1      19.849   9.569  34.177  1.00  0.00     0.009 A 
HETATM   23  C17 UNK     1      19.107  10.729  34.398  1.00  0.00     0.007 A 
HETATM   24  C19 UNK     1      17.736  10.740  34.141  1.00  0.00    -0.062 A 
HETATM   25  C18 UNK     1      17.107   9.589  33.663  1.00  0.00     0.007 A 
HETATM   26  C22 UNK     1      16.942  11.979  34.377  1.00  0.00     0.048 C 
HETATM   27  C13 UNK     1      17.849   8.430  33.442  1.00  0.00     0.009 A 
ENDBRANCH  20  21
ENDBRANCH   2  20
TORSDOF 4
ENDMDL
