MODEL 1
REMARK VINA RESULT:     -10.0      0.000      0.000
REMARK  5 active torsions:
REMARK  status: ('A' for Active; 'I' for Inactive)
REMARK    1  A    between atoms: C10_16  and  O1_1 
REMARK       I    between atoms: C12_18  and  N2_6 
REMARK    2  A    between atoms: C6_12  and  N2_6 
REMARK    3  A    between atoms: C1_7  and  C3_9 
REMARK    4  A    between atoms: C3_9  and  C6_12 
REMARK    5  A    between atoms: C12_18  and  C13_19 
ROOT
HETATM    1  O3  UNK     1      17.921   2.557  28.492  1.00  0.00    -0.267 OA
HETATM    2  N2  UNK     1      18.987   3.805  30.147  1.00  0.00    -0.356 N 
HETATM    3  C12 UNK     1      18.560   2.638  29.539  1.00  0.00     0.257 C 
HETATM    4  H11 UNK     1      19.479   3.768  31.035  1.00  0.00     0.162 HD
ENDROOT
BRANCH   2   5
HETATM    5  C6  UNK     1      18.724   5.118  29.606  1.00  0.00     0.127 C 
BRANCH   5   6
HETATM    6  C3  UNK     1      19.713   6.168  30.108  1.00  0.00     0.061 C 
BRANCH   6   7
HETATM    7  C1  UNK     1      19.612   6.422  31.585  1.00  0.00    -0.022 A 
HETATM    8  C2  UNK     1      18.461   6.875  32.259  1.00  0.00     0.002 A 
HETATM    9  C5  UNK     1      18.809   6.970  33.608  1.00  0.00     0.043 A 
HETATM   10  C7  UNK     1      17.151   7.219  31.871  1.00  0.00     0.051 A 
HETATM   11  N1  UNK     1      20.125   6.582  33.715  1.00  0.00    -0.359 N 
HETATM   12  C8  UNK     1      17.908   7.394  34.592  1.00  0.00     0.033 A 
HETATM   13  C4  UNK     1      20.620   6.246  32.484  1.00  0.00     0.013 A 
HETATM   14  H3  UNK     1      20.646   6.551  34.581  1.00  0.00     0.166 HD
HETATM   15  C9  UNK     1      22.015   5.795  32.322  1.00  0.00     0.068 C 
HETATM   16  C11 UNK     1      16.614   7.730  34.184  1.00  0.00     0.039 A 
HETATM   17  C10 UNK     1      16.239   7.644  32.844  1.00  0.00     0.069 A 
BRANCH  17  18
HETATM   18  O1  UNK     1      14.970   7.977  32.476  1.00  0.00    -0.356 OA
HETATM   19  C20 UNK     1      14.154   6.933  31.948  1.00  0.00     0.210 C 
ENDBRANCH  17  18
ENDBRANCH   6   7
ENDBRANCH   5   6
ENDBRANCH   2   5
BRANCH   3  20
HETATM   20  C13 UNK     1      18.953   1.432  30.278  1.00  0.00     0.108 A 
HETATM   21  C15 UNK     1      19.597   0.492  29.576  1.00  0.00     0.037 A 
HETATM   22  C14 UNK     1      20.026  -0.740  30.221  1.00  0.00    -0.001 A 
HETATM   23  C16 UNK     1      19.755  -0.920  31.573  1.00  0.00     0.089 A 
HETATM   24  C18 UNK     1      20.701  -1.747  29.528  1.00  0.00     0.014 A 
HETATM   25  O2  UNK     1      19.077   0.073  32.307  1.00  0.00    -0.274 OA
HETATM   26  C19 UNK     1      20.138  -2.076  32.251  1.00  0.00     0.038 A 
HETATM   27  C17 UNK     1      18.655   1.261  31.718  1.00  0.00     0.304 A 
HETATM   28  O4  UNK     1      18.063   2.120  32.364  1.00  0.00    -0.259 OA
HETATM   29  C22 UNK     1      20.812  -3.076  31.552  1.00  0.00     0.003 A 
HETATM   30  C21 UNK     1      21.093  -2.912  30.194  1.00  0.00     0.001 A 
ENDBRANCH   3  20
TORSDOF 5
ENDMDL
MODEL 2
REMARK VINA RESULT:      -9.6      1.991      3.023
REMARK  5 active torsions:
REMARK  status: ('A' for Active; 'I' for Inactive)
REMARK    1  A    between atoms: C10_16  and  O1_1 
REMARK       I    between atoms: C12_18  and  N2_6 
REMARK    2  A    between atoms: C6_12  and  N2_6 
REMARK    3  A    between atoms: C1_7  and  C3_9 
REMARK    4  A    between atoms: C3_9  and  C6_12 
REMARK    5  A    between atoms: C12_18  and  C13_19 
ROOT
HETATM    1  O3  UNK     1      17.567   2.224  29.812  1.00  0.00    -0.267 OA
HETATM    2  N2  UNK     1      19.131   3.664  30.769  1.00  0.00    -0.356 N 
HETATM    3  C12 UNK     1      18.332   2.535  30.723  1.00  0.00     0.257 C 
HETATM    4  H11 UNK     1      19.702   3.852  31.588  1.00  0.00     0.162 HD
ENDROOT
BRANCH   2   5
HETATM    5  C6  UNK     1      19.166   4.649  29.713  1.00  0.00     0.127 C 
BRANCH   5   6
HETATM    6  C3  UNK     1      19.880   5.932  30.132  1.00  0.00     0.061 C 
BRANCH   6   7
HETATM    7  C1  UNK     1      19.611   6.324  31.556  1.00  0.00    -0.022 A 
HETATM    8  C2  UNK     1      18.361   6.718  32.073  1.00  0.00     0.002 A 
HETATM    9  C5  UNK     1      18.564   6.989  33.428  1.00  0.00     0.043 A 
HETATM   10  C7  UNK     1      17.068   6.877  31.537  1.00  0.00     0.051 A 
HETATM   11  N1  UNK     1      19.896   6.758  33.691  1.00  0.00    -0.359 N 
HETATM   12  C8  UNK     1      17.535   7.413  34.276  1.00  0.00     0.033 A 
HETATM   13  C4  UNK     1      20.539   6.352  32.553  1.00  0.00     0.013 A 
HETATM   14  H3  UNK     1      20.330   6.873  34.597  1.00  0.00     0.166 HD
HETATM   15  C9  UNK     1      21.980   6.039  32.565  1.00  0.00     0.068 C 
HETATM   16  C11 UNK     1      16.261   7.564  33.722  1.00  0.00     0.039 A 
HETATM   17  C10 UNK     1      16.028   7.300  32.373  1.00  0.00     0.069 A 
BRANCH  17  18
HETATM   18  O1  UNK     1      14.775   7.455  31.862  1.00  0.00    -0.356 OA
HETATM   19  C20 UNK     1      13.684   7.318  32.770  1.00  0.00     0.210 C 
ENDBRANCH  17  18
ENDBRANCH   6   7
ENDBRANCH   5   6
ENDBRANCH   2   5
BRANCH   3  20
HETATM   20  C13 UNK     1      18.474   1.685  31.912  1.00  0.00     0.108 A 
HETATM   21  C15 UNK     1      18.075   2.219  33.071  1.00  0.00     0.037 A 
HETATM   22  C14 UNK     1      18.177   1.454  34.305  1.00  0.00    -0.001 A 
HETATM   23  C16 UNK     1      18.694   0.164  34.255  1.00  0.00     0.089 A 
HETATM   24  C18 UNK     1      17.772   1.970  35.537  1.00  0.00     0.014 A 
HETATM   25  O2  UNK     1      19.113  -0.393  33.030  1.00  0.00    -0.274 OA
HETATM   26  C19 UNK     1      18.820  -0.622  35.399  1.00  0.00     0.038 A 
HETATM   27  C17 UNK     1      19.027   0.314  31.834  1.00  0.00     0.304 A 
HETATM   28  O4  UNK     1      19.395  -0.178  30.773  1.00  0.00    -0.259 OA
HETATM   29  C22 UNK     1      18.414  -0.099  36.625  1.00  0.00     0.003 A 
HETATM   30  C21 UNK     1      17.891   1.194  36.694  1.00  0.00     0.001 A 
ENDBRANCH   3  20
TORSDOF 5
ENDMDL
MODEL 3
REMARK VINA RESULT:      -9.5      2.167      2.704
REMARK  5 active torsions:
REMARK  status: ('A' for Active; 'I' for Inactive)
REMARK    1  A    between atoms: C10_16  and  O1_1 
REMARK       I    between atoms: C12_18  and  N2_6 
REMARK    2  A    between atoms: C6_12  and  N2_6 
REMARK    3  A    between atoms: C1_7  and  C3_9 
REMARK    4  A    between atoms: C3_9  and  C6_12 
REMARK    5  A    between atoms: C12_18  and  C13_19 
ROOT
HETATM    1  O3  UNK     1      18.940   4.775  30.283  1.00  0.00    -0.267 OA
HETATM    2  N2  UNK     1      17.414   4.553  32.031  1.00  0.00    -0.356 N 
HETATM    3  C12 UNK     1      18.371   4.102  31.140  1.00  0.00     0.257 C 
HETATM    4  H11 UNK     1      16.973   3.906  32.679  1.00  0.00     0.162 HD
ENDROOT
BRANCH   2   5
HETATM    5  C6  UNK     1      16.950   5.921  32.064  1.00  0.00     0.127 C 
BRANCH   5   6
HETATM    6  C3  UNK     1      16.910   6.492  33.480  1.00  0.00     0.061 C 
BRANCH   6   7
HETATM    7  C1  UNK     1      17.909   7.591  33.706  1.00  0.00    -0.022 A 
HETATM    8  C2  UNK     1      17.602   8.960  33.840  1.00  0.00     0.002 A 
HETATM    9  C5  UNK     1      18.819   9.617  34.035  1.00  0.00     0.043 A 
HETATM   10  C7  UNK     1      16.416   9.721  33.815  1.00  0.00     0.051 A 
HETATM   11  N1  UNK     1      19.805   8.657  34.016  1.00  0.00    -0.359 N 
HETATM   12  C8  UNK     1      18.909  11.003  34.207  1.00  0.00     0.033 A 
HETATM   13  C4  UNK     1      19.256   7.419  33.816  1.00  0.00     0.013 A 
HETATM   14  H3  UNK     1      20.791   8.845  34.134  1.00  0.00     0.166 HD
HETATM   15  C9  UNK     1      20.102   6.213  33.754  1.00  0.00     0.068 C 
HETATM   16  C11 UNK     1      17.720  11.737  34.179  1.00  0.00     0.039 A 
HETATM   17  C10 UNK     1      16.491  11.107  33.986  1.00  0.00     0.069 A 
BRANCH  17  18
HETATM   18  O1  UNK     1      15.348  11.850  33.965  1.00  0.00    -0.356 OA
HETATM   19  C20 UNK     1      14.204  11.259  33.354  1.00  0.00     0.210 C 
ENDBRANCH  17  18
ENDBRANCH   6   7
ENDBRANCH   5   6
ENDBRANCH   2   5
BRANCH   3  20
HETATM   20  C13 UNK     1      18.678   2.675  31.305  1.00  0.00     0.108 A 
HETATM   21  C15 UNK     1      19.191   2.054  30.237  1.00  0.00     0.037 A 
HETATM   22  C14 UNK     1      19.527   0.640  30.303  1.00  0.00    -0.001 A 
HETATM   23  C16 UNK     1      19.306  -0.050  31.490  1.00  0.00     0.089 A 
HETATM   24  C18 UNK     1      20.065  -0.049  29.214  1.00  0.00     0.014 A 
HETATM   25  O2  UNK     1      18.765   0.610  32.612  1.00  0.00    -0.274 OA
HETATM   26  C19 UNK     1      19.605  -1.405  31.619  1.00  0.00     0.038 A 
HETATM   27  C17 UNK     1      18.434   1.962  32.579  1.00  0.00     0.304 A 
HETATM   28  O4  UNK     1      17.962   2.528  33.559  1.00  0.00    -0.259 OA
HETATM   29  C22 UNK     1      20.142  -2.084  30.528  1.00  0.00     0.003 A 
HETATM   30  C21 UNK     1      20.371  -1.407  29.328  1.00  0.00     0.001 A 
ENDBRANCH   3  20
TORSDOF 5
ENDMDL
MODEL 4
REMARK VINA RESULT:      -9.3      6.071      9.185
REMARK  5 active torsions:
REMARK  status: ('A' for Active; 'I' for Inactive)
REMARK    1  A    between atoms: C10_16  and  O1_1 
REMARK       I    between atoms: C12_18  and  N2_6 
REMARK    2  A    between atoms: C6_12  and  N2_6 
REMARK    3  A    between atoms: C1_7  and  C3_9 
REMARK    4  A    between atoms: C3_9  and  C6_12 
REMARK    5  A    between atoms: C12_18  and  C13_19 
ROOT
HETATM    1  O3  UNK     1      20.216  -4.157  35.054  1.00  0.00    -0.267 OA
HETATM    2  N2  UNK     1      19.179  -3.799  37.112  1.00  0.00    -0.356 N 
HETATM    3  C12 UNK     1      19.719  -4.572  36.099  1.00  0.00     0.257 C 
HETATM    4  H11 UNK     1      18.757  -4.242  37.923  1.00  0.00     0.162 HD
ENDROOT
BRANCH   2   5
HETATM    5  C6  UNK     1      19.133  -2.356  37.062  1.00  0.00     0.127 C 
BRANCH   5   6
HETATM    6  C3  UNK     1      17.777  -1.829  36.594  1.00  0.00     0.061 C 
BRANCH   6   7
HETATM    7  C1  UNK     1      17.871  -0.537  35.835  1.00  0.00    -0.022 A 
HETATM    8  C2  UNK     1      18.283  -0.405  34.494  1.00  0.00     0.002 A 
HETATM    9  C5  UNK     1      18.221   0.958  34.197  1.00  0.00     0.043 A 
HETATM   10  C7  UNK     1      18.706  -1.299  33.491  1.00  0.00     0.051 A 
HETATM   11  N1  UNK     1      17.784   1.600  35.334  1.00  0.00    -0.359 N 
HETATM   12  C8  UNK     1      18.562   1.474  32.942  1.00  0.00     0.033 A 
HETATM   13  C4  UNK     1      17.569   0.693  36.336  1.00  0.00     0.013 A 
HETATM   14  H3  UNK     1      17.644   2.598  35.411  1.00  0.00     0.166 HD
HETATM   15  C9  UNK     1      17.096   1.125  37.665  1.00  0.00     0.068 C 
HETATM   16  C11 UNK     1      18.979   0.568  31.962  1.00  0.00     0.039 A 
HETATM   17  C10 UNK     1      19.051  -0.798  32.230  1.00  0.00     0.069 A 
BRANCH  17  18
HETATM   18  O1  UNK     1      19.460  -1.656  31.254  1.00  0.00    -0.356 OA
HETATM   19  C20 UNK     1      20.642  -2.412  31.510  1.00  0.00     0.210 C 
ENDBRANCH  17  18
ENDBRANCH   6   7
ENDBRANCH   5   6
ENDBRANCH   2   5
BRANCH   3  20
HETATM   20  C13 UNK     1      19.654  -6.011  36.383  1.00  0.00     0.108 A 
HETATM   21  C15 UNK     1      20.797  -6.692  36.247  1.00  0.00     0.037 A 
HETATM   22  C14 UNK     1      20.833  -8.124  36.505  1.00  0.00    -0.001 A 
HETATM   23  C16 UNK     1      19.662  -8.767  36.894  1.00  0.00     0.089 A 
HETATM   24  C18 UNK     1      22.003  -8.875  36.378  1.00  0.00     0.014 A 
HETATM   25  O2  UNK     1      18.461  -8.044  37.035  1.00  0.00    -0.274 OA
HETATM   26  C19 UNK     1      19.628 -10.135  37.156  1.00  0.00     0.038 A 
HETATM   27  C17 UNK     1      18.396  -6.674  36.795  1.00  0.00     0.304 A 
HETATM   28  O4  UNK     1      17.346  -6.053  36.919  1.00  0.00    -0.259 OA
HETATM   29  C22 UNK     1      20.800 -10.877  37.026  1.00  0.00     0.003 A 
HETATM   30  C21 UNK     1      21.985 -10.248  36.638  1.00  0.00     0.001 A 
ENDBRANCH   3  20
TORSDOF 5
ENDMDL
MODEL 5
REMARK VINA RESULT:      -9.2      6.403     11.555
REMARK  5 active torsions:
REMARK  status: ('A' for Active; 'I' for Inactive)
REMARK    1  A    between atoms: C10_16  and  O1_1 
REMARK       I    between atoms: C12_18  and  N2_6 
REMARK    2  A    between atoms: C6_12  and  N2_6 
REMARK    3  A    between atoms: C1_7  and  C3_9 
REMARK    4  A    between atoms: C3_9  and  C6_12 
REMARK    5  A    between atoms: C12_18  and  C13_19 
ROOT
HETATM    1  O3  UNK     1      18.275  -1.490  35.979  1.00  0.00    -0.267 OA
HETATM    2  N2  UNK     1      19.765  -2.994  35.001  1.00  0.00    -0.356 N 
HETATM    3  C12 UNK     1      18.969  -1.862  35.035  1.00  0.00     0.257 C 
HETATM    4  H11 UNK     1      20.273  -3.236  34.156  1.00  0.00     0.162 HD
ENDROOT
BRANCH   2   5
HETATM    5  C6  UNK     1      19.880  -3.909  36.113  1.00  0.00     0.127 C 
BRANCH   5   6
HETATM    6  C3  UNK     1      19.985  -5.366  35.664  1.00  0.00     0.061 C 
BRANCH   6   7
HETATM    7  C1  UNK     1      19.585  -6.346  36.729  1.00  0.00    -0.022 A 
HETATM    8  C2  UNK     1      20.450  -6.906  37.690  1.00  0.00     0.002 A 
HETATM    9  C5  UNK     1      19.667  -7.756  38.475  1.00  0.00     0.043 A 
HETATM   10  C7  UNK     1      21.824  -6.787  37.983  1.00  0.00     0.051 A 
HETATM   11  N1  UNK     1      18.383  -7.690  37.984  1.00  0.00    -0.359 N 
HETATM   12  C8  UNK     1      20.191  -8.495  39.541  1.00  0.00     0.033 A 
HETATM   13  C4  UNK     1      18.327  -6.831  36.919  1.00  0.00     0.013 A 
HETATM   14  H3  UNK     1      17.598  -8.204  38.360  1.00  0.00     0.166 HD
HETATM   15  C9  UNK     1      17.058  -6.582  36.210  1.00  0.00     0.068 C 
HETATM   16  C11 UNK     1      21.556  -8.360  39.813  1.00  0.00     0.039 A 
HETATM   17  C10 UNK     1      22.361  -7.519  39.047  1.00  0.00     0.069 A 
BRANCH  17  18
HETATM   18  O1  UNK     1      23.688  -7.408  39.337  1.00  0.00    -0.356 OA
HETATM   19  C20 UNK     1      24.594  -8.150  38.522  1.00  0.00     0.210 C 
ENDBRANCH  17  18
ENDBRANCH   6   7
ENDBRANCH   5   6
ENDBRANCH   2   5
BRANCH   3  20
HETATM   20  C13 UNK     1      19.021  -1.090  33.787  1.00  0.00     0.108 A 
HETATM   21  C15 UNK     1      19.606  -1.690  32.744  1.00  0.00     0.037 A 
HETATM   22  C14 UNK     1      19.706  -1.005  31.464  1.00  0.00    -0.001 A 
HETATM   23  C16 UNK     1      19.183   0.278  31.346  1.00  0.00     0.089 A 
HETATM   24  C18 UNK     1      20.308  -1.593  30.350  1.00  0.00     0.014 A 
HETATM   25  O2  UNK     1      18.567   0.905  32.448  1.00  0.00    -0.274 OA
HETATM   26  C19 UNK     1      19.246   0.989  30.149  1.00  0.00     0.038 A 
HETATM   27  C17 UNK     1      18.457   0.274  33.684  1.00  0.00     0.304 A 
HETATM   28  O4  UNK     1      17.920   0.828  34.638  1.00  0.00    -0.259 OA
HETATM   29  C22 UNK     1      19.848   0.396  29.042  1.00  0.00     0.003 A 
HETATM   30  C21 UNK     1      20.378  -0.893  29.142  1.00  0.00     0.001 A 
ENDBRANCH   3  20
TORSDOF 5
ENDMDL
MODEL 6
REMARK VINA RESULT:      -9.2      1.918      2.674
REMARK  5 active torsions:
REMARK  status: ('A' for Active; 'I' for Inactive)
REMARK    1  A    between atoms: C10_16  and  O1_1 
REMARK       I    between atoms: C12_18  and  N2_6 
REMARK    2  A    between atoms: C6_12  and  N2_6 
REMARK    3  A    between atoms: C1_7  and  C3_9 
REMARK    4  A    between atoms: C3_9  and  C6_12 
REMARK    5  A    between atoms: C12_18  and  C13_19 
ROOT
HETATM    1  O3  UNK     1      16.941   4.564  31.576  1.00  0.00    -0.267 OA
HETATM    2  N2  UNK     1      19.169   5.045  32.070  1.00  0.00    -0.356 N 
HETATM    3  C12 UNK     1      18.102   4.213  31.783  1.00  0.00     0.257 C 
HETATM    4  H11 UNK     1      20.085   4.653  32.264  1.00  0.00     0.162 HD
ENDROOT
BRANCH   2   5
HETATM    5  C6  UNK     1      19.044   6.482  32.164  1.00  0.00     0.127 C 
BRANCH   5   6
HETATM    6  C3  UNK     1      19.254   6.996  33.587  1.00  0.00     0.061 C 
BRANCH   6   7
HETATM    7  C1  UNK     1      18.701   8.374  33.809  1.00  0.00    -0.022 A 
HETATM    8  C2  UNK     1      17.350   8.746  33.663  1.00  0.00     0.002 A 
HETATM    9  C5  UNK     1      17.282  10.107  33.965  1.00  0.00     0.043 A 
HETATM   10  C7  UNK     1      16.166   8.072  33.302  1.00  0.00     0.051 A 
HETATM   11  N1  UNK     1      18.559  10.515  34.280  1.00  0.00    -0.359 N 
HETATM   12  C8  UNK     1      16.085  10.831  33.925  1.00  0.00     0.033 A 
HETATM   13  C4  UNK     1      19.428   9.462  34.187  1.00  0.00     0.013 A 
HETATM   14  H3  UNK     1      18.811  11.459  34.542  1.00  0.00     0.166 HD
HETATM   15  C9  UNK     1      20.864   9.635  34.474  1.00  0.00     0.068 C 
HETATM   16  C11 UNK     1      14.924  10.142  33.565  1.00  0.00     0.039 A 
HETATM   17  C10 UNK     1      14.961   8.782  33.258  1.00  0.00     0.069 A 
BRANCH  17  18
HETATM   18  O1  UNK     1      13.812   8.137  32.912  1.00  0.00    -0.356 OA
HETATM   19  C20 UNK     1      13.920   7.098  31.942  1.00  0.00     0.210 C 
ENDBRANCH  17  18
ENDBRANCH   6   7
ENDBRANCH   5   6
ENDBRANCH   2   5
BRANCH   3  20
HETATM   20  C13 UNK     1      18.479   2.795  31.738  1.00  0.00     0.108 A 
HETATM   21  C15 UNK     1      18.974   2.352  30.577  1.00  0.00     0.037 A 
HETATM   22  C14 UNK     1      19.376   0.960  30.435  1.00  0.00    -0.001 A 
HETATM   23  C16 UNK     1      19.238   0.105  31.523  1.00  0.00     0.089 A 
HETATM   24  C18 UNK     1      19.898   0.454  29.243  1.00  0.00     0.014 A 
HETATM   25  O2  UNK     1      18.716   0.579  32.744  1.00  0.00    -0.274 OA
HETATM   26  C19 UNK     1      19.603  -1.238  31.454  1.00  0.00     0.038 A 
HETATM   27  C17 UNK     1      18.324   1.904  32.910  1.00  0.00     0.304 A 
HETATM   28  O4  UNK     1      17.870   2.307  33.976  1.00  0.00    -0.259 OA
HETATM   29  C22 UNK     1      20.123  -1.734  30.260  1.00  0.00     0.003 A 
HETATM   30  C21 UNK     1      20.270  -0.890  29.157  1.00  0.00     0.001 A 
ENDBRANCH   3  20
TORSDOF 5
ENDMDL
MODEL 7
REMARK VINA RESULT:      -9.2     10.174     14.343
REMARK  5 active torsions:
REMARK  status: ('A' for Active; 'I' for Inactive)
REMARK    1  A    between atoms: C10_16  and  O1_1 
REMARK       I    between atoms: C12_18  and  N2_6 
REMARK    2  A    between atoms: C6_12  and  N2_6 
REMARK    3  A    between atoms: C1_7  and  C3_9 
REMARK    4  A    between atoms: C3_9  and  C6_12 
REMARK    5  A    between atoms: C12_18  and  C13_19 
ROOT
HETATM    1  O3  UNK     1      25.946  -9.022  37.813  1.00  0.00    -0.267 OA
HETATM    2  N2  UNK     1      24.734  -7.451  39.038  1.00  0.00    -0.356 N 
HETATM    3  C12 UNK     1      25.857  -7.945  38.400  1.00  0.00     0.257 C 
HETATM    4  H11 UNK     1      24.774  -6.563  39.529  1.00  0.00     0.162 HD
ENDROOT
BRANCH   2   5
HETATM    5  C6  UNK     1      23.480  -8.168  39.094  1.00  0.00     0.127 C 
BRANCH   5   6
HETATM    6  C3  UNK     1      22.371  -7.356  39.760  1.00  0.00     0.061 C 
BRANCH   6   7
HETATM    7  C1  UNK     1      21.098  -7.323  38.963  1.00  0.00    -0.022 A 
HETATM    8  C2  UNK     1      20.681  -6.264  38.132  1.00  0.00     0.002 A 
HETATM    9  C5  UNK     1      19.454  -6.651  37.590  1.00  0.00     0.043 A 
HETATM   10  C7  UNK     1      21.213  -5.009  37.778  1.00  0.00     0.051 A 
HETATM   11  N1  UNK     1      19.166  -7.901  38.092  1.00  0.00    -0.359 N 
HETATM   12  C8  UNK     1      18.729  -5.842  36.708  1.00  0.00     0.033 A 
HETATM   13  C4  UNK     1      20.166  -8.316  38.929  1.00  0.00     0.013 A 
HETATM   14  H3  UNK     1      18.335  -8.431  37.868  1.00  0.00     0.166 HD
HETATM   15  C9  UNK     1      20.100  -9.627  39.601  1.00  0.00     0.068 C 
HETATM   16  C11 UNK     1      19.277  -4.601  36.371  1.00  0.00     0.039 A 
HETATM   17  C10 UNK     1      20.500  -4.189  36.896  1.00  0.00     0.069 A 
BRANCH  17  18
HETATM   18  O1  UNK     1      21.009  -2.973  36.548  1.00  0.00    -0.356 OA
HETATM   19  C20 UNK     1      20.289  -2.226  35.570  1.00  0.00     0.210 C 
ENDBRANCH  17  18
ENDBRANCH   6   7
ENDBRANCH   5   6
ENDBRANCH   2   5
BRANCH   3  20
HETATM   20  C13 UNK     1      27.006  -7.033  38.477  1.00  0.00     0.108 A 
HETATM   21  C15 UNK     1      28.213  -7.590  38.336  1.00  0.00     0.037 A 
HETATM   22  C14 UNK     1      29.412  -6.767  38.398  1.00  0.00    -0.001 A 
HETATM   23  C16 UNK     1      29.279  -5.399  38.605  1.00  0.00     0.089 A 
HETATM   24  C18 UNK     1      30.693  -7.306  38.256  1.00  0.00     0.014 A 
HETATM   25  O2  UNK     1      28.003  -4.817  38.752  1.00  0.00    -0.274 OA
HETATM   26  C19 UNK     1      30.386  -4.555  38.675  1.00  0.00     0.038 A 
HETATM   27  C17 UNK     1      26.839  -5.578  38.697  1.00  0.00     0.304 A 
HETATM   28  O4  UNK     1      25.733  -5.065  38.827  1.00  0.00    -0.259 OA
HETATM   29  C22 UNK     1      31.660  -5.100  38.533  1.00  0.00     0.003 A 
HETATM   30  C21 UNK     1      31.813  -6.473  38.323  1.00  0.00     0.001 A 
ENDBRANCH   3  20
TORSDOF 5
ENDMDL
MODEL 8
REMARK VINA RESULT:      -8.9      2.586      8.547
REMARK  5 active torsions:
REMARK  status: ('A' for Active; 'I' for Inactive)
REMARK    1  A    between atoms: C10_16  and  O1_1 
REMARK       I    between atoms: C12_18  and  N2_6 
REMARK    2  A    between atoms: C6_12  and  N2_6 
REMARK    3  A    between atoms: C1_7  and  C3_9 
REMARK    4  A    between atoms: C3_9  and  C6_12 
REMARK    5  A    between atoms: C12_18  and  C13_19 
ROOT
HETATM    1  O3  UNK     1      18.171   3.642  32.472  1.00  0.00    -0.267 OA
HETATM    2  N2  UNK     1      18.508   3.807  34.773  1.00  0.00    -0.356 N 
HETATM    3  C12 UNK     1      18.268   4.303  33.504  1.00  0.00     0.257 C 
HETATM    4  H11 UNK     1      18.609   4.442  35.559  1.00  0.00     0.162 HD
ENDROOT
BRANCH   2   5
HETATM    5  C6  UNK     1      18.678   2.399  35.050  1.00  0.00     0.127 C 
BRANCH   5   6
HETATM    6  C3  UNK     1      17.781   1.519  34.182  1.00  0.00     0.061 C 
BRANCH   6   7
HETATM    7  C1  UNK     1      18.432   0.230  33.770  1.00  0.00    -0.022 A 
HETATM    8  C2  UNK     1      18.934  -0.059  32.486  1.00  0.00     0.002 A 
HETATM    9  C5  UNK     1      19.448  -1.356  32.548  1.00  0.00     0.043 A 
HETATM   10  C7  UNK     1      19.008   0.642  31.265  1.00  0.00     0.051 A 
HETATM   11  N1  UNK     1      19.252  -1.808  33.833  1.00  0.00    -0.359 N 
HETATM   12  C8  UNK     1      20.035  -1.989  31.446  1.00  0.00     0.033 A 
HETATM   13  C4  UNK     1      18.633  -0.844  34.583  1.00  0.00     0.013 A 
HETATM   14  H3  UNK     1      19.528  -2.720  34.169  1.00  0.00     0.166 HD
HETATM   15  C9  UNK     1      18.307  -1.079  36.003  1.00  0.00     0.068 C 
HETATM   16  C11 UNK     1      20.098  -1.274  30.247  1.00  0.00     0.039 A 
HETATM   17  C10 UNK     1      19.593   0.022  30.156  1.00  0.00     0.069 A 
BRANCH  17  18
HETATM   18  O1  UNK     1      19.669   0.694  28.973  1.00  0.00    -0.356 OA
HETATM   19  C20 UNK     1      18.637   1.638  28.696  1.00  0.00     0.210 C 
ENDBRANCH  17  18
ENDBRANCH   6   7
ENDBRANCH   5   6
ENDBRANCH   2   5
BRANCH   3  20
HETATM   20  C13 UNK     1      18.128   5.765  33.479  1.00  0.00     0.108 A 
HETATM   21  C15 UNK     1      19.146   6.465  33.991  1.00  0.00     0.037 A 
HETATM   22  C14 UNK     1      19.099   7.919  34.011  1.00  0.00    -0.001 A 
HETATM   23  C16 UNK     1      17.981   8.563  33.491  1.00  0.00     0.089 A 
HETATM   24  C18 UNK     1      20.138   8.691  34.535  1.00  0.00     0.014 A 
HETATM   25  O2  UNK     1      16.912   7.820  32.953  1.00  0.00    -0.274 OA
HETATM   26  C19 UNK     1      17.873   9.953  33.480  1.00  0.00     0.038 A 
HETATM   27  C17 UNK     1      16.929   6.428  32.919  1.00  0.00     0.304 A 
HETATM   28  O4  UNK     1      15.993   5.789  32.450  1.00  0.00    -0.259 OA
HETATM   29  C22 UNK     1      18.914  10.715  34.005  1.00  0.00     0.003 A 
HETATM   30  C21 UNK     1      20.045  10.085  34.531  1.00  0.00     0.001 A 
ENDBRANCH   3  20
TORSDOF 5
ENDMDL
MODEL 9
REMARK VINA RESULT:      -8.9      2.061      3.016
REMARK  5 active torsions:
REMARK  status: ('A' for Active; 'I' for Inactive)
REMARK    1  A    between atoms: C10_16  and  O1_1 
REMARK       I    between atoms: C12_18  and  N2_6 
REMARK    2  A    between atoms: C6_12  and  N2_6 
REMARK    3  A    between atoms: C1_7  and  C3_9 
REMARK    4  A    between atoms: C3_9  and  C6_12 
REMARK    5  A    between atoms: C12_18  and  C13_19 
ROOT
HETATM    1  O3  UNK     1      17.895   2.786  33.552  1.00  0.00    -0.267 OA
HETATM    2  N2  UNK     1      17.788   4.314  31.794  1.00  0.00    -0.356 N 
HETATM    3  C12 UNK     1      18.071   3.090  32.373  1.00  0.00     0.257 C 
HETATM    4  H11 UNK     1      18.006   4.479  30.816  1.00  0.00     0.162 HD
ENDROOT
BRANCH   2   5
HETATM    5  C6  UNK     1      17.229   5.424  32.531  1.00  0.00     0.127 C 
BRANCH   5   6
HETATM    6  C3  UNK     1      17.419   6.759  31.812  1.00  0.00     0.061 C 
BRANCH   6   7
HETATM    7  C1  UNK     1      17.646   7.911  32.747  1.00  0.00    -0.022 A 
HETATM    8  C2  UNK     1      16.704   8.913  33.054  1.00  0.00     0.002 A 
HETATM    9  C5  UNK     1      17.328   9.775  33.958  1.00  0.00     0.043 A 
HETATM   10  C7  UNK     1      15.379   9.188  32.659  1.00  0.00     0.051 A 
HETATM   11  N1  UNK     1      18.598   9.287  34.171  1.00  0.00    -0.359 N 
HETATM   12  C8  UNK     1      16.691  10.902  34.489  1.00  0.00     0.033 A 
HETATM   13  C4  UNK     1      18.796   8.150  33.436  1.00  0.00     0.013 A 
HETATM   14  H3  UNK     1      19.280   9.711  34.785  1.00  0.00     0.166 HD
HETATM   15  C9  UNK     1      20.081   7.427  33.486  1.00  0.00     0.068 C 
HETATM   16  C11 UNK     1      15.377  11.154  34.084  1.00  0.00     0.039 A 
HETATM   17  C10 UNK     1      14.729  10.311  33.183  1.00  0.00     0.069 A 
BRANCH  17  18
HETATM   18  O1  UNK     1      13.447  10.582  32.808  1.00  0.00    -0.356 OA
HETATM   19  C20 UNK     1      13.138  11.937  32.492  1.00  0.00     0.210 C 
ENDBRANCH  17  18
ENDBRANCH   6   7
ENDBRANCH   5   6
ENDBRANCH   2   5
BRANCH   3  20
HETATM   20  C13 UNK     1      18.628   2.122  31.420  1.00  0.00     0.108 A 
HETATM   21  C15 UNK     1      18.962   0.927  31.920  1.00  0.00     0.037 A 
HETATM   22  C14 UNK     1      19.522  -0.100  31.053  1.00  0.00    -0.001 A 
HETATM   23  C16 UNK     1      19.703   0.185  29.704  1.00  0.00     0.089 A 
HETATM   24  C18 UNK     1      19.884  -1.361  31.530  1.00  0.00     0.014 A 
HETATM   25  O2  UNK     1      19.348   1.446  29.184  1.00  0.00    -0.274 OA
HETATM   26  C19 UNK     1      20.235  -0.753  28.820  1.00  0.00     0.038 A 
HETATM   27  C17 UNK     1      18.810   2.447  29.988  1.00  0.00     0.304 A 
HETATM   28  O4  UNK     1      18.506   3.542  29.527  1.00  0.00    -0.259 OA
HETATM   29  C22 UNK     1      20.593  -2.009  29.305  1.00  0.00     0.003 A 
HETATM   30  C21 UNK     1      20.418  -2.312  30.657  1.00  0.00     0.001 A 
ENDBRANCH   3  20
TORSDOF 5
ENDMDL
MODEL 10
REMARK VINA RESULT:      -8.8     14.309     18.336
REMARK  5 active torsions:
REMARK  status: ('A' for Active; 'I' for Inactive)
REMARK    1  A    between atoms: C10_16  and  O1_1 
REMARK       I    between atoms: C12_18  and  N2_6 
REMARK    2  A    between atoms: C6_12  and  N2_6 
REMARK    3  A    between atoms: C1_7  and  C3_9 
REMARK    4  A    between atoms: C3_9  and  C6_12 
REMARK    5  A    between atoms: C12_18  and  C13_19 
ROOT
HETATM    1  O3  UNK     1      17.746  -2.055  15.746  1.00  0.00    -0.267 OA
HETATM    2  N2  UNK     1      19.777  -1.452  14.771  1.00  0.00    -0.356 N 
HETATM    3  C12 UNK     1      18.760  -1.361  15.705  1.00  0.00     0.257 C 
HETATM    4  H11 UNK     1      20.558  -0.804  14.801  1.00  0.00     0.162 HD
ENDROOT
BRANCH   2   5
HETATM    5  C6  UNK     1      19.770  -2.412  13.691  1.00  0.00     0.127 C 
BRANCH   5   6
HETATM    6  C3  UNK     1      20.268  -3.789  14.127  1.00  0.00     0.061 C 
BRANCH   6   7
HETATM    7  C1  UNK     1      19.425  -4.918  13.606  1.00  0.00    -0.022 A 
HETATM    8  C2  UNK     1      18.454  -5.621  14.346  1.00  0.00     0.002 A 
HETATM    9  C5  UNK     1      17.917  -6.576  13.480  1.00  0.00     0.043 A 
HETATM   10  C7  UNK     1      17.967  -5.554  15.667  1.00  0.00     0.051 A 
HETATM   11  N1  UNK     1      18.559  -6.431  12.270  1.00  0.00    -0.359 N 
HETATM   12  C8  UNK     1      16.915  -7.471  13.870  1.00  0.00     0.033 A 
HETATM   13  C4  UNK     1      19.479  -5.420  12.342  1.00  0.00     0.013 A 
HETATM   14  H3  UNK     1      18.371  -6.992  11.451  1.00  0.00     0.166 HD
HETATM   15  C9  UNK     1      20.305  -5.060  11.174  1.00  0.00     0.068 C 
HETATM   16  C11 UNK     1      16.447  -7.385  15.185  1.00  0.00     0.039 A 
HETATM   17  C10 UNK     1      16.964  -6.442  16.071  1.00  0.00     0.069 A 
BRANCH  17  18
HETATM   18  O1  UNK     1      16.487  -6.382  17.346  1.00  0.00    -0.356 OA
HETATM   19  C20 UNK     1      15.500  -5.390  17.622  1.00  0.00     0.210 C 
ENDBRANCH  17  18
ENDBRANCH   6   7
ENDBRANCH   5   6
ENDBRANCH   2   5
BRANCH   3  20
HETATM   20  C13 UNK     1      18.995  -0.312  16.705  1.00  0.00     0.108 A 
HETATM   21  C15 UNK     1      18.983  -0.702  17.984  1.00  0.00     0.037 A 
HETATM   22  C14 UNK     1      19.206   0.266  19.048  1.00  0.00    -0.001 A 
HETATM   23  C16 UNK     1      19.432   1.596  18.711  1.00  0.00     0.089 A 
HETATM   24  C18 UNK     1      19.202  -0.097  20.397  1.00  0.00     0.014 A 
HETATM   25  O2  UNK     1      19.444   2.000  17.361  1.00  0.00    -0.274 OA
HETATM   26  C19 UNK     1      19.652   2.572  19.681  1.00  0.00     0.038 A 
HETATM   27  C17 UNK     1      19.234   1.098  16.322  1.00  0.00     0.304 A 
HETATM   28  O4  UNK     1      19.245   1.459  15.150  1.00  0.00    -0.259 OA
HETATM   29  C22 UNK     1      19.646   2.202  21.024  1.00  0.00     0.003 A 
HETATM   30  C21 UNK     1      19.422   0.870  21.381  1.00  0.00     0.001 A 
ENDBRANCH   3  20
TORSDOF 5
ENDMDL
