MODEL 1
REMARK VINA RESULT:      -7.2      0.000      0.000
REMARK  2 active torsions:
REMARK  status: ('A' for Active; 'I' for Inactive)
REMARK    1  A    between atoms: C10_15  and  O3_4 
REMARK    2  A    between atoms: C10_15  and  C6_11 
ROOT
HETATM    1 Cl1  UNK     1      19.321   7.721  34.750  1.00  0.00    -0.084 Cl
HETATM    2  O1  UNK     1      18.041   3.122  31.313  1.00  0.00    -0.303 OA
HETATM    3  O2  UNK     1      19.953   6.295  29.608  1.00  0.00    -0.287 OA
HETATM    4  C1  UNK     1      19.014   5.337  31.555  1.00  0.00     0.050 A 
HETATM    5  C2  UNK     1      18.361   4.218  32.075  1.00  0.00     0.090 A 
HETATM    6  C3  UNK     1      19.379   5.348  30.128  1.00  0.00     0.187 A 
HETATM    7  C4  UNK     1      19.314   6.424  32.378  1.00  0.00     0.042 A 
HETATM    8  C5  UNK     1      18.003   4.182  33.423  1.00  0.00     0.040 A 
HETATM    9  C6  UNK     1      18.388   3.144  29.978  1.00  0.00     0.153 A 
HETATM   10  C7  UNK     1      19.015   4.147  29.351  1.00  0.00     0.100 A 
HETATM   11  C8  UNK     1      18.956   6.386  33.726  1.00  0.00     0.035 A 
HETATM   12  C9  UNK     1      18.301   5.268  34.247  1.00  0.00     0.026 A 
ENDROOT
BRANCH   9  13
HETATM   13  C10 UNK     1      18.040   1.966  29.182  1.00  0.00     0.201 C 
HETATM   14  O4  UNK     1      17.789   1.987  27.991  1.00  0.00    -0.645 OA
BRANCH  13  15
HETATM   15  O3  UNK     1      18.042   0.870  29.970  1.00  0.00    -0.771 OA
HETATM   16  H5  UNK     1      17.311   0.885  30.625  1.00  0.00     0.167 HD
ENDBRANCH  13  15
ENDBRANCH   9  13
TORSDOF 2
ENDMDL
MODEL 2
REMARK VINA RESULT:      -7.0      3.700      5.145
REMARK  2 active torsions:
REMARK  status: ('A' for Active; 'I' for Inactive)
REMARK    1  A    between atoms: C10_15  and  O3_4 
REMARK    2  A    between atoms: C10_15  and  C6_11 
ROOT
HETATM    1 Cl1  UNK     1      22.307   6.038  32.314  1.00  0.00    -0.084 Cl
HETATM    2  O1  UNK     1      16.483   6.650  31.758  1.00  0.00    -0.303 OA
HETATM    3  O2  UNK     1      18.185   7.785  35.286  1.00  0.00    -0.287 OA
HETATM    4  C1  UNK     1      18.484   6.894  33.116  1.00  0.00     0.050 A 
HETATM    5  C2  UNK     1      17.839   6.526  31.934  1.00  0.00     0.090 A 
HETATM    6  C3  UNK     1      17.683   7.441  34.224  1.00  0.00     0.187 A 
HETATM    7  C4  UNK     1      19.867   6.746  33.239  1.00  0.00     0.042 A 
HETATM    8  C5  UNK     1      18.575   6.005  30.870  1.00  0.00     0.040 A 
HETATM    9  C6  UNK     1      15.743   7.162  32.803  1.00  0.00     0.153 A 
HETATM   10  C7  UNK     1      16.231   7.555  33.986  1.00  0.00     0.100 A 
HETATM   11  C8  UNK     1      20.601   6.226  32.173  1.00  0.00     0.035 A 
HETATM   12  C9  UNK     1      19.957   5.855  30.992  1.00  0.00     0.026 A 
ENDROOT
BRANCH   9  13
HETATM   13  C10 UNK     1      14.299   7.288  32.595  1.00  0.00     0.201 C 
HETATM   14  O4  UNK     1      13.694   6.821  31.647  1.00  0.00    -0.645 OA
BRANCH  13  15
HETATM   15  O3  UNK     1      13.755   7.994  33.609  1.00  0.00    -0.771 OA
HETATM   16  H5  UNK     1      14.008   8.942  33.574  1.00  0.00     0.167 HD
ENDBRANCH  13  15
ENDBRANCH   9  13
TORSDOF 2
ENDMDL
MODEL 3
REMARK VINA RESULT:      -6.9      1.247      2.615
REMARK  2 active torsions:
REMARK  status: ('A' for Active; 'I' for Inactive)
REMARK    1  A    between atoms: C10_15  and  O3_4 
REMARK    2  A    between atoms: C10_15  and  C6_11 
ROOT
HETATM    1 Cl1  UNK     1      18.211   7.616  34.880  1.00  0.00    -0.084 Cl
HETATM    2  O1  UNK     1      18.748   4.076  30.213  1.00  0.00    -0.303 OA
HETATM    3  O2  UNK     1      17.831   2.366  33.800  1.00  0.00    -0.287 OA
HETATM    4  C1  UNK     1      18.300   4.341  32.587  1.00  0.00     0.050 A 
HETATM    5  C2  UNK     1      18.612   4.862  31.330  1.00  0.00     0.090 A 
HETATM    6  C3  UNK     1      18.106   2.888  32.728  1.00  0.00     0.187 A 
HETATM    7  C4  UNK     1      18.174   5.189  33.689  1.00  0.00     0.042 A 
HETATM    8  C5  UNK     1      18.801   6.235  31.170  1.00  0.00     0.040 A 
HETATM    9  C6  UNK     1      18.564   2.717  30.357  1.00  0.00     0.153 A 
HETATM   10  C7  UNK     1      18.262   2.087  31.498  1.00  0.00     0.100 A 
HETATM   11  C8  UNK     1      18.363   6.561  33.527  1.00  0.00     0.035 A 
HETATM   12  C9  UNK     1      18.677   7.083  32.271  1.00  0.00     0.026 A 
ENDROOT
BRANCH   9  13
HETATM   13  C10 UNK     1      18.712   1.896  29.153  1.00  0.00     0.201 C 
HETATM   14  O4  UNK     1      19.405   0.897  29.079  1.00  0.00    -0.645 OA
BRANCH  13  15
HETATM   15  O3  UNK     1      17.969   2.418  28.154  1.00  0.00    -0.771 OA
HETATM   16  H5  UNK     1      17.611   1.724  27.559  1.00  0.00     0.167 HD
ENDBRANCH  13  15
ENDBRANCH   9  13
TORSDOF 2
ENDMDL
MODEL 4
REMARK VINA RESULT:      -6.9     12.925     14.389
REMARK  2 active torsions:
REMARK  status: ('A' for Active; 'I' for Inactive)
REMARK    1  A    between atoms: C10_15  and  O3_4 
REMARK    2  A    between atoms: C10_15  and  C6_11 
ROOT
HETATM    1 Cl1  UNK     1      23.413 -11.866  35.655  1.00  0.00    -0.084 Cl
HETATM    2  O1  UNK     1      18.996  -8.181  36.886  1.00  0.00    -0.303 OA
HETATM    3  O2  UNK     1      21.166  -7.484  33.504  1.00  0.00    -0.287 OA
HETATM    4  C1  UNK     1      20.819  -8.833  35.416  1.00  0.00     0.050 A 
HETATM    5  C2  UNK     1      20.036  -9.014  36.557  1.00  0.00     0.090 A 
HETATM    6  C3  UNK     1      20.521  -7.702  34.521  1.00  0.00     0.187 A 
HETATM    7  C4  UNK     1      21.865  -9.713  35.131  1.00  0.00     0.042 A 
HETATM    8  C5  UNK     1      20.298 -10.078  37.421  1.00  0.00     0.040 A 
HETATM    9  C6  UNK     1      18.726  -7.125  36.041  1.00  0.00     0.153 A 
HETATM   10  C7  UNK     1      19.393  -6.835  34.917  1.00  0.00     0.100 A 
HETATM   11  C8  UNK     1      22.125 -10.775  35.996  1.00  0.00     0.035 A 
HETATM   12  C9  UNK     1      21.344 -10.958  37.139  1.00  0.00     0.026 A 
ENDROOT
BRANCH   9  13
HETATM   13  C10 UNK     1      17.612  -6.249  36.408  1.00  0.00     0.201 C 
HETATM   14  O4  UNK     1      16.438  -6.570  36.367  1.00  0.00    -0.645 OA
BRANCH  13  15
HETATM   15  O3  UNK     1      18.090  -5.046  36.791  1.00  0.00    -0.771 OA
HETATM   16  H5  UNK     1      19.020  -5.100  37.100  1.00  0.00     0.167 HD
ENDBRANCH  13  15
ENDBRANCH   9  13
TORSDOF 2
ENDMDL
MODEL 5
REMARK VINA RESULT:      -6.8      4.982      6.597
REMARK  2 active torsions:
REMARK  status: ('A' for Active; 'I' for Inactive)
REMARK    1  A    between atoms: C10_15  and  O3_4 
REMARK    2  A    between atoms: C10_15  and  C6_11 
ROOT
HETATM    1 Cl1  UNK     1      21.643  -4.684  31.651  1.00  0.00    -0.084 Cl
HETATM    2  O1  UNK     1      19.040   0.591  31.745  1.00  0.00    -0.303 OA
HETATM    3  O2  UNK     1      20.505  -0.742  28.180  1.00  0.00    -0.287 OA
HETATM    4  C1  UNK     1      20.178  -1.149  30.487  1.00  0.00     0.050 A 
HETATM    5  C2  UNK     1      19.655  -0.634  31.674  1.00  0.00     0.090 A 
HETATM    6  C3  UNK     1      20.068  -0.351  29.254  1.00  0.00     0.187 A 
HETATM    7  C4  UNK     1      20.794  -2.402  30.473  1.00  0.00     0.042 A 
HETATM    8  C5  UNK     1      19.747  -1.371  32.855  1.00  0.00     0.040 A 
HETATM    9  C6  UNK     1      18.943   1.330  30.585  1.00  0.00     0.153 A 
HETATM   10  C7  UNK     1      19.398   0.959  29.382  1.00  0.00     0.100 A 
HETATM   11  C8  UNK     1      20.885  -3.137  31.656  1.00  0.00     0.035 A 
HETATM   12  C9  UNK     1      20.363  -2.623  32.844  1.00  0.00     0.026 A 
ENDROOT
BRANCH   9  13
HETATM   13  C10 UNK     1      18.282   2.633  30.681  1.00  0.00     0.201 C 
HETATM   14  O4  UNK     1      17.096   2.791  30.908  1.00  0.00    -0.645 OA
BRANCH  13  15
HETATM   15  O3  UNK     1      19.186   3.616  30.478  1.00  0.00    -0.771 OA
HETATM   16  H5  UNK     1      18.913   4.225  29.759  1.00  0.00     0.167 HD
ENDBRANCH  13  15
ENDBRANCH   9  13
TORSDOF 2
ENDMDL
MODEL 6
REMARK VINA RESULT:      -6.8     12.895     15.424
REMARK  2 active torsions:
REMARK  status: ('A' for Active; 'I' for Inactive)
REMARK    1  A    between atoms: C10_15  and  O3_4 
REMARK    2  A    between atoms: C10_15  and  C6_11 
ROOT
HETATM    1 Cl1  UNK     1      19.202  -1.925  13.153  1.00  0.00    -0.084 Cl
HETATM    2  O1  UNK     1      18.861   0.194  18.630  1.00  0.00    -0.303 OA
HETATM    3  O2  UNK     1      19.363   2.863  15.588  1.00  0.00    -0.287 OA
HETATM    4  C1  UNK     1      19.118   0.606  16.249  1.00  0.00     0.050 A 
HETATM    5  C2  UNK     1      18.946  -0.253  17.335  1.00  0.00     0.090 A 
HETATM    6  C3  UNK     1      19.212   2.055  16.494  1.00  0.00     0.187 A 
HETATM    7  C4  UNK     1      19.197   0.094  14.952  1.00  0.00     0.042 A 
HETATM    8  C5  UNK     1      18.854  -1.630  17.129  1.00  0.00     0.040 A 
HETATM    9  C6  UNK     1      18.951   1.553  18.849  1.00  0.00     0.153 A 
HETATM   10  C7  UNK     1      19.115   2.486  17.903  1.00  0.00     0.100 A 
HETATM   11  C8  UNK     1      19.104  -1.283  14.748  1.00  0.00     0.035 A 
HETATM   12  C9  UNK     1      18.934  -2.143  15.834  1.00  0.00     0.026 A 
ENDROOT
BRANCH   9  13
HETATM   13  C10 UNK     1      18.858   2.010  20.236  1.00  0.00     0.201 C 
HETATM   14  O4  UNK     1      19.693   2.697  20.795  1.00  0.00    -0.645 OA
BRANCH  13  15
HETATM   15  O3  UNK     1      17.713   1.553  20.788  1.00  0.00    -0.771 OA
HETATM   16  H5  UNK     1      17.317   0.824  20.263  1.00  0.00     0.167 HD
ENDBRANCH  13  15
ENDBRANCH   9  13
TORSDOF 2
ENDMDL
MODEL 7
REMARK VINA RESULT:      -6.6     13.738     15.291
REMARK  2 active torsions:
REMARK  status: ('A' for Active; 'I' for Inactive)
REMARK    1  A    between atoms: C10_15  and  O3_4 
REMARK    2  A    between atoms: C10_15  and  C6_11 
ROOT
HETATM    1 Cl1  UNK     1      16.859  -6.561  36.112  1.00  0.00    -0.084 Cl
HETATM    2  O1  UNK     1      22.002  -9.331  35.414  1.00  0.00    -0.303 OA
HETATM    3  O2  UNK     1      19.270 -11.004  37.937  1.00  0.00    -0.287 OA
HETATM    4  C1  UNK     1      19.809  -9.239  36.458  1.00  0.00     0.050 A 
HETATM    5  C2  UNK     1      20.788  -8.721  35.608  1.00  0.00     0.090 A 
HETATM    6  C3  UNK     1      20.083 -10.494  37.178  1.00  0.00     0.187 A 
HETATM    7  C4  UNK     1      18.591  -8.575  36.617  1.00  0.00     0.042 A 
HETATM    8  C5  UNK     1      20.553  -7.533  34.915  1.00  0.00     0.040 A 
HETATM    9  C6  UNK     1      22.248 -10.505  36.094  1.00  0.00     0.153 A 
HETATM   10  C7  UNK     1      21.403 -11.111  36.935  1.00  0.00     0.100 A 
HETATM   11  C8  UNK     1      18.358  -7.389  35.922  1.00  0.00     0.035 A 
HETATM   12  C9  UNK     1      19.336  -6.868  35.074  1.00  0.00     0.026 A 
ENDROOT
BRANCH   9  13
HETATM   13  C10 UNK     1      23.549 -11.141  35.872  1.00  0.00     0.201 C 
HETATM   14  O4  UNK     1      23.720 -12.151  35.214  1.00  0.00    -0.645 OA
BRANCH  13  15
HETATM   15  O3  UNK     1      24.511 -10.438  36.507  1.00  0.00    -0.771 OA
HETATM   16  H5  UNK     1      25.208 -10.126  35.889  1.00  0.00     0.167 HD
ENDBRANCH  13  15
ENDBRANCH   9  13
TORSDOF 2
ENDMDL
MODEL 8
REMARK VINA RESULT:      -6.6      4.923      6.682
REMARK  2 active torsions:
REMARK  status: ('A' for Active; 'I' for Inactive)
REMARK    1  A    between atoms: C10_15  and  O3_4 
REMARK    2  A    between atoms: C10_15  and  C6_11 
ROOT
HETATM    1 Cl1  UNK     1      20.576   5.832  31.820  1.00  0.00    -0.084 Cl
HETATM    2  O1  UNK     1      16.584   8.953  34.808  1.00  0.00    -0.303 OA
HETATM    3  O2  UNK     1      15.926   8.337  30.831  1.00  0.00    -0.287 OA
HETATM    4  C1  UNK     1      17.324   7.983  32.706  1.00  0.00     0.050 A 
HETATM    5  C2  UNK     1      17.488   8.231  34.070  1.00  0.00     0.090 A 
HETATM    6  C3  UNK     1      16.132   8.517  32.023  1.00  0.00     0.187 A 
HETATM    7  C4  UNK     1      18.276   7.241  32.004  1.00  0.00     0.042 A 
HETATM    8  C5  UNK     1      18.608   7.737  34.739  1.00  0.00     0.040 A 
HETATM    9  C6  UNK     1      15.472   9.448  34.159  1.00  0.00     0.153 A 
HETATM   10  C7  UNK     1      15.191   9.286  32.861  1.00  0.00     0.100 A 
HETATM   11  C8  UNK     1      19.395   6.748  32.676  1.00  0.00     0.035 A 
HETATM   12  C9  UNK     1      19.561   6.996  34.039  1.00  0.00     0.026 A 
ENDROOT
BRANCH   9  13
HETATM   13  C10 UNK     1      14.519  10.215  34.964  1.00  0.00     0.201 C 
HETATM   14  O4  UNK     1      13.575  10.835  34.511  1.00  0.00    -0.645 OA
BRANCH  13  15
HETATM   15  O3  UNK     1      14.854  10.125  36.269  1.00  0.00    -0.771 OA
HETATM   16  H5  UNK     1      15.143  10.988  36.635  1.00  0.00     0.167 HD
ENDBRANCH  13  15
ENDBRANCH   9  13
TORSDOF 2
ENDMDL
MODEL 9
REMARK VINA RESULT:      -6.6      3.446      4.327
REMARK  2 active torsions:
REMARK  status: ('A' for Active; 'I' for Inactive)
REMARK    1  A    between atoms: C10_15  and  O3_4 
REMARK    2  A    between atoms: C10_15  and  C6_11 
ROOT
HETATM    1 Cl1  UNK     1      17.541   0.812  37.275  1.00  0.00    -0.084 Cl
HETATM    2  O1  UNK     1      18.896   0.190  31.584  1.00  0.00    -0.303 OA
HETATM    3  O2  UNK     1      17.878   3.913  32.899  1.00  0.00    -0.287 OA
HETATM    4  C1  UNK     1      18.215   1.631  33.419  1.00  0.00     0.050 A 
HETATM    5  C2  UNK     1      18.572   0.384  32.904  1.00  0.00     0.090 A 
HETATM    6  C3  UNK     1      18.182   2.792  32.514  1.00  0.00     0.187 A 
HETATM    7  C4  UNK     1      17.895   1.769  34.771  1.00  0.00     0.042 A 
HETATM    8  C5  UNK     1      18.610  -0.733  33.740  1.00  0.00     0.040 A 
HETATM    9  C6  UNK     1      18.861   1.284  30.746  1.00  0.00     0.153 A 
HETATM   10  C7  UNK     1      18.538   2.532  31.105  1.00  0.00     0.100 A 
HETATM   11  C8  UNK     1      17.934   0.652  35.606  1.00  0.00     0.035 A 
HETATM   12  C9  UNK     1      18.290  -0.596  35.092  1.00  0.00     0.026 A 
ENDROOT
BRANCH   9  13
HETATM   13  C10 UNK     1      19.211   1.057  29.342  1.00  0.00     0.201 C 
HETATM   14  O4  UNK     1      18.510   1.369  28.397  1.00  0.00    -0.645 OA
BRANCH  13  15
HETATM   15  O3  UNK     1      20.416   0.454  29.267  1.00  0.00    -0.771 OA
HETATM   16  H5  UNK     1      20.352  -0.516  29.402  1.00  0.00     0.167 HD
ENDBRANCH  13  15
ENDBRANCH   9  13
TORSDOF 2
ENDMDL
MODEL 10
REMARK VINA RESULT:      -6.5     16.586     17.272
REMARK  2 active torsions:
REMARK  status: ('A' for Active; 'I' for Inactive)
REMARK    1  A    between atoms: C10_15  and  O3_4 
REMARK    2  A    between atoms: C10_15  and  C6_11 
ROOT
HETATM    1 Cl1  UNK     1      27.253  -9.587  39.744  1.00  0.00    -0.084 Cl
HETATM    2  O1  UNK     1      31.104  -5.956  37.176  1.00  0.00    -0.303 OA
HETATM    3  O2  UNK     1      27.953  -4.291  39.158  1.00  0.00    -0.287 OA
HETATM    4  C1  UNK     1      29.079  -6.259  38.485  1.00  0.00     0.050 A 
HETATM    5  C2  UNK     1      30.179  -6.763  37.791  1.00  0.00     0.090 A 
HETATM    6  C3  UNK     1      28.895  -4.800  38.566  1.00  0.00     0.187 A 
HETATM    7  C4  UNK     1      28.170  -7.128  39.092  1.00  0.00     0.042 A 
HETATM    8  C5  UNK     1      30.376  -8.142  37.700  1.00  0.00     0.040 A 
HETATM    9  C6  UNK     1      30.922  -4.592  37.257  1.00  0.00     0.153 A 
HETATM   10  C7  UNK     1      29.915  -3.975  37.889  1.00  0.00     0.100 A 
HETATM   11  C8  UNK     1      28.368  -8.506  39.000  1.00  0.00     0.035 A 
HETATM   12  C9  UNK     1      29.468  -9.012  38.305  1.00  0.00     0.026 A 
ENDROOT
BRANCH   9  13
HETATM   13  C10 UNK     1      31.919  -3.747  36.596  1.00  0.00     0.201 C 
HETATM   14  O4  UNK     1      33.009  -4.135  36.215  1.00  0.00    -0.645 OA
BRANCH  13  15
HETATM   15  O3  UNK     1      31.442  -2.490  36.480  1.00  0.00    -0.771 OA
HETATM   16  H5  UNK     1      32.155  -1.818  36.542  1.00  0.00     0.167 HD
ENDBRANCH  13  15
ENDBRANCH   9  13
TORSDOF 2
ENDMDL
