MODEL 1
REMARK VINA RESULT:     -11.0      0.000      0.000
REMARK  5 active torsions:
REMARK  status: ('A' for Active; 'I' for Inactive)
REMARK       I    between atoms: C12_21  and  N2_8 
REMARK    1  A    between atoms: C6_15  and  N2_8 
REMARK    2  A    between atoms: C20_29  and  N3_9 
REMARK    3  A    between atoms: C1_10  and  C2_11 
REMARK    4  A    between atoms: C2_11  and  C6_15 
REMARK    5  A    between atoms: C12_21  and  C13_22 
ROOT
HETATM    1  O2  UNK     1      20.528  -1.697  35.458  1.00  0.00    -0.267 OA
HETATM    2  N2  UNK     1      19.972  -3.888  34.888  1.00  0.00    -0.356 N 
HETATM    3  C12 UNK     1      20.278  -2.565  34.623  1.00  0.00     0.257 C 
HETATM    4  H10 UNK     1      19.754  -4.523  34.127  1.00  0.00     0.162 HD
ENDROOT
BRANCH   2   5
HETATM    5  C6  UNK     1      19.907  -4.430  36.226  1.00  0.00     0.127 C 
BRANCH   5   6
HETATM    6  C2  UNK     1      18.541  -5.065  36.477  1.00  0.00     0.061 C 
BRANCH   6   7
HETATM    7  C1  UNK     1      18.613  -6.539  36.756  1.00  0.00    -0.022 A 
HETATM    8  C3  UNK     1      19.426  -7.148  37.734  1.00  0.00     0.001 A 
HETATM    9  C5  UNK     1      19.178  -8.520  37.649  1.00  0.00     0.065 A 
HETATM   10  C7  UNK     1      20.351  -6.682  38.689  1.00  0.00     0.014 A 
HETATM   11  C9  UNK     1      19.813  -9.453  38.476  1.00  0.00     0.061 A 
HETATM   12  N1  UNK     1      18.249  -8.704  36.651  1.00  0.00    -0.357 N 
HETATM   13  C11 UNK     1      20.728  -8.969  39.416  1.00  0.00     0.026 A 
HETATM   14 Cl1  UNK     1      19.495 -11.136  38.354  1.00  0.00    -0.082 Cl
HETATM   15  C10 UNK     1      20.994  -7.604  39.522  1.00  0.00     0.003 A 
HETATM   16  C4  UNK     1      17.900  -7.498  36.103  1.00  0.00     0.013 A 
HETATM   17  H5  UNK     1      17.881  -9.601  36.367  1.00  0.00     0.166 HD
HETATM   18  C8  UNK     1      16.914  -7.418  35.007  1.00  0.00     0.068 C 
ENDBRANCH   6   7
ENDBRANCH   5   6
ENDBRANCH   2   5
BRANCH   3  19
HETATM   19  C13 UNK     1      20.286  -2.256  33.188  1.00  0.00     0.108 A 
HETATM   20  C15 UNK     1      19.744  -1.086  32.833  1.00  0.00     0.037 A 
HETATM   21  C14 UNK     1      19.706  -0.691  31.433  1.00  0.00     0.001 A 
HETATM   22  C16 UNK     1      20.239  -1.549  30.477  1.00  0.00     0.089 A 
HETATM   23  C18 UNK     1      19.150   0.522  31.016  1.00  0.00     0.050 A 
HETATM   24  O1  UNK     1      20.808  -2.780  30.858  1.00  0.00    -0.274 OA
HETATM   25  C19 UNK     1      20.234  -1.230  29.120  1.00  0.00     0.041 A 
HETATM   26  C17 UNK     1      20.859  -3.185  32.189  1.00  0.00     0.304 A 
HETATM   27  O3  UNK     1      21.357  -4.258  32.510  1.00  0.00    -0.259 OA
HETATM   28  C21 UNK     1      19.678  -0.019  28.713  1.00  0.00     0.039 A 
HETATM   29  C20 UNK     1      19.138   0.856  29.658  1.00  0.00     0.103 A 
BRANCH  29  30
HETATM   30  N3  UNK     1      18.573   2.088  29.238  1.00  0.00    -0.116 N 
HETATM   31  O4  UNK     1      18.712   3.100  29.967  1.00  0.00    -0.532 OA
HETATM   32  O5  UNK     1      17.951   2.132  28.149  1.00  0.00    -0.532 OA
ENDBRANCH  29  30
ENDBRANCH   3  19
TORSDOF 5
ENDMDL
MODEL 2
REMARK VINA RESULT:     -10.9      6.785     11.925
REMARK  5 active torsions:
REMARK  status: ('A' for Active; 'I' for Inactive)
REMARK       I    between atoms: C12_21  and  N2_8 
REMARK    1  A    between atoms: C6_15  and  N2_8 
REMARK    2  A    between atoms: C20_29  and  N3_9 
REMARK    3  A    between atoms: C1_10  and  C2_11 
REMARK    4  A    between atoms: C2_11  and  C6_15 
REMARK    5  A    between atoms: C12_21  and  C13_22 
ROOT
HETATM    1  O2  UNK     1      17.445   3.782  31.911  1.00  0.00    -0.267 OA
HETATM    2  N2  UNK     1      18.895   4.765  30.371  1.00  0.00    -0.356 N 
HETATM    3  C12 UNK     1      18.276   3.703  31.008  1.00  0.00     0.257 C 
HETATM    4  H10 UNK     1      19.591   4.594  29.653  1.00  0.00     0.162 HD
ENDROOT
BRANCH   2   5
HETATM    5  C6  UNK     1      18.630   6.146  30.704  1.00  0.00     0.127 C 
BRANCH   5   6
HETATM    6  C2  UNK     1      19.139   6.461  32.109  1.00  0.00     0.061 C 
BRANCH   6   7
HETATM    7  C1  UNK     1      18.233   7.378  32.879  1.00  0.00    -0.022 A 
HETATM    8  C3  UNK     1      16.831   7.443  32.746  1.00  0.00     0.001 A 
HETATM    9  C5  UNK     1      16.398   8.421  33.643  1.00  0.00     0.065 A 
HETATM   10  C7  UNK     1      15.874   6.773  31.958  1.00  0.00     0.014 A 
HETATM   11  C9  UNK     1      15.049   8.765  33.791  1.00  0.00     0.061 A 
HETATM   12  N1  UNK     1      17.515   8.912  34.279  1.00  0.00    -0.357 N 
HETATM   13  C11 UNK     1      14.118   8.088  32.999  1.00  0.00     0.026 A 
HETATM   14 Cl1  UNK     1      14.538   9.972  34.900  1.00  0.00    -0.082 Cl
HETATM   15  C10 UNK     1      14.523   7.107  32.094  1.00  0.00     0.003 A 
HETATM   16  C4  UNK     1      18.638   8.279  33.817  1.00  0.00     0.013 A 
HETATM   17  H5  UNK     1      17.503   9.636  34.984  1.00  0.00     0.166 HD
HETATM   18  C8  UNK     1      19.975   8.623  34.340  1.00  0.00     0.068 C 
ENDBRANCH   6   7
ENDBRANCH   5   6
ENDBRANCH   2   5
BRANCH   3  19
HETATM   19  C13 UNK     1      18.707   2.398  30.492  1.00  0.00     0.108 A 
HETATM   20  C15 UNK     1      19.223   1.550  31.388  1.00  0.00     0.037 A 
HETATM   21  C14 UNK     1      19.677   0.231  30.973  1.00  0.00     0.001 A 
HETATM   22  C16 UNK     1      19.568  -0.127  29.634  1.00  0.00     0.089 A 
HETATM   23  C18 UNK     1      20.222  -0.687  31.875  1.00  0.00     0.050 A 
HETATM   24  O1  UNK     1      19.025   0.771  28.695  1.00  0.00    -0.274 OA
HETATM   25  C19 UNK     1      19.985  -1.374  29.171  1.00  0.00     0.041 A 
HETATM   26  C17 UNK     1      18.581   2.039  29.061  1.00  0.00     0.304 A 
HETATM   27  O3  UNK     1      18.108   2.813  28.237  1.00  0.00    -0.259 OA
HETATM   28  C21 UNK     1      20.527  -2.284  30.077  1.00  0.00     0.039 A 
HETATM   29  C20 UNK     1      20.645  -1.942  31.426  1.00  0.00     0.103 A 
BRANCH  29  30
HETATM   30  N3  UNK     1      21.196  -2.872  32.344  1.00  0.00    -0.116 N 
HETATM   31  O4  UNK     1      21.553  -2.470  33.478  1.00  0.00    -0.532 OA
HETATM   32  O5  UNK     1      21.312  -4.074  31.998  1.00  0.00    -0.532 OA
ENDBRANCH  29  30
ENDBRANCH   3  19
TORSDOF 5
ENDMDL
MODEL 3
REMARK VINA RESULT:     -10.2      6.843     12.021
REMARK  5 active torsions:
REMARK  status: ('A' for Active; 'I' for Inactive)
REMARK       I    between atoms: C12_21  and  N2_8 
REMARK    1  A    between atoms: C6_15  and  N2_8 
REMARK    2  A    between atoms: C20_29  and  N3_9 
REMARK    3  A    between atoms: C1_10  and  C2_11 
REMARK    4  A    between atoms: C2_11  and  C6_15 
REMARK    5  A    between atoms: C12_21  and  C13_22 
ROOT
HETATM    1  O2  UNK     1      17.211   3.331  31.557  1.00  0.00    -0.267 OA
HETATM    2  N2  UNK     1      19.075   4.301  30.547  1.00  0.00    -0.356 N 
HETATM    3  C12 UNK     1      18.253   3.248  30.909  1.00  0.00     0.257 C 
HETATM    4  H10 UNK     1      19.932   4.126  30.032  1.00  0.00     0.162 HD
ENDROOT
BRANCH   2   5
HETATM    5  C6  UNK     1      18.797   5.675  30.899  1.00  0.00     0.127 C 
BRANCH   5   6
HETATM    6  C2  UNK     1      18.535   5.797  32.399  1.00  0.00     0.061 C 
BRANCH   6   7
HETATM    7  C1  UNK     1      18.020   7.148  32.805  1.00  0.00    -0.022 A 
HETATM    8  C3  UNK     1      18.783   8.163  33.417  1.00  0.00     0.001 A 
HETATM    9  C5  UNK     1      17.915   9.238  33.617  1.00  0.00     0.065 A 
HETATM   10  C7  UNK     1      20.126   8.289  33.827  1.00  0.00     0.014 A 
HETATM   11  C9  UNK     1      18.324  10.438  34.210  1.00  0.00     0.061 A 
HETATM   12  N1  UNK     1      16.682   8.859  33.136  1.00  0.00    -0.357 N 
HETATM   13  C11 UNK     1      19.660  10.541  34.608  1.00  0.00     0.026 A 
HETATM   14 Cl1  UNK     1      17.239  11.748  34.447  1.00  0.00    -0.082 Cl
HETATM   15  C10 UNK     1      20.549   9.483  34.421  1.00  0.00     0.003 A 
HETATM   16  C4  UNK     1      16.741   7.585  32.639  1.00  0.00     0.013 A 
HETATM   17  H5  UNK     1      15.856   9.442  33.151  1.00  0.00     0.166 HD
HETATM   18  C8  UNK     1      15.547   6.939  32.059  1.00  0.00     0.068 C 
ENDBRANCH   6   7
ENDBRANCH   5   6
ENDBRANCH   2   5
BRANCH   3  19
HETATM   19  C13 UNK     1      18.744   1.950  30.432  1.00  0.00     0.108 A 
HETATM   20  C15 UNK     1      19.189   1.106  31.370  1.00  0.00     0.037 A 
HETATM   21  C14 UNK     1      19.694  -0.206  30.995  1.00  0.00     0.001 A 
HETATM   22  C16 UNK     1      19.708  -0.563  29.651  1.00  0.00     0.089 A 
HETATM   23  C18 UNK     1      20.169  -1.119  31.940  1.00  0.00     0.050 A 
HETATM   24  O1  UNK     1      19.238   0.331  28.668  1.00  0.00    -0.274 OA
HETATM   25  C19 UNK     1      20.180  -1.803  29.225  1.00  0.00     0.041 A 
HETATM   26  C17 UNK     1      18.749   1.592  28.996  1.00  0.00     0.304 A 
HETATM   27  O3  UNK     1      18.341   2.362  28.134  1.00  0.00    -0.259 OA
HETATM   28  C21 UNK     1      20.651  -2.708  30.174  1.00  0.00     0.039 A 
HETATM   29  C20 UNK     1      20.645  -2.368  31.529  1.00  0.00     0.103 A 
BRANCH  29  30
HETATM   30  N3  UNK     1      21.125  -3.293  32.492  1.00  0.00    -0.116 N 
HETATM   31  O4  UNK     1      21.640  -4.368  32.098  1.00  0.00    -0.532 OA
HETATM   32  O5  UNK     1      21.023  -3.011  33.711  1.00  0.00    -0.532 OA
ENDBRANCH  29  30
ENDBRANCH   3  19
TORSDOF 5
ENDMDL
MODEL 4
REMARK VINA RESULT:     -10.1      6.240     11.434
REMARK  5 active torsions:
REMARK  status: ('A' for Active; 'I' for Inactive)
REMARK       I    between atoms: C12_21  and  N2_8 
REMARK    1  A    between atoms: C6_15  and  N2_8 
REMARK    2  A    between atoms: C20_29  and  N3_9 
REMARK    3  A    between atoms: C1_10  and  C2_11 
REMARK    4  A    between atoms: C2_11  and  C6_15 
REMARK    5  A    between atoms: C12_21  and  C13_22 
ROOT
HETATM    1  O2  UNK     1      18.182   2.023  29.131  1.00  0.00    -0.267 OA
HETATM    2  N2  UNK     1      19.095   3.676  30.498  1.00  0.00    -0.356 N 
HETATM    3  C12 UNK     1      18.631   2.404  30.210  1.00  0.00     0.257 C 
HETATM    4  H10 UNK     1      19.421   3.900  31.433  1.00  0.00     0.162 HD
ENDROOT
BRANCH   2   5
HETATM    5  C6  UNK     1      19.109   4.748  29.530  1.00  0.00     0.127 C 
BRANCH   5   6
HETATM    6  C2  UNK     1      19.889   5.944  30.071  1.00  0.00     0.061 C 
BRANCH   6   7
HETATM    7  C1  UNK     1      19.458   6.364  31.446  1.00  0.00    -0.022 A 
HETATM    8  C3  UNK     1      18.158   6.774  31.806  1.00  0.00     0.001 A 
HETATM    9  C5  UNK     1      18.204   7.069  33.170  1.00  0.00     0.065 A 
HETATM   10  C7  UNK     1      16.937   6.928  31.119  1.00  0.00     0.014 A 
HETATM   11  C9  UNK     1      17.086   7.514  33.885  1.00  0.00     0.061 A 
HETATM   12  N1  UNK     1      19.494   6.839  33.592  1.00  0.00    -0.357 N 
HETATM   13  C11 UNK     1      15.886   7.659  33.183  1.00  0.00     0.026 A 
HETATM   14 Cl1  UNK     1      17.166   7.872  35.562  1.00  0.00    -0.082 Cl
HETATM   15  C10 UNK     1      15.811   7.372  31.820  1.00  0.00     0.003 A 
HETATM   16  C4  UNK     1      20.263   6.408  32.544  1.00  0.00     0.013 A 
HETATM   17  H5  UNK     1      19.821   6.971  34.539  1.00  0.00     0.166 HD
HETATM   18  C8  UNK     1      21.692   6.088  32.730  1.00  0.00     0.068 C 
ENDBRANCH   6   7
ENDBRANCH   5   6
ENDBRANCH   2   5
BRANCH   3  19
HETATM   19  C13 UNK     1      18.721   1.490  31.355  1.00  0.00     0.108 A 
HETATM   20  C15 UNK     1      18.246   1.950  32.517  1.00  0.00     0.037 A 
HETATM   21  C14 UNK     1      18.291   1.116  33.709  1.00  0.00     0.001 A 
HETATM   22  C16 UNK     1      18.836  -0.160  33.617  1.00  0.00     0.089 A 
HETATM   23  C18 UNK     1      17.806   1.556  34.944  1.00  0.00     0.050 A 
HETATM   24  O1  UNK     1      19.335  -0.638  32.390  1.00  0.00    -0.274 OA
HETATM   25  C19 UNK     1      18.909  -1.008  34.720  1.00  0.00     0.041 A 
HETATM   26  C17 UNK     1      19.306   0.135  31.233  1.00  0.00     0.304 A 
HETATM   27  O3  UNK     1      19.741  -0.290  30.169  1.00  0.00    -0.259 OA
HETATM   28  C21 UNK     1      18.423  -0.563  35.948  1.00  0.00     0.039 A 
HETATM   29  C20 UNK     1      17.872   0.716  36.060  1.00  0.00     0.103 A 
BRANCH  29  30
HETATM   30  N3  UNK     1      17.378   1.165  37.312  1.00  0.00    -0.116 N 
HETATM   31  O4  UNK     1      16.354   1.889  37.338  1.00  0.00    -0.532 OA
HETATM   32  O5  UNK     1      17.979   0.824  38.361  1.00  0.00    -0.532 OA
ENDBRANCH  29  30
ENDBRANCH   3  19
TORSDOF 5
ENDMDL
MODEL 5
REMARK VINA RESULT:     -10.0      5.714     11.357
REMARK  5 active torsions:
REMARK  status: ('A' for Active; 'I' for Inactive)
REMARK       I    between atoms: C12_21  and  N2_8 
REMARK    1  A    between atoms: C6_15  and  N2_8 
REMARK    2  A    between atoms: C20_29  and  N3_9 
REMARK    3  A    between atoms: C1_10  and  C2_11 
REMARK    4  A    between atoms: C2_11  and  C6_15 
REMARK    5  A    between atoms: C12_21  and  C13_22 
ROOT
HETATM    1  O2  UNK     1      18.079   2.169  28.764  1.00  0.00    -0.267 OA
HETATM    2  N2  UNK     1      19.114   3.636  30.251  1.00  0.00    -0.356 N 
HETATM    3  C12 UNK     1      18.649   2.403  29.828  1.00  0.00     0.257 C 
HETATM    4  H10 UNK     1      19.549   3.732  31.163  1.00  0.00     0.162 HD
ENDROOT
BRANCH   2   5
HETATM    5  C6  UNK     1      18.982   4.841  29.464  1.00  0.00     0.127 C 
BRANCH   5   6
HETATM    6  C2  UNK     1      19.857   5.952  30.040  1.00  0.00     0.061 C 
BRANCH   6   7
HETATM    7  C1  UNK     1      19.449   6.375  31.421  1.00  0.00    -0.022 A 
HETATM    8  C3  UNK     1      18.163   6.816  31.795  1.00  0.00     0.001 A 
HETATM    9  C5  UNK     1      18.229   7.103  33.160  1.00  0.00     0.065 A 
HETATM   10  C7  UNK     1      16.941   7.003  31.121  1.00  0.00     0.014 A 
HETATM   11  C9  UNK     1      17.129   7.571  33.887  1.00  0.00     0.061 A 
HETATM   12  N1  UNK     1      19.517   6.839  33.569  1.00  0.00    -0.357 N 
HETATM   13  C11 UNK     1      15.927   7.750  33.197  1.00  0.00     0.026 A 
HETATM   14 Cl1  UNK     1      17.233   7.919  35.565  1.00  0.00    -0.082 Cl
HETATM   15  C10 UNK     1      15.832   7.471  31.834  1.00  0.00     0.003 A 
HETATM   16  C4  UNK     1      20.265   6.394  32.512  1.00  0.00     0.013 A 
HETATM   17  H5  UNK     1      19.856   6.958  34.514  1.00  0.00     0.166 HD
HETATM   18  C8  UNK     1      21.688   6.038  32.683  1.00  0.00     0.068 C 
ENDBRANCH   6   7
ENDBRANCH   5   6
ENDBRANCH   2   5
BRANCH   3  19
HETATM   19  C13 UNK     1      18.903   1.333  30.800  1.00  0.00     0.108 A 
HETATM   20  C15 UNK     1      19.564   0.264  30.343  1.00  0.00     0.037 A 
HETATM   21  C14 UNK     1      19.864  -0.848  31.232  1.00  0.00     0.001 A 
HETATM   22  C16 UNK     1      19.451  -0.780  32.558  1.00  0.00     0.089 A 
HETATM   23  C18 UNK     1      20.552  -1.983  30.797  1.00  0.00     0.050 A 
HETATM   24  O1  UNK     1      18.754   0.349  33.033  1.00  0.00    -0.274 OA
HETATM   25  C19 UNK     1      19.706  -1.810  33.460  1.00  0.00     0.041 A 
HETATM   26  C17 UNK     1      18.453   1.428  32.208  1.00  0.00     0.304 A 
HETATM   27  O3  UNK     1      17.848   2.406  32.631  1.00  0.00    -0.259 OA
HETATM   28  C21 UNK     1      20.393  -2.939  33.019  1.00  0.00     0.039 A 
HETATM   29  C20 UNK     1      20.817  -3.026  31.691  1.00  0.00     0.103 A 
BRANCH  29  30
HETATM   30  N3  UNK     1      21.517  -4.178  31.247  1.00  0.00    -0.116 N 
HETATM   31  O4  UNK     1      21.706  -5.123  32.051  1.00  0.00    -0.532 OA
HETATM   32  O5  UNK     1      21.927  -4.221  30.061  1.00  0.00    -0.532 OA
ENDBRANCH  29  30
ENDBRANCH   3  19
TORSDOF 5
ENDMDL
MODEL 6
REMARK VINA RESULT:      -9.8      1.166      2.295
REMARK  5 active torsions:
REMARK  status: ('A' for Active; 'I' for Inactive)
REMARK       I    between atoms: C12_21  and  N2_8 
REMARK    1  A    between atoms: C6_15  and  N2_8 
REMARK    2  A    between atoms: C20_29  and  N3_9 
REMARK    3  A    between atoms: C1_10  and  C2_11 
REMARK    4  A    between atoms: C2_11  and  C6_15 
REMARK    5  A    between atoms: C12_21  and  C13_22 
ROOT
HETATM    1  O2  UNK     1      19.693  -1.030  35.648  1.00  0.00    -0.267 OA
HETATM    2  N2  UNK     1      19.714  -3.321  35.213  1.00  0.00    -0.356 N 
HETATM    3  C12 UNK     1      19.765  -1.980  34.871  1.00  0.00     0.257 C 
HETATM    4  H10 UNK     1      19.754  -4.033  34.492  1.00  0.00     0.162 HD
ENDROOT
BRANCH   2   5
HETATM    5  C6  UNK     1      19.568  -3.781  36.575  1.00  0.00     0.127 C 
BRANCH   5   6
HETATM    6  C2  UNK     1      20.906  -4.281  37.115  1.00  0.00     0.061 C 
BRANCH   6   7
HETATM    7  C1  UNK     1      20.901  -5.742  37.458  1.00  0.00    -0.022 A 
HETATM    8  C3  UNK     1      19.961  -6.687  36.999  1.00  0.00     0.001 A 
HETATM    9  C5  UNK     1      20.331  -7.912  37.558  1.00  0.00     0.065 A 
HETATM   10  C7  UNK     1      18.828  -6.638  36.162  1.00  0.00     0.014 A 
HETATM   11  C9  UNK     1      19.622  -9.095  37.322  1.00  0.00     0.061 A 
HETATM   12  N1  UNK     1      21.454  -7.686  38.322  1.00  0.00    -0.357 N 
HETATM   13  C11 UNK     1      18.501  -9.022  36.489  1.00  0.00     0.026 A 
HETATM   14 Cl1  UNK     1      20.094 -10.590  38.021  1.00  0.00    -0.082 Cl
HETATM   15  C10 UNK     1      18.108  -7.812  35.917  1.00  0.00     0.003 A 
HETATM   16  C4  UNK     1      21.806  -6.364  38.264  1.00  0.00     0.013 A 
HETATM   17  H5  UNK     1      21.943  -8.397  38.848  1.00  0.00     0.166 HD
HETATM   18  C8  UNK     1      22.981  -5.858  39.000  1.00  0.00     0.068 C 
ENDBRANCH   6   7
ENDBRANCH   5   6
ENDBRANCH   2   5
BRANCH   3  19
HETATM   19  C13 UNK     1      19.920  -1.765  33.427  1.00  0.00     0.108 A 
HETATM   20  C15 UNK     1      19.366  -0.653  32.933  1.00  0.00     0.037 A 
HETATM   21  C14 UNK     1      19.469  -0.352  31.513  1.00  0.00     0.001 A 
HETATM   22  C16 UNK     1      20.148  -1.239  30.684  1.00  0.00     0.089 A 
HETATM   23  C18 UNK     1      18.906   0.798  30.953  1.00  0.00     0.050 A 
HETATM   24  O1  UNK     1      20.729  -2.409  31.211  1.00  0.00    -0.274 OA
HETATM   25  C19 UNK     1      20.282  -1.010  29.316  1.00  0.00     0.041 A 
HETATM   26  C17 UNK     1      20.648  -2.724  32.565  1.00  0.00     0.304 A 
HETATM   27  O3  UNK     1      21.157  -3.744  33.015  1.00  0.00    -0.259 OA
HETATM   28  C21 UNK     1      19.718   0.139  28.765  1.00  0.00     0.039 A 
HETATM   29  C20 UNK     1      19.033   1.042  29.582  1.00  0.00     0.103 A 
BRANCH  29  30
HETATM   30  N3  UNK     1      18.461   2.211  29.016  1.00  0.00    -0.116 N 
HETATM   31  O4  UNK     1      18.627   3.312  29.596  1.00  0.00    -0.532 OA
HETATM   32  O5  UNK     1      17.805   2.114  27.950  1.00  0.00    -0.532 OA
ENDBRANCH  29  30
ENDBRANCH   3  19
TORSDOF 5
ENDMDL
MODEL 7
REMARK VINA RESULT:      -9.8      4.742      9.941
REMARK  5 active torsions:
REMARK  status: ('A' for Active; 'I' for Inactive)
REMARK       I    between atoms: C12_21  and  N2_8 
REMARK    1  A    between atoms: C6_15  and  N2_8 
REMARK    2  A    between atoms: C20_29  and  N3_9 
REMARK    3  A    between atoms: C1_10  and  C2_11 
REMARK    4  A    between atoms: C2_11  and  C6_15 
REMARK    5  A    between atoms: C12_21  and  C13_22 
ROOT
HETATM    1  O2  UNK     1      20.129  -4.146  35.005  1.00  0.00    -0.267 OA
HETATM    2  N2  UNK     1      19.342  -3.871  37.183  1.00  0.00    -0.356 N 
HETATM    3  C12 UNK     1      19.769  -4.603  36.089  1.00  0.00     0.257 C 
HETATM    4  H10 UNK     1      19.038  -4.345  38.027  1.00  0.00     0.162 HD
ENDROOT
BRANCH   2   5
HETATM    5  C6  UNK     1      19.267  -2.428  37.185  1.00  0.00     0.127 C 
BRANCH   5   6
HETATM    6  C2  UNK     1      17.894  -1.966  36.700  1.00  0.00     0.061 C 
BRANCH   6   7
HETATM    7  C1  UNK     1      17.929  -0.648  35.981  1.00  0.00    -0.022 A 
HETATM    8  C3  UNK     1      18.267  -0.466  34.624  1.00  0.00     0.001 A 
HETATM    9  C5  UNK     1      18.169   0.905  34.378  1.00  0.00     0.065 A 
HETATM   10  C7  UNK     1      18.648  -1.320  33.570  1.00  0.00     0.014 A 
HETATM   11  C9  UNK     1      18.435   1.467  33.124  1.00  0.00     0.061 A 
HETATM   12  N1  UNK     1      17.786   1.503  35.557  1.00  0.00    -0.357 N 
HETATM   13  C11 UNK     1      18.811   0.601  32.093  1.00  0.00     0.026 A 
HETATM   14 Cl1  UNK     1      18.309   3.156  32.843  1.00  0.00    -0.082 Cl
HETATM   15  C10 UNK     1      18.917  -0.772  32.311  1.00  0.00     0.003 A 
HETATM   16  C4  UNK     1      17.638   0.560  36.538  1.00  0.00     0.013 A 
HETATM   17  H5  UNK     1      17.637   2.496  35.675  1.00  0.00     0.166 HD
HETATM   18  C8  UNK     1      17.230   0.942  37.904  1.00  0.00     0.068 C 
ENDBRANCH   6   7
ENDBRANCH   5   6
ENDBRANCH   2   5
BRANCH   3  19
HETATM   19  C13 UNK     1      19.761  -6.050  36.332  1.00  0.00     0.108 A 
HETATM   20  C15 UNK     1      20.898  -6.701  36.062  1.00  0.00     0.037 A 
HETATM   21  C14 UNK     1      20.988  -8.138  36.273  1.00  0.00     0.001 A 
HETATM   22  C16 UNK     1      19.875  -8.818  36.755  1.00  0.00     0.089 A 
HETATM   23  C18 UNK     1      22.155  -8.858  36.004  1.00  0.00     0.050 A 
HETATM   24  O1  UNK     1      18.680  -8.127  37.036  1.00  0.00    -0.274 OA
HETATM   25  C19 UNK     1      19.895 -10.194  36.977  1.00  0.00     0.041 A 
HETATM   26  C17 UNK     1      18.563  -6.753  36.846  1.00  0.00     0.304 A 
HETATM   27  O3  UNK     1      17.520  -6.160  37.095  1.00  0.00    -0.259 OA
HETATM   28  C21 UNK     1      21.063 -10.905  36.708  1.00  0.00     0.039 A 
HETATM   29  C20 UNK     1      22.191 -10.239  36.223  1.00  0.00     0.103 A 
BRANCH  29  30
HETATM   30  N3  UNK     1      23.378 -10.967  35.951  1.00  0.00    -0.116 N 
HETATM   31  O4  UNK     1      24.473 -10.528  36.378  1.00  0.00    -0.532 OA
HETATM   32  O5  UNK     1      23.300 -12.033  35.291  1.00  0.00    -0.532 OA
ENDBRANCH  29  30
ENDBRANCH   3  19
TORSDOF 5
ENDMDL
MODEL 8
REMARK VINA RESULT:      -9.7      7.635     11.418
REMARK  5 active torsions:
REMARK  status: ('A' for Active; 'I' for Inactive)
REMARK       I    between atoms: C12_21  and  N2_8 
REMARK    1  A    between atoms: C6_15  and  N2_8 
REMARK    2  A    between atoms: C20_29  and  N3_9 
REMARK    3  A    between atoms: C1_10  and  C2_11 
REMARK    4  A    between atoms: C2_11  and  C6_15 
REMARK    5  A    between atoms: C12_21  and  C13_22 
ROOT
HETATM    1  O2  UNK     1      19.067   6.729  33.580  1.00  0.00    -0.267 OA
HETATM    2  N2  UNK     1      17.820   5.586  31.976  1.00  0.00    -0.356 N 
HETATM    3  C12 UNK     1      18.086   6.629  32.846  1.00  0.00     0.257 C 
HETATM    4  H10 UNK     1      16.965   5.582  31.430  1.00  0.00     0.162 HD
ENDROOT
BRANCH   2   5
HETATM    5  C6  UNK     1      18.696   4.447  31.820  1.00  0.00     0.127 C 
BRANCH   5   6
HETATM    6  C2  UNK     1      17.930   3.262  31.238  1.00  0.00     0.061 C 
BRANCH   6   7
HETATM    7  C1  UNK     1      18.510   1.931  31.622  1.00  0.00    -0.022 A 
HETATM    8  C3  UNK     1      19.119   1.019  30.737  1.00  0.00     0.001 A 
HETATM    9  C5  UNK     1      19.512  -0.075  31.512  1.00  0.00     0.065 A 
HETATM   10  C7  UNK     1      19.383   1.000  29.353  1.00  0.00     0.014 A 
HETATM   11  C9  UNK     1      20.159  -1.191  30.969  1.00  0.00     0.061 A 
HETATM   12  N1  UNK     1      19.141   0.194  32.810  1.00  0.00    -0.357 N 
HETATM   13  C11 UNK     1      20.410  -1.188  29.594  1.00  0.00     0.026 A 
HETATM   14 Cl1  UNK     1      20.633  -2.525  31.940  1.00  0.00    -0.082 Cl
HETATM   15  C10 UNK     1      20.029  -0.109  28.797  1.00  0.00     0.003 A 
HETATM   16  C4  UNK     1      18.530   1.416  32.883  1.00  0.00     0.013 A 
HETATM   17  H5  UNK     1      19.300  -0.427  33.593  1.00  0.00     0.166 HD
HETATM   18  C8  UNK     1      18.035   1.943  34.170  1.00  0.00     0.068 C 
ENDBRANCH   6   7
ENDBRANCH   5   6
ENDBRANCH   2   5
BRANCH   3  19
HETATM   19  C13 UNK     1      17.050   7.669  32.824  1.00  0.00     0.108 A 
HETATM   20  C15 UNK     1      16.677   8.156  34.012  1.00  0.00     0.037 A 
HETATM   21  C14 UNK     1      15.658   9.191  34.093  1.00  0.00     0.001 A 
HETATM   22  C16 UNK     1      15.081   9.660  32.918  1.00  0.00     0.089 A 
HETATM   23  C18 UNK     1      15.237   9.729  35.312  1.00  0.00     0.050 A 
HETATM   24  O1  UNK     1      15.478   9.143  31.669  1.00  0.00    -0.274 OA
HETATM   25  C19 UNK     1      14.099  10.649  32.926  1.00  0.00     0.041 A 
HETATM   26  C17 UNK     1      16.451   8.153  31.560  1.00  0.00     0.304 A 
HETATM   27  O3  UNK     1      16.791   7.710  30.469  1.00  0.00    -0.259 OA
HETATM   28  C21 UNK     1      13.686  11.181  34.145  1.00  0.00     0.039 A 
HETATM   29  C20 UNK     1      14.253  10.722  35.337  1.00  0.00     0.103 A 
BRANCH  29  30
HETATM   30  N3  UNK     1      13.829  11.267  36.576  1.00  0.00    -0.116 N 
HETATM   31  O4  UNK     1      12.999  12.208  36.575  1.00  0.00    -0.532 OA
HETATM   32  O5  UNK     1      14.295  10.792  37.641  1.00  0.00    -0.532 OA
ENDBRANCH  29  30
ENDBRANCH   3  19
TORSDOF 5
ENDMDL
MODEL 9
REMARK VINA RESULT:      -9.7      4.682     10.046
REMARK  5 active torsions:
REMARK  status: ('A' for Active; 'I' for Inactive)
REMARK       I    between atoms: C12_21  and  N2_8 
REMARK    1  A    between atoms: C6_15  and  N2_8 
REMARK    2  A    between atoms: C20_29  and  N3_9 
REMARK    3  A    between atoms: C1_10  and  C2_11 
REMARK    4  A    between atoms: C2_11  and  C6_15 
REMARK    5  A    between atoms: C12_21  and  C13_22 
ROOT
HETATM    1  O2  UNK     1      19.730  -3.646  37.560  1.00  0.00    -0.267 OA
HETATM    2  N2  UNK     1      20.010  -3.808  35.251  1.00  0.00    -0.356 N 
HETATM    3  C12 UNK     1      19.825  -4.308  36.529  1.00  0.00     0.257 C 
HETATM    4  H10 UNK     1      20.104  -4.441  34.464  1.00  0.00     0.162 HD
ENDROOT
BRANCH   2   5
HETATM    5  C6  UNK     1      20.116  -2.395  34.966  1.00  0.00     0.127 C 
BRANCH   5   6
HETATM    6  C2  UNK     1      18.734  -1.801  34.699  1.00  0.00     0.061 C 
BRANCH   6   7
HETATM    7  C1  UNK     1      18.733  -0.760  33.617  1.00  0.00    -0.022 A 
HETATM    8  C3  UNK     1      19.268  -0.924  32.324  1.00  0.00     0.001 A 
HETATM    9  C5  UNK     1      19.052   0.282  31.654  1.00  0.00     0.065 A 
HETATM   10  C7  UNK     1      19.918  -1.972  31.642  1.00  0.00     0.014 A 
HETATM   11  C9  UNK     1      19.455   0.494  30.331  1.00  0.00     0.061 A 
HETATM   12  N1  UNK     1      18.409   1.124  32.534  1.00  0.00    -0.357 N 
HETATM   13  C11 UNK     1      20.098  -0.559  29.674  1.00  0.00     0.026 A 
HETATM   14 Cl1  UNK     1      19.179   1.986  29.528  1.00  0.00    -0.082 Cl
HETATM   15  C10 UNK     1      20.327  -1.774  30.318  1.00  0.00     0.003 A 
HETATM   16  C4  UNK     1      18.212   0.493  33.732  1.00  0.00     0.013 A 
HETATM   17  H5  UNK     1      18.127   2.071  32.320  1.00  0.00     0.166 HD
HETATM   18  C8  UNK     1      17.539   1.181  34.852  1.00  0.00     0.068 C 
ENDBRANCH   6   7
ENDBRANCH   5   6
ENDBRANCH   2   5
BRANCH   3  19
HETATM   19  C13 UNK     1      19.745  -5.773  36.562  1.00  0.00     0.108 A 
HETATM   20  C15 UNK     1      20.890  -6.432  36.355  1.00  0.00     0.037 A 
HETATM   21  C14 UNK     1      20.912  -7.887  36.371  1.00  0.00     0.001 A 
HETATM   22  C16 UNK     1      19.726  -8.575  36.602  1.00  0.00     0.089 A 
HETATM   23  C18 UNK     1      22.085  -8.617  36.159  1.00  0.00     0.050 A 
HETATM   24  O1  UNK     1      18.523  -7.875  36.819  1.00  0.00    -0.274 OA
HETATM   25  C19 UNK     1      19.678  -9.968  36.630  1.00  0.00     0.041 A 
HETATM   26  C17 UNK     1      18.470  -6.484  36.811  1.00  0.00     0.304 A 
HETATM   27  O3  UNK     1      17.419  -5.884  37.002  1.00  0.00    -0.259 OA
HETATM   28  C21 UNK     1      20.852 -10.688  36.418  1.00  0.00     0.039 A 
HETATM   29  C20 UNK     1      22.053 -10.014  36.184  1.00  0.00     0.103 A 
BRANCH  29  30
HETATM   30  N3  UNK     1      23.246 -10.752  35.970  1.00  0.00    -0.116 N 
HETATM   31  O4  UNK     1      23.194 -11.813  35.301  1.00  0.00    -0.532 OA
HETATM   32  O5  UNK     1      24.322 -10.324  36.455  1.00  0.00    -0.532 OA
ENDBRANCH  29  30
ENDBRANCH   3  19
TORSDOF 5
ENDMDL
MODEL 10
REMARK VINA RESULT:      -9.7      5.512     11.194
REMARK  5 active torsions:
REMARK  status: ('A' for Active; 'I' for Inactive)
REMARK       I    between atoms: C12_21  and  N2_8 
REMARK    1  A    between atoms: C6_15  and  N2_8 
REMARK    2  A    between atoms: C20_29  and  N3_9 
REMARK    3  A    between atoms: C1_10  and  C2_11 
REMARK    4  A    between atoms: C2_11  and  C6_15 
REMARK    5  A    between atoms: C12_21  and  C13_22 
ROOT
HETATM    1  O2  UNK     1      17.511   1.928  29.255  1.00  0.00    -0.267 OA
HETATM    2  N2  UNK     1      19.211   3.216  30.197  1.00  0.00    -0.356 N 
HETATM    3  C12 UNK     1      18.522   2.042  29.945  1.00  0.00     0.257 C 
HETATM    4  H10 UNK     1      20.023   3.211  30.805  1.00  0.00     0.162 HD
ENDROOT
BRANCH   2   5
HETATM    5  C6  UNK     1      18.810   4.496  29.659  1.00  0.00     0.127 C 
BRANCH   5   6
HETATM    6  C2  UNK     1      19.754   5.595  30.141  1.00  0.00     0.061 C 
BRANCH   6   7
HETATM    7  C1  UNK     1      19.393   6.138  31.494  1.00  0.00    -0.022 A 
HETATM    8  C3  UNK     1      18.098   6.514  31.906  1.00  0.00     0.001 A 
HETATM    9  C5  UNK     1      18.220   6.958  33.224  1.00  0.00     0.065 A 
HETATM   10  C7  UNK     1      16.826   6.525  31.300  1.00  0.00     0.014 A 
HETATM   11  C9  UNK     1      17.128   7.415  33.970  1.00  0.00     0.061 A 
HETATM   12  N1  UNK     1      19.548   6.845  33.569  1.00  0.00    -0.357 N 
HETATM   13  C11 UNK     1      15.876   7.418  33.349  1.00  0.00     0.026 A 
HETATM   14 Cl1  UNK     1      17.301   7.958  35.590  1.00  0.00    -0.082 Cl
HETATM   15  C10 UNK     1      15.725   6.980  32.034  1.00  0.00     0.003 A 
HETATM   16  C4  UNK     1      20.268   6.345  32.517  1.00  0.00     0.013 A 
HETATM   17  H5  UNK     1      19.930   7.096  34.470  1.00  0.00     0.166 HD
HETATM   18  C8  UNK     1      21.724   6.126  32.628  1.00  0.00     0.068 C 
ENDBRANCH   6   7
ENDBRANCH   5   6
ENDBRANCH   2   5
BRANCH   3  19
HETATM   19  C13 UNK     1      19.125   0.875  30.600  1.00  0.00     0.108 A 
HETATM   20  C15 UNK     1      18.750   0.646  31.863  1.00  0.00     0.037 A 
HETATM   21  C14 UNK     1      19.292  -0.489  32.595  1.00  0.00     0.001 A 
HETATM   22  C16 UNK     1      20.204  -1.325  31.961  1.00  0.00     0.089 A 
HETATM   23  C18 UNK     1      18.928  -0.765  33.915  1.00  0.00     0.050 A 
HETATM   24  O1  UNK     1      20.596  -1.078  30.630  1.00  0.00    -0.274 OA
HETATM   25  C19 UNK     1      20.761  -2.427  32.605  1.00  0.00     0.041 A 
HETATM   26  C17 UNK     1      20.095  -0.002  29.904  1.00  0.00     0.304 A 
HETATM   27  O3  UNK     1      20.441   0.204  28.746  1.00  0.00    -0.259 OA
HETATM   28  C21 UNK     1      20.393  -2.697  33.922  1.00  0.00     0.039 A 
HETATM   29  C20 UNK     1      19.478  -1.868  34.576  1.00  0.00     0.103 A 
BRANCH  29  30
HETATM   30  N3  UNK     1      19.105  -2.147  35.916  1.00  0.00    -0.116 N 
HETATM   31  O4  UNK     1      19.779  -2.976  36.575  1.00  0.00    -0.532 OA
HETATM   32  O5  UNK     1      18.112  -1.557  36.408  1.00  0.00    -0.532 OA
ENDBRANCH  29  30
ENDBRANCH   3  19
TORSDOF 5
ENDMDL
