MODEL 1
REMARK VINA RESULT:      -8.8      0.000      0.000
REMARK  5 active torsions:
REMARK  status: ('A' for Active; 'I' for Inactive)
REMARK    1  A    between atoms: C11_17  and  O2_2 
REMARK    2  A    between atoms: C17_23  and  O4_4 
REMARK    3  A    between atoms: C2_8  and  N1_6 
REMARK       I    between atoms: C7_13  and  N1_6 
REMARK    4  A    between atoms: C2_8  and  C6_12 
REMARK    5  A    between atoms: C3_9  and  C7_13 
ROOT
HETATM    1  O1  UNK     1      20.016  -0.917  29.549  1.00  0.00    -0.274 OA
HETATM    2  O5  UNK     1      19.354   0.798  28.191  1.00  0.00    -0.259 OA
HETATM    3  C1  UNK     1      19.673  -0.750  31.949  1.00  0.00     0.002 A 
HETATM    4  C3  UNK     1      18.971   1.072  30.514  1.00  0.00     0.108 A 
HETATM    5  C4  UNK     1      20.130  -1.460  30.843  1.00  0.00     0.089 A 
HETATM    6  C5  UNK     1      19.077   0.562  31.747  1.00  0.00     0.037 A 
HETATM    7  C8  UNK     1      19.802  -1.321  33.217  1.00  0.00     0.051 A 
HETATM    8  C9  UNK     1      20.710  -2.720  30.969  1.00  0.00     0.041 A 
HETATM    9  C10 UNK     1      19.449   0.334  29.323  1.00  0.00     0.304 A 
HETATM   10  C11 UNK     1      20.383  -2.585  33.360  1.00  0.00     0.069 A 
HETATM   11  C14 UNK     1      20.836  -3.282  32.237  1.00  0.00     0.039 A 
ENDROOT
BRANCH   4  12
HETATM   12  C7  UNK     1      18.355   2.400  30.412  1.00  0.00     0.258 C 
HETATM   13  O3  UNK     1      17.161   2.563  30.656  1.00  0.00    -0.267 OA
HETATM   14  N1  UNK     1      19.250   3.380  30.025  1.00  0.00    -0.352 N 
HETATM   15  H4  UNK     1      20.225   3.147  29.861  1.00  0.00     0.163 HD
BRANCH  14  16
HETATM   16  C2  UNK     1      18.876   4.766  29.854  1.00  0.00     0.161 C 
BRANCH  16  17
HETATM   17  C6  UNK     1      19.043   5.520  31.144  1.00  0.00    -0.040 A 
HETATM   18  C12 UNK     1      20.315   5.893  31.561  1.00  0.00     0.011 A 
HETATM   19  C15 UNK     1      20.470   6.591  32.758  1.00  0.00     0.037 A 
HETATM   20  C17 UNK     1      19.352   6.909  33.529  1.00  0.00     0.068 A 
HETATM   21  C16 UNK     1      18.079   6.529  33.103  1.00  0.00     0.037 A 
HETATM   22  C13 UNK     1      17.924   5.832  31.906  1.00  0.00     0.011 A 
BRANCH  20  23
HETATM   23  O4  UNK     1      19.503   7.591  34.698  1.00  0.00    -0.356 OA
HETATM   24  C19 UNK     1      19.921   8.952  34.607  1.00  0.00     0.210 C 
ENDBRANCH  20  23
ENDBRANCH  16  17
ENDBRANCH  14  16
ENDBRANCH   4  12
BRANCH  10  25
HETATM   25  O2  UNK     1      20.509  -3.138  34.598  1.00  0.00    -0.356 OA
HETATM   26  C18 UNK     1      20.166  -2.318  35.712  1.00  0.00     0.210 C 
ENDBRANCH  10  25
TORSDOF 5
ENDMDL
MODEL 2
REMARK VINA RESULT:      -8.5      3.875      9.958
REMARK  5 active torsions:
REMARK  status: ('A' for Active; 'I' for Inactive)
REMARK    1  A    between atoms: C11_17  and  O2_2 
REMARK    2  A    between atoms: C17_23  and  O4_4 
REMARK    3  A    between atoms: C2_8  and  N1_6 
REMARK       I    between atoms: C7_13  and  N1_6 
REMARK    4  A    between atoms: C2_8  and  C6_12 
REMARK    5  A    between atoms: C3_9  and  C7_13 
ROOT
HETATM    1  O1  UNK     1      20.823  -2.816  30.890  1.00  0.00    -0.274 OA
HETATM    2  O5  UNK     1      21.345  -4.226  32.611  1.00  0.00    -0.259 OA
HETATM    3  C1  UNK     1      19.727  -0.698  31.362  1.00  0.00     0.002 A 
HETATM    4  C3  UNK     1      20.278  -2.190  33.190  1.00  0.00     0.108 A 
HETATM    5  C4  UNK     1      20.266  -1.600  30.450  1.00  0.00     0.089 A 
HETATM    6  C5  UNK     1      19.747  -1.033  32.778  1.00  0.00     0.037 A 
HETATM    7  C8  UNK     1      19.185   0.499  30.888  1.00  0.00     0.051 A 
HETATM    8  C9  UNK     1      20.278  -1.339  29.081  1.00  0.00     0.041 A 
HETATM    9  C10 UNK     1      20.857  -3.164  32.237  1.00  0.00     0.304 A 
HETATM   10  C11 UNK     1      19.189   0.774  29.517  1.00  0.00     0.069 A 
HETATM   11  C14 UNK     1      19.735  -0.144  28.616  1.00  0.00     0.039 A 
ENDROOT
BRANCH   4  12
HETATM   12  C7  UNK     1      20.252  -2.437  34.637  1.00  0.00     0.258 C 
HETATM   13  O3  UNK     1      20.535  -1.545  35.435  1.00  0.00    -0.267 OA
HETATM   14  N1  UNK     1      19.890  -3.733  34.955  1.00  0.00    -0.352 N 
HETATM   15  H4  UNK     1      19.659  -4.395  34.220  1.00  0.00     0.163 HD
BRANCH  14  16
HETATM   16  C2  UNK     1      19.796  -4.214  36.315  1.00  0.00     0.161 C 
BRANCH  16  17
HETATM   17  C6  UNK     1      19.868  -5.715  36.349  1.00  0.00    -0.040 A 
HETATM   18  C12 UNK     1      19.627  -6.386  37.541  1.00  0.00     0.011 A 
HETATM   19  C15 UNK     1      19.695  -7.779  37.574  1.00  0.00     0.037 A 
HETATM   20  C17 UNK     1      20.003  -8.489  36.414  1.00  0.00     0.068 A 
HETATM   21  C16 UNK     1      20.244  -7.806  35.221  1.00  0.00     0.037 A 
HETATM   22  C13 UNK     1      20.176  -6.414  35.189  1.00  0.00     0.011 A 
BRANCH  20  23
HETATM   23  O4  UNK     1      20.068  -9.849  36.445  1.00  0.00    -0.356 OA
HETATM   24  C19 UNK     1      19.569 -10.496  37.614  1.00  0.00     0.210 C 
ENDBRANCH  20  23
ENDBRANCH  16  17
ENDBRANCH  14  16
ENDBRANCH   4  12
BRANCH  10  25
HETATM   25  O2  UNK     1      18.659   1.941  29.058  1.00  0.00    -0.356 OA
HETATM   26  C18 UNK     1      18.661   3.051  29.953  1.00  0.00     0.210 C 
ENDBRANCH  10  25
TORSDOF 5
ENDMDL
MODEL 3
REMARK VINA RESULT:      -8.2     14.933     18.801
REMARK  5 active torsions:
REMARK  status: ('A' for Active; 'I' for Inactive)
REMARK    1  A    between atoms: C11_17  and  O2_2 
REMARK    2  A    between atoms: C17_23  and  O4_4 
REMARK    3  A    between atoms: C2_8  and  N1_6 
REMARK       I    between atoms: C7_13  and  N1_6 
REMARK    4  A    between atoms: C2_8  and  C6_12 
REMARK    5  A    between atoms: C3_9  and  C7_13 
ROOT
HETATM    1  O1  UNK     1      19.328   1.164  15.548  1.00  0.00    -0.274 OA
HETATM    2  O5  UNK     1      19.406  -0.326  13.818  1.00  0.00    -0.259 OA
HETATM    3  C1  UNK     1      18.885   0.366  17.802  1.00  0.00     0.002 A 
HETATM    4  C3  UNK     1      18.965  -1.217  15.969  1.00  0.00     0.108 A 
HETATM    5  C4  UNK     1      19.149   1.412  16.923  1.00  0.00     0.089 A 
HETATM    6  C5  UNK     1      18.794  -0.988  17.276  1.00  0.00     0.037 A 
HETATM    7  C8  UNK     1      18.714   0.651  19.158  1.00  0.00     0.051 A 
HETATM    8  C9  UNK     1      19.248   2.731  17.362  1.00  0.00     0.041 A 
HETATM    9  C10 UNK     1      19.248  -0.120  15.017  1.00  0.00     0.304 A 
HETATM   10  C11 UNK     1      18.810   1.970  19.613  1.00  0.00     0.069 A 
HETATM   11  C14 UNK     1      19.076   3.007  18.716  1.00  0.00     0.039 A 
ENDROOT
BRANCH   4  12
HETATM   12  C7  UNK     1      18.856  -2.616  15.536  1.00  0.00     0.258 C 
HETATM   13  O3  UNK     1      17.857  -3.282  15.801  1.00  0.00    -0.267 OA
HETATM   14  N1  UNK     1      19.965  -3.050  14.835  1.00  0.00    -0.352 N 
HETATM   15  H4  UNK     1      20.737  -2.415  14.653  1.00  0.00     0.163 HD
BRANCH  14  16
HETATM   16  C2  UNK     1      20.090  -4.390  14.308  1.00  0.00     0.161 C 
BRANCH  16  17
HETATM   17  C6  UNK     1      19.641  -4.437  12.874  1.00  0.00    -0.040 A 
HETATM   18  C12 UNK     1      19.789  -3.311  12.073  1.00  0.00     0.011 A 
HETATM   19  C15 UNK     1      19.371  -3.353  10.743  1.00  0.00     0.037 A 
HETATM   20  C17 UNK     1      18.810  -4.521  10.225  1.00  0.00     0.068 A 
HETATM   21  C16 UNK     1      18.666  -5.646  11.037  1.00  0.00     0.037 A 
HETATM   22  C13 UNK     1      19.084  -5.603  12.367  1.00  0.00     0.011 A 
BRANCH  20  23
HETATM   23  O4  UNK     1      18.404  -4.562   8.926  1.00  0.00    -0.356 OA
HETATM   24  C19 UNK     1      17.125  -5.137   8.664  1.00  0.00     0.210 C 
ENDBRANCH  20  23
ENDBRANCH  16  17
ENDBRANCH  14  16
ENDBRANCH   4  12
BRANCH  10  25
HETATM   25  O2  UNK     1      18.642   2.245  20.937  1.00  0.00    -0.356 OA
HETATM   26  C18 UNK     1      19.762   2.022  21.791  1.00  0.00     0.210 C 
ENDBRANCH  10  25
TORSDOF 5
ENDMDL
MODEL 4
REMARK VINA RESULT:      -8.0      2.247      2.766
REMARK  5 active torsions:
REMARK  status: ('A' for Active; 'I' for Inactive)
REMARK    1  A    between atoms: C11_17  and  O2_2 
REMARK    2  A    between atoms: C17_23  and  O4_4 
REMARK    3  A    between atoms: C2_8  and  N1_6 
REMARK       I    between atoms: C7_13  and  N1_6 
REMARK    4  A    between atoms: C2_8  and  C6_12 
REMARK    5  A    between atoms: C3_9  and  C7_13 
ROOT
HETATM    1  O1  UNK     1      19.373  -0.631  32.393  1.00  0.00    -0.274 OA
HETATM    2  O5  UNK     1      19.475   0.347  30.331  1.00  0.00    -0.259 OA
HETATM    3  C1  UNK     1      18.406   0.594  34.257  1.00  0.00     0.002 A 
HETATM    4  C3  UNK     1      18.514   1.636  32.072  1.00  0.00     0.108 A 
HETATM    5  C4  UNK     1      19.006  -0.555  33.751  1.00  0.00     0.089 A 
HETATM    6  C5  UNK     1      18.164   1.715  33.362  1.00  0.00     0.037 A 
HETATM    7  C8  UNK     1      18.056   0.632  35.609  1.00  0.00     0.051 A 
HETATM    8  C9  UNK     1      19.266  -1.662  34.556  1.00  0.00     0.041 A 
HETATM    9  C10 UNK     1      19.153   0.424  31.512  1.00  0.00     0.304 A 
HETATM   10  C11 UNK     1      18.310  -0.471  36.429  1.00  0.00     0.069 A 
HETATM   11  C14 UNK     1      18.914  -1.616  35.903  1.00  0.00     0.039 A 
ENDROOT
BRANCH   4  12
HETATM   12  C7  UNK     1      18.228   2.817  31.249  1.00  0.00     0.258 C 
HETATM   13  O3  UNK     1      17.200   2.884  30.578  1.00  0.00    -0.267 OA
HETATM   14  N1  UNK     1      19.217   3.780  31.328  1.00  0.00    -0.352 N 
HETATM   15  H4  UNK     1      20.025   3.636  31.925  1.00  0.00     0.163 HD
BRANCH  14  16
HETATM   16  C2  UNK     1      19.159   5.030  30.604  1.00  0.00     0.161 C 
BRANCH  16  17
HETATM   17  C6  UNK     1      18.850   6.166  31.538  1.00  0.00    -0.040 A 
HETATM   18  C12 UNK     1      19.786   6.541  32.494  1.00  0.00     0.011 A 
HETATM   19  C15 UNK     1      19.499   7.594  33.362  1.00  0.00     0.037 A 
HETATM   20  C17 UNK     1      18.279   8.263  33.267  1.00  0.00     0.068 A 
HETATM   21  C16 UNK     1      17.345   7.879  32.304  1.00  0.00     0.037 A 
HETATM   22  C13 UNK     1      17.632   6.826  31.436  1.00  0.00     0.011 A 
BRANCH  20  23
HETATM   23  O4  UNK     1      17.999   9.293  34.114  1.00  0.00    -0.356 OA
HETATM   24  C19 UNK     1      16.729   9.925  33.971  1.00  0.00     0.210 C 
ENDBRANCH  20  23
ENDBRANCH  16  17
ENDBRANCH  14  16
ENDBRANCH   4  12
BRANCH  10  25
HETATM   25  O2  UNK     1      17.969  -0.430  37.747  1.00  0.00    -0.356 OA
HETATM   26  C18 UNK     1      17.613   0.841  38.285  1.00  0.00     0.210 C 
ENDBRANCH  10  25
TORSDOF 5
ENDMDL
MODEL 5
REMARK VINA RESULT:      -8.0     13.320     17.316
REMARK  5 active torsions:
REMARK  status: ('A' for Active; 'I' for Inactive)
REMARK    1  A    between atoms: C11_17  and  O2_2 
REMARK    2  A    between atoms: C17_23  and  O4_4 
REMARK    3  A    between atoms: C2_8  and  N1_6 
REMARK       I    between atoms: C7_13  and  N1_6 
REMARK    4  A    between atoms: C2_8  and  C6_12 
REMARK    5  A    between atoms: C3_9  and  C7_13 
ROOT
HETATM    1  O1  UNK     1      19.288   1.265  15.436  1.00  0.00    -0.274 OA
HETATM    2  O5  UNK     1      19.478  -0.248  13.733  1.00  0.00    -0.259 OA
HETATM    3  C1  UNK     1      19.045   0.475  17.722  1.00  0.00     0.002 A 
HETATM    4  C3  UNK     1      19.245  -1.132  15.919  1.00  0.00     0.108 A 
HETATM    5  C4  UNK     1      19.139   1.523  16.812  1.00  0.00     0.089 A 
HETATM    6  C5  UNK     1      19.103  -0.893  17.228  1.00  0.00     0.037 A 
HETATM    7  C8  UNK     1      18.899   0.771  19.079  1.00  0.00     0.051 A 
HETATM    8  C9  UNK     1      19.090   2.855  17.220  1.00  0.00     0.041 A 
HETATM    9  C10 UNK     1      19.347  -0.032  14.934  1.00  0.00     0.304 A 
HETATM   10  C11 UNK     1      18.848   2.102  19.503  1.00  0.00     0.069 A 
HETATM   11  C14 UNK     1      18.943   3.142  18.575  1.00  0.00     0.039 A 
ENDROOT
BRANCH   4  12
HETATM   12  C7  UNK     1      19.293  -2.544  15.519  1.00  0.00     0.258 C 
HETATM   13  O3  UNK     1      20.121  -3.310  16.008  1.00  0.00    -0.267 OA
HETATM   14  N1  UNK     1      18.339  -2.868  14.573  1.00  0.00    -0.352 N 
HETATM   15  H4  UNK     1      17.687  -2.163  14.241  1.00  0.00     0.163 HD
BRANCH  14  16
HETATM   16  C2  UNK     1      18.193  -4.197  14.024  1.00  0.00     0.161 C 
BRANCH  16  17
HETATM   17  C6  UNK     1      17.516  -5.104  15.013  1.00  0.00    -0.040 A 
HETATM   18  C12 UNK     1      17.460  -6.470  14.764  1.00  0.00     0.011 A 
HETATM   19  C15 UNK     1      16.830  -7.311  15.681  1.00  0.00     0.037 A 
HETATM   20  C17 UNK     1      16.262  -6.780  16.839  1.00  0.00     0.068 A 
HETATM   21  C16 UNK     1      16.323  -5.408  17.080  1.00  0.00     0.037 A 
HETATM   22  C13 UNK     1      16.953  -4.566  16.163  1.00  0.00     0.011 A 
BRANCH  20  23
HETATM   23  O4  UNK     1      15.648  -7.602  17.735  1.00  0.00    -0.356 OA
HETATM   24  C19 UNK     1      15.736  -7.243  19.112  1.00  0.00     0.210 C 
ENDBRANCH  20  23
ENDBRANCH  16  17
ENDBRANCH  14  16
ENDBRANCH   4  12
BRANCH  10  25
HETATM   25  O2  UNK     1      18.704   2.387  20.827  1.00  0.00    -0.356 OA
HETATM   26  C18 UNK     1      19.671   1.835  21.718  1.00  0.00     0.210 C 
ENDBRANCH  10  25
TORSDOF 5
ENDMDL
MODEL 6
REMARK VINA RESULT:      -8.0      3.369      4.431
REMARK  5 active torsions:
REMARK  status: ('A' for Active; 'I' for Inactive)
REMARK    1  A    between atoms: C11_17  and  O2_2 
REMARK    2  A    between atoms: C17_23  and  O4_4 
REMARK    3  A    between atoms: C2_8  and  N1_6 
REMARK       I    between atoms: C7_13  and  N1_6 
REMARK    4  A    between atoms: C2_8  and  C6_12 
REMARK    5  A    between atoms: C3_9  and  C7_13 
ROOT
HETATM    1  O1  UNK     1      18.270   1.674  32.183  1.00  0.00    -0.274 OA
HETATM    2  O5  UNK     1      18.298   3.245  30.523  1.00  0.00    -0.259 OA
HETATM    3  C1  UNK     1      18.310   2.382  34.508  1.00  0.00     0.002 A 
HETATM    4  C3  UNK     1      18.341   4.051  32.752  1.00  0.00     0.108 A 
HETATM    5  C4  UNK     1      18.274   1.367  33.557  1.00  0.00     0.089 A 
HETATM    6  C5  UNK     1      18.345   3.766  34.059  1.00  0.00     0.037 A 
HETATM    7  C8  UNK     1      18.311   2.039  35.862  1.00  0.00     0.051 A 
HETATM    8  C9  UNK     1      18.240   0.023  33.921  1.00  0.00     0.041 A 
HETATM    9  C10 UNK     1      18.302   2.987  31.723  1.00  0.00     0.304 A 
HETATM   10  C11 UNK     1      18.277   0.694  36.242  1.00  0.00     0.069 A 
HETATM   11  C14 UNK     1      18.242  -0.312  35.274  1.00  0.00     0.039 A 
ENDROOT
BRANCH   4  12
HETATM   12  C7  UNK     1      18.377   5.476  32.398  1.00  0.00     0.258 C 
HETATM   13  O3  UNK     1      19.413   6.128  32.511  1.00  0.00    -0.267 OA
HETATM   14  N1  UNK     1      17.158   5.950  31.950  1.00  0.00    -0.352 N 
HETATM   15  H4  UNK     1      16.361   5.325  31.877  1.00  0.00     0.163 HD
BRANCH  14  16
HETATM   16  C2  UNK     1      16.947   7.321  31.545  1.00  0.00     0.161 C 
BRANCH  16  17
HETATM   17  C6  UNK     1      16.385   8.126  32.684  1.00  0.00    -0.040 A 
HETATM   18  C12 UNK     1      17.205   9.017  33.365  1.00  0.00     0.011 A 
HETATM   19  C15 UNK     1      16.684   9.762  34.422  1.00  0.00     0.037 A 
HETATM   20  C17 UNK     1      15.348   9.611  34.790  1.00  0.00     0.068 A 
HETATM   21  C16 UNK     1      14.532   8.714  34.101  1.00  0.00     0.037 A 
HETATM   22  C13 UNK     1      15.052   7.968  33.043  1.00  0.00     0.011 A 
BRANCH  20  23
HETATM   23  O4  UNK     1      14.839  10.340  35.822  1.00  0.00    -0.356 OA
HETATM   24  C19 UNK     1      14.847  11.759  35.681  1.00  0.00     0.210 C 
ENDBRANCH  20  23
ENDBRANCH  16  17
ENDBRANCH  14  16
ENDBRANCH   4  12
BRANCH  10  25
HETATM   25  O2  UNK     1      18.280   0.363  37.564  1.00  0.00    -0.356 OA
HETATM   26  C18 UNK     1      17.920  -0.976  37.896  1.00  0.00     0.210 C 
ENDBRANCH  10  25
TORSDOF 5
ENDMDL
MODEL 7
REMARK VINA RESULT:      -8.0      9.360     13.990
REMARK  5 active torsions:
REMARK  status: ('A' for Active; 'I' for Inactive)
REMARK    1  A    between atoms: C11_17  and  O2_2 
REMARK    2  A    between atoms: C17_23  and  O4_4 
REMARK    3  A    between atoms: C2_8  and  N1_6 
REMARK       I    between atoms: C7_13  and  N1_6 
REMARK    4  A    between atoms: C2_8  and  C6_12 
REMARK    5  A    between atoms: C3_9  and  C7_13 
ROOT
HETATM    1  O1  UNK     1      28.257  -4.871  38.759  1.00  0.00    -0.274 OA
HETATM    2  O5  UNK     1      25.973  -4.947  38.787  1.00  0.00    -0.259 OA
HETATM    3  C1  UNK     1      29.519  -6.890  38.266  1.00  0.00     0.002 A 
HETATM    4  C3  UNK     1      27.097  -6.975  38.298  1.00  0.00     0.108 A 
HETATM    5  C4  UNK     1      29.486  -5.535  38.580  1.00  0.00     0.089 A 
HETATM    6  C5  UNK     1      28.262  -7.611  38.127  1.00  0.00     0.037 A 
HETATM    7  C8  UNK     1      30.756  -7.514  38.096  1.00  0.00     0.051 A 
HETATM    8  C9  UNK     1      30.653  -4.789  38.728  1.00  0.00     0.041 A 
HETATM    9  C10 UNK     1      27.039  -5.534  38.631  1.00  0.00     0.304 A 
HETATM   10  C11 UNK     1      31.936  -6.778  38.242  1.00  0.00     0.069 A 
HETATM   11  C14 UNK     1      31.884  -5.418  38.557  1.00  0.00     0.039 A 
ENDROOT
BRANCH   4  12
HETATM   12  C7  UNK     1      25.884  -7.786  38.135  1.00  0.00     0.258 C 
HETATM   13  O3  UNK     1      25.788  -8.601  37.220  1.00  0.00    -0.267 OA
HETATM   14  N1  UNK     1      24.926  -7.519  39.096  1.00  0.00    -0.352 N 
HETATM   15  H4  UNK     1      25.108  -6.835  39.824  1.00  0.00     0.163 HD
BRANCH  14  16
HETATM   16  C2  UNK     1      23.648  -8.192  39.141  1.00  0.00     0.161 C 
BRANCH  16  17
HETATM   17  C6  UNK     1      22.615  -7.413  38.374  1.00  0.00    -0.040 A 
HETATM   18  C12 UNK     1      22.324  -6.107  38.749  1.00  0.00     0.011 A 
HETATM   19  C15 UNK     1      21.365  -5.385  38.039  1.00  0.00     0.037 A 
HETATM   20  C17 UNK     1      20.706  -5.974  36.961  1.00  0.00     0.068 A 
HETATM   21  C16 UNK     1      21.005  -7.286  36.592  1.00  0.00     0.037 A 
HETATM   22  C13 UNK     1      21.964  -8.008  37.302  1.00  0.00     0.011 A 
BRANCH  20  23
HETATM   23  O4  UNK     1      19.770  -5.268  36.267  1.00  0.00    -0.356 OA
HETATM   24  C19 UNK     1      19.890  -3.847  36.277  1.00  0.00     0.210 C 
ENDBRANCH  20  23
ENDBRANCH  16  17
ENDBRANCH  14  16
ENDBRANCH   4  12
BRANCH  10  25
HETATM   25  O2  UNK     1      33.142  -7.389  38.076  1.00  0.00    -0.356 OA
HETATM   26  C18 UNK     1      34.224  -6.577  37.625  1.00  0.00     0.210 C 
ENDBRANCH  10  25
TORSDOF 5
ENDMDL
MODEL 8
REMARK VINA RESULT:      -7.9      1.918      3.224
REMARK  5 active torsions:
REMARK  status: ('A' for Active; 'I' for Inactive)
REMARK    1  A    between atoms: C11_17  and  O2_2 
REMARK    2  A    between atoms: C17_23  and  O4_4 
REMARK    3  A    between atoms: C2_8  and  N1_6 
REMARK       I    between atoms: C7_13  and  N1_6 
REMARK    4  A    between atoms: C2_8  and  C6_12 
REMARK    5  A    between atoms: C3_9  and  C7_13 
ROOT
HETATM    1  O1  UNK     1      20.379  -2.663  33.260  1.00  0.00    -0.274 OA
HETATM    2  O5  UNK     1      20.860  -2.369  31.045  1.00  0.00    -0.259 OA
HETATM    3  C1  UNK     1      19.004  -1.026  34.417  1.00  0.00     0.002 A 
HETATM    4  C3  UNK     1      19.513  -0.710  32.069  1.00  0.00     0.108 A 
HETATM    5  C4  UNK     1      19.741  -2.206  34.429  1.00  0.00     0.089 A 
HETATM    6  C5  UNK     1      18.904  -0.271  33.177  1.00  0.00     0.037 A 
HETATM    7  C8  UNK     1      18.385  -0.605  35.596  1.00  0.00     0.051 A 
HETATM    8  C9  UNK     1      19.876  -2.974  35.583  1.00  0.00     0.041 A 
HETATM    9  C10 UNK     1      20.301  -1.963  32.059  1.00  0.00     0.304 A 
HETATM   10  C11 UNK     1      18.511  -1.365  36.762  1.00  0.00     0.069 A 
HETATM   11  C14 UNK     1      19.255  -2.548  36.755  1.00  0.00     0.039 A 
ENDROOT
BRANCH   4  12
HETATM   12  C7  UNK     1      19.353   0.120  30.868  1.00  0.00     0.258 C 
HETATM   13  O3  UNK     1      19.647  -0.316  29.757  1.00  0.00    -0.267 OA
HETATM   14  N1  UNK     1      18.860   1.380  31.147  1.00  0.00    -0.352 N 
HETATM   15  H4  UNK     1      18.632   1.642  32.102  1.00  0.00     0.163 HD
BRANCH  14  16
HETATM   16  C2  UNK     1      18.621   2.376  30.127  1.00  0.00     0.161 C 
BRANCH  16  17
HETATM   17  C6  UNK     1      18.594   3.753  30.731  1.00  0.00    -0.040 A 
HETATM   18  C12 UNK     1      19.040   4.837  29.985  1.00  0.00     0.011 A 
HETATM   19  C15 UNK     1      19.017   6.114  30.546  1.00  0.00     0.037 A 
HETATM   20  C17 UNK     1      18.548   6.296  31.846  1.00  0.00     0.068 A 
HETATM   21  C16 UNK     1      18.103   5.201  32.587  1.00  0.00     0.037 A 
HETATM   22  C13 UNK     1      18.126   3.925  32.027  1.00  0.00     0.011 A 
BRANCH  20  23
HETATM   23  O4  UNK     1      18.525   7.543  32.393  1.00  0.00    -0.356 OA
HETATM   24  C19 UNK     1      18.997   7.674  33.732  1.00  0.00     0.210 C 
ENDBRANCH  20  23
ENDBRANCH  16  17
ENDBRANCH  14  16
ENDBRANCH   4  12
BRANCH  10  25
HETATM   25  O2  UNK     1      17.907  -0.952  37.911  1.00  0.00    -0.356 OA
HETATM   26  C18 UNK     1      17.635   0.442  38.034  1.00  0.00     0.210 C 
ENDBRANCH  10  25
TORSDOF 5
ENDMDL
MODEL 9
REMARK VINA RESULT:      -7.9      4.654     10.518
REMARK  5 active torsions:
REMARK  status: ('A' for Active; 'I' for Inactive)
REMARK    1  A    between atoms: C11_17  and  O2_2 
REMARK    2  A    between atoms: C17_23  and  O4_4 
REMARK    3  A    between atoms: C2_8  and  N1_6 
REMARK       I    between atoms: C7_13  and  N1_6 
REMARK    4  A    between atoms: C2_8  and  C6_12 
REMARK    5  A    between atoms: C3_9  and  C7_13 
ROOT
HETATM    1  O1  UNK     1      14.585   9.864  32.284  1.00  0.00    -0.274 OA
HETATM    2  O5  UNK     1      15.978   8.356  31.281  1.00  0.00    -0.259 OA
HETATM    3  C1  UNK     1      14.731  10.223  34.684  1.00  0.00     0.002 A 
HETATM    4  C3  UNK     1      16.209   8.622  33.625  1.00  0.00     0.108 A 
HETATM    5  C4  UNK     1      14.148  10.514  33.455  1.00  0.00     0.089 A 
HETATM    6  C5  UNK     1      15.798   9.235  34.741  1.00  0.00     0.037 A 
HETATM    7  C8  UNK     1      14.271  10.888  35.823  1.00  0.00     0.051 A 
HETATM    8  C9  UNK     1      13.122  11.449  33.333  1.00  0.00     0.041 A 
HETATM    9  C10 UNK     1      15.604   8.916  32.307  1.00  0.00     0.304 A 
HETATM   10  C11 UNK     1      13.242  11.828  35.716  1.00  0.00     0.069 A 
HETATM   11  C14 UNK     1      12.669  12.108  34.473  1.00  0.00     0.039 A 
ENDROOT
BRANCH   4  12
HETATM   12  C7  UNK     1      17.291   7.642  33.784  1.00  0.00     0.258 C 
HETATM   13  O3  UNK     1      17.338   6.908  34.770  1.00  0.00    -0.267 OA
HETATM   14  N1  UNK     1      18.193   7.663  32.737  1.00  0.00    -0.352 N 
HETATM   15  H4  UNK     1      18.058   8.299  31.957  1.00  0.00     0.163 HD
BRANCH  14  16
HETATM   16  C2  UNK     1      19.344   6.791  32.671  1.00  0.00     0.161 C 
BRANCH  16  17
HETATM   17  C6  UNK     1      18.991   5.503  31.980  1.00  0.00    -0.040 A 
HETATM   18  C12 UNK     1      18.411   4.471  32.708  1.00  0.00     0.011 A 
HETATM   19  C15 UNK     1      18.085   3.276  32.067  1.00  0.00     0.037 A 
HETATM   20  C17 UNK     1      18.340   3.123  30.705  1.00  0.00     0.068 A 
HETATM   21  C16 UNK     1      18.923   4.164  29.983  1.00  0.00     0.037 A 
HETATM   22  C13 UNK     1      19.249   5.360  30.623  1.00  0.00     0.011 A 
BRANCH  20  23
HETATM   23  O4  UNK     1      18.020   1.956  30.080  1.00  0.00    -0.356 OA
HETATM   24  C19 UNK     1      17.908   1.991  28.658  1.00  0.00     0.210 C 
ENDBRANCH  20  23
ENDBRANCH  16  17
ENDBRANCH  14  16
ENDBRANCH   4  12
BRANCH  10  25
HETATM   25  O2  UNK     1      12.795  12.475  36.829  1.00  0.00    -0.356 OA
HETATM   26  C18 UNK     1      13.747  12.721  37.861  1.00  0.00     0.210 C 
ENDBRANCH  10  25
TORSDOF 5
ENDMDL
MODEL 10
REMARK VINA RESULT:      -7.8     22.307     24.822
REMARK  5 active torsions:
REMARK  status: ('A' for Active; 'I' for Inactive)
REMARK    1  A    between atoms: C11_17  and  O2_2 
REMARK    2  A    between atoms: C17_23  and  O4_4 
REMARK    3  A    between atoms: C2_8  and  N1_6 
REMARK       I    between atoms: C7_13  and  N1_6 
REMARK    4  A    between atoms: C2_8  and  C6_12 
REMARK    5  A    between atoms: C3_9  and  C7_13 
ROOT
HETATM    1  O1  UNK     1       6.118   2.876  10.351  1.00  0.00    -0.274 OA
HETATM    2  O5  UNK     1       6.950   3.394   8.286  1.00  0.00    -0.259 OA
HETATM    3  C1  UNK     1       6.133   4.555  12.108  1.00  0.00     0.002 A 
HETATM    4  C3  UNK     1       7.018   5.109   9.921  1.00  0.00     0.108 A 
HETATM    5  C4  UNK     1       5.832   3.269  11.672  1.00  0.00     0.089 A 
HETATM    6  C5  UNK     1       6.749   5.488  11.176  1.00  0.00     0.037 A 
HETATM    7  C8  UNK     1       5.835   4.909  13.426  1.00  0.00     0.051 A 
HETATM    8  C9  UNK     1       5.242   2.329  12.515  1.00  0.00     0.041 A 
HETATM    9  C10 UNK     1       6.706   3.745   9.436  1.00  0.00     0.304 A 
HETATM   10  C11 UNK     1       5.243   3.976  14.283  1.00  0.00     0.069 A 
HETATM   11  C14 UNK     1       4.948   2.689  13.828  1.00  0.00     0.039 A 
ENDROOT
BRANCH   4  12
HETATM   12  C7  UNK     1       7.639   6.119   9.056  1.00  0.00     0.258 C 
HETATM   13  O3  UNK     1       7.089   7.200   8.854  1.00  0.00    -0.267 OA
HETATM   14  N1  UNK     1       8.851   5.709   8.533  1.00  0.00    -0.352 N 
HETATM   15  H4  UNK     1       9.230   4.798   8.773  1.00  0.00     0.163 HD
BRANCH  14  16
HETATM   16  C2  UNK     1       9.648   6.532   7.652  1.00  0.00     0.161 C 
BRANCH  16  17
HETATM   17  C6  UNK     1      11.111   6.247   7.845  1.00  0.00    -0.040 A 
HETATM   18  C12 UNK     1      11.508   5.025   8.373  1.00  0.00     0.011 A 
HETATM   19  C15 UNK     1      12.865   4.760   8.554  1.00  0.00     0.037 A 
HETATM   20  C17 UNK     1      13.815   5.720   8.204  1.00  0.00     0.068 A 
HETATM   21  C16 UNK     1      13.407   6.944   7.674  1.00  0.00     0.037 A 
HETATM   22  C13 UNK     1      12.050   7.208   7.493  1.00  0.00     0.011 A 
BRANCH  20  23
HETATM   23  O4  UNK     1      15.140   5.461   8.379  1.00  0.00    -0.356 OA
HETATM   24  C19 UNK     1      15.599   5.302   9.720  1.00  0.00     0.210 C 
ENDBRANCH  20  23
ENDBRANCH  16  17
ENDBRANCH  14  16
ENDBRANCH   4  12
BRANCH  10  25
HETATM   25  O2  UNK     1       4.954   4.324  15.568  1.00  0.00    -0.356 OA
HETATM   26  C18 UNK     1       5.533   3.529  16.600  1.00  0.00     0.210 C 
ENDBRANCH  10  25
TORSDOF 5
ENDMDL
