MODEL 1
REMARK VINA RESULT:      -7.7      0.000      0.000
REMARK  4 active torsions:
REMARK  status: ('A' for Active; 'I' for Inactive)
REMARK    1  A    between atoms: C14_19  and  O1_3 
REMARK    2  A    between atoms: C8_13  and  O1_3 
REMARK    3  A    between atoms: C6_11  and  C7_12 
REMARK    4  A    between atoms: C14_19  and  C16_21 
ROOT
HETATM    1  I1  UNK     1      30.669 -11.613  31.782  1.00  0.00    -0.042 I 
HETATM    2  I2  UNK     1      26.896  -7.229  30.206  1.00  0.00    -0.045 I 
HETATM    3  C7  UNK     1      30.313  -7.407  32.860  1.00  0.00     0.001 A 
HETATM    4  C8  UNK     1      30.749  -8.719  32.782  1.00  0.00     0.096 A 
HETATM    5  C11 UNK     1      29.217  -6.967  32.133  1.00  0.00     0.032 A 
HETATM    6  C15 UNK     1      30.073  -9.616  31.954  1.00  0.00     0.042 A 
HETATM    7  C17 UNK     1      28.541  -7.864  31.305  1.00  0.00     0.008 A 
HETATM    8  C18 UNK     1      28.970  -9.189  31.216  1.00  0.00     0.039 A 
ENDROOT
BRANCH   3   9
HETATM    9  C6  UNK     1      31.007  -6.435  33.726  1.00  0.00     0.034 C 
HETATM   10  C1  UNK     1      30.627  -6.067  34.949  1.00  0.00     0.067 A 
HETATM   11  C4  UNK     1      31.342  -5.085  35.804  1.00  0.00     0.197 A 
HETATM   12  C5  UNK     1      29.428  -6.580  35.658  1.00  0.00     0.197 A 
HETATM   13  C2  UNK     1      30.543  -5.024  37.036  1.00  0.00     0.029 A 
HETATM   14  O2  UNK     1      32.354  -4.467  35.554  1.00  0.00    -0.286 OA
HETATM   15  C3  UNK     1      29.443  -5.883  36.953  1.00  0.00     0.029 A 
HETATM   16  C9  UNK     1      30.779  -4.254  38.159  1.00  0.00     0.016 A 
HETATM   17  C10 UNK     1      28.539  -6.005  37.990  1.00  0.00     0.016 A 
HETATM   18  C13 UNK     1      28.764  -5.233  39.133  1.00  0.00     0.001 A 
HETATM   19  C12 UNK     1      29.872  -4.367  39.217  1.00  0.00     0.001 A 
HETATM   20  O3  UNK     1      28.613  -7.390  35.272  1.00  0.00    -0.286 OA
ENDBRANCH   3   9
BRANCH   4  21
HETATM   21  O1  UNK     1      31.832  -9.124  33.509  1.00  0.00    -0.344 OA
BRANCH  21  22
HETATM   22  C14 UNK     1      31.590 -10.046  34.566  1.00  0.00     0.214 C 
BRANCH  22  23
HETATM   23  C16 UNK     1      31.814  -9.357  35.879  1.00  0.00    -0.034 A 
HETATM   24  C19 UNK     1      30.922  -9.562  36.927  1.00  0.00     0.009 A 
HETATM   25  C21 UNK     1      31.130  -8.920  38.147  1.00  0.00     0.001 A 
HETATM   26  C23 UNK     1      32.228  -8.075  38.313  1.00  0.00     0.000 A 
HETATM   27  C22 UNK     1      33.117  -7.874  37.258  1.00  0.00     0.001 A 
HETATM   28  C20 UNK     1      32.910  -8.516  36.037  1.00  0.00     0.009 A 
ENDBRANCH  22  23
ENDBRANCH  21  22
ENDBRANCH   4  21
TORSDOF 4
ENDMDL
MODEL 2
REMARK VINA RESULT:      -7.7      3.101      6.777
REMARK  4 active torsions:
REMARK  status: ('A' for Active; 'I' for Inactive)
REMARK    1  A    between atoms: C14_19  and  O1_3 
REMARK    2  A    between atoms: C8_13  and  O1_3 
REMARK    3  A    between atoms: C6_11  and  C7_12 
REMARK    4  A    between atoms: C14_19  and  C16_21 
ROOT
HETATM    1  I1  UNK     1      32.011  -5.664  37.786  1.00  0.00    -0.042 I 
HETATM    2  I2  UNK     1      27.633  -9.579  38.989  1.00  0.00    -0.045 I 
HETATM    3  C7  UNK     1      28.624  -7.196  35.513  1.00  0.00     0.001 A 
HETATM    4  C8  UNK     1      29.762  -6.496  35.881  1.00  0.00     0.096 A 
HETATM    5  C11 UNK     1      28.007  -8.077  36.387  1.00  0.00     0.032 A 
HETATM    6  C15 UNK     1      30.297  -6.683  37.156  1.00  0.00     0.042 A 
HETATM    7  C17 UNK     1      28.542  -8.264  37.662  1.00  0.00     0.008 A 
HETATM    8  C18 UNK     1      29.687  -7.566  38.046  1.00  0.00     0.039 A 
ENDROOT
BRANCH   3   9
HETATM    9  C6  UNK     1      28.035  -7.020  34.172  1.00  0.00     0.034 C 
HETATM   10  C1  UNK     1      28.305  -7.759  33.096  1.00  0.00     0.067 A 
HETATM   11  C4  UNK     1      27.700  -7.563  31.754  1.00  0.00     0.197 A 
HETATM   12  C5  UNK     1      29.255  -8.899  33.064  1.00  0.00     0.197 A 
HETATM   13  C2  UNK     1      28.309  -8.610  30.923  1.00  0.00     0.029 A 
HETATM   14  O2  UNK     1      26.888  -6.733  31.410  1.00  0.00    -0.286 OA
HETATM   15  C3  UNK     1      29.203  -9.379  31.675  1.00  0.00     0.029 A 
HETATM   16  C9  UNK     1      28.084  -8.865  29.583  1.00  0.00     0.016 A 
HETATM   17  C10 UNK     1      29.903 -10.430  31.116  1.00  0.00     0.016 A 
HETATM   18  C13 UNK     1      29.686 -10.700  29.762  1.00  0.00     0.001 A 
HETATM   19  C12 UNK     1      28.786  -9.926  29.004  1.00  0.00     0.001 A 
HETATM   20  O3  UNK     1      29.927  -9.346  33.968  1.00  0.00    -0.286 OA
ENDBRANCH   3   9
BRANCH   4  21
HETATM   21  O1  UNK     1      30.350  -5.635  34.998  1.00  0.00    -0.344 OA
BRANCH  21  22
HETATM   22  C14 UNK     1      31.473  -6.123  34.272  1.00  0.00     0.214 C 
BRANCH  22  23
HETATM   23  C16 UNK     1      31.186  -6.026  32.803  1.00  0.00    -0.034 A 
HETATM   24  C19 UNK     1      30.305  -5.056  32.336  1.00  0.00     0.009 A 
HETATM   25  C21 UNK     1      30.039  -4.966  30.970  1.00  0.00     0.001 A 
HETATM   26  C23 UNK     1      30.654  -5.846  30.079  1.00  0.00     0.000 A 
HETATM   27  C22 UNK     1      31.536  -6.815  30.555  1.00  0.00     0.001 A 
HETATM   28  C20 UNK     1      31.803  -6.906  31.921  1.00  0.00     0.009 A 
ENDBRANCH  22  23
ENDBRANCH  21  22
ENDBRANCH   4  21
TORSDOF 4
ENDMDL
MODEL 3
REMARK VINA RESULT:      -7.6      2.921      6.674
REMARK  4 active torsions:
REMARK  status: ('A' for Active; 'I' for Inactive)
REMARK    1  A    between atoms: C14_19  and  O1_3 
REMARK    2  A    between atoms: C8_13  and  O1_3 
REMARK    3  A    between atoms: C6_11  and  C7_12 
REMARK    4  A    between atoms: C14_19  and  C16_21 
ROOT
HETATM    1  I1  UNK     1      30.684  -4.745  37.725  1.00  0.00    -0.042 I 
HETATM    2  I2  UNK     1      27.282  -9.487  39.096  1.00  0.00    -0.045 I 
HETATM    3  C7  UNK     1      30.088  -8.658  35.905  1.00  0.00     0.001 A 
HETATM    4  C8  UNK     1      30.540  -7.374  36.160  1.00  0.00     0.096 A 
HETATM    5  C11 UNK     1      29.161  -9.273  36.731  1.00  0.00     0.032 A 
HETATM    6  C15 UNK     1      30.052  -6.686  37.272  1.00  0.00     0.042 A 
HETATM    7  C17 UNK     1      28.673  -8.585  37.843  1.00  0.00     0.008 A 
HETATM    8  C18 UNK     1      29.119  -7.292  38.113  1.00  0.00     0.039 A 
ENDROOT
BRANCH   3   9
HETATM    9  C6  UNK     1      30.585  -9.411  34.737  1.00  0.00     0.034 C 
HETATM   10  C1  UNK     1      30.050  -9.404  33.517  1.00  0.00     0.067 A 
HETATM   11  C4  UNK     1      30.567 -10.171  32.355  1.00  0.00     0.197 A 
HETATM   12  C5  UNK     1      28.849  -8.627  33.119  1.00  0.00     0.197 A 
HETATM   13  C2  UNK     1      29.650  -9.835  31.258  1.00  0.00     0.029 A 
HETATM   14  O2  UNK     1      31.527 -10.910  32.309  1.00  0.00    -0.286 OA
HETATM   15  C3  UNK     1      28.662  -8.947  31.696  1.00  0.00     0.029 A 
HETATM   16  C9  UNK     1      29.690 -10.288  29.953  1.00  0.00     0.016 A 
HETATM   17  C10 UNK     1      27.679  -8.480  30.845  1.00  0.00     0.016 A 
HETATM   18  C13 UNK     1      27.707  -8.929  29.522  1.00  0.00     0.001 A 
HETATM   19  C12 UNK     1      28.701  -9.824  29.081  1.00  0.00     0.001 A 
HETATM   20  O3  UNK     1      28.169  -7.891  33.799  1.00  0.00    -0.286 OA
ENDBRANCH   3   9
BRANCH   4  21
HETATM   21  O1  UNK     1      31.455  -6.793  35.328  1.00  0.00    -0.344 OA
BRANCH  21  22
HETATM   22  C14 UNK     1      31.035  -5.632  34.618  1.00  0.00     0.214 C 
BRANCH  22  23
HETATM   23  C16 UNK     1      31.051  -5.926  33.147  1.00  0.00    -0.034 A 
HETATM   24  C19 UNK     1      30.080  -5.367  32.323  1.00  0.00     0.009 A 
HETATM   25  C21 UNK     1      30.095  -5.641  30.955  1.00  0.00     0.001 A 
HETATM   26  C23 UNK     1      31.079  -6.472  30.420  1.00  0.00     0.000 A 
HETATM   27  C22 UNK     1      32.049  -7.028  31.254  1.00  0.00     0.001 A 
HETATM   28  C20 UNK     1      32.035  -6.755  32.621  1.00  0.00     0.009 A 
ENDBRANCH  22  23
ENDBRANCH  21  22
ENDBRANCH   4  21
TORSDOF 4
ENDMDL
MODEL 4
REMARK VINA RESULT:      -7.6      1.254      2.160
REMARK  4 active torsions:
REMARK  status: ('A' for Active; 'I' for Inactive)
REMARK    1  A    between atoms: C14_19  and  O1_3 
REMARK    2  A    between atoms: C8_13  and  O1_3 
REMARK    3  A    between atoms: C6_11  and  C7_12 
REMARK    4  A    between atoms: C14_19  and  C16_21 
ROOT
HETATM    1  I1  UNK     1      31.718 -11.243  31.611  1.00  0.00    -0.042 I 
HETATM    2  I2  UNK     1      27.587  -7.187  30.054  1.00  0.00    -0.045 I 
HETATM    3  C7  UNK     1      28.801  -8.897  33.842  1.00  0.00     0.001 A 
HETATM    4  C8  UNK     1      29.815  -9.783  33.517  1.00  0.00     0.096 A 
HETATM    5  C11 UNK     1      28.157  -8.151  32.867  1.00  0.00     0.032 A 
HETATM    6  C15 UNK     1      30.197  -9.927  32.183  1.00  0.00     0.042 A 
HETATM    7  C17 UNK     1      28.538  -8.295  31.533  1.00  0.00     0.008 A 
HETATM    8  C18 UNK     1      29.558  -9.183  31.191  1.00  0.00     0.039 A 
ENDROOT
BRANCH   3   9
HETATM    9  C6  UNK     1      28.376  -8.724  35.244  1.00  0.00     0.034 C 
HETATM   10  C1  UNK     1      28.722  -7.718  36.047  1.00  0.00     0.067 A 
HETATM   11  C4  UNK     1      28.283  -7.564  37.457  1.00  0.00     0.197 A 
HETATM   12  C5  UNK     1      29.604  -6.587  35.663  1.00  0.00     0.197 A 
HETATM   13  C2  UNK     1      28.921  -6.318  37.904  1.00  0.00     0.029 A 
HETATM   14  O2  UNK     1      27.562  -8.292  38.104  1.00  0.00    -0.286 OA
HETATM   15  C3  UNK     1      29.681  -5.756  36.873  1.00  0.00     0.029 A 
HETATM   16  C9  UNK     1      28.832  -5.721  39.148  1.00  0.00     0.016 A 
HETATM   17  C10 UNK     1      30.378  -4.576  37.047  1.00  0.00     0.016 A 
HETATM   18  C13 UNK     1      30.298  -3.961  38.299  1.00  0.00     0.001 A 
HETATM   19  C12 UNK     1      29.533  -4.527  39.338  1.00  0.00     0.001 A 
HETATM   20  O3  UNK     1      30.144  -6.381  34.598  1.00  0.00    -0.286 OA
ENDBRANCH   3   9
BRANCH   4  21
HETATM   21  O1  UNK     1      30.433 -10.505  34.499  1.00  0.00    -0.344 OA
BRANCH  21  22
HETATM   22  C14 UNK     1      31.812 -10.233  34.728  1.00  0.00     0.214 C 
BRANCH  22  23
HETATM   23  C16 UNK     1      31.953  -9.460  36.006  1.00  0.00    -0.034 A 
HETATM   24  C19 UNK     1      31.289  -9.892  37.149  1.00  0.00     0.009 A 
HETATM   25  C21 UNK     1      31.420  -9.173  38.337  1.00  0.00     0.001 A 
HETATM   26  C23 UNK     1      32.213  -8.026  38.375  1.00  0.00     0.000 A 
HETATM   27  C22 UNK     1      32.874  -7.599  37.224  1.00  0.00     0.001 A 
HETATM   28  C20 UNK     1      32.745  -8.317  36.035  1.00  0.00     0.009 A 
ENDBRANCH  22  23
ENDBRANCH  21  22
ENDBRANCH   4  21
TORSDOF 4
ENDMDL
MODEL 5
REMARK VINA RESULT:      -7.4      2.019      2.672
REMARK  4 active torsions:
REMARK  status: ('A' for Active; 'I' for Inactive)
REMARK    1  A    between atoms: C14_19  and  O1_3 
REMARK    2  A    between atoms: C8_13  and  O1_3 
REMARK    3  A    between atoms: C6_11  and  C7_12 
REMARK    4  A    between atoms: C14_19  and  C16_21 
ROOT
HETATM    1  I1  UNK     1      32.536  -8.201  30.822  1.00  0.00    -0.042 I 
HETATM    2  I2  UNK     1      26.743  -6.765  30.261  1.00  0.00    -0.045 I 
HETATM    3  C7  UNK     1      29.543  -6.613  33.560  1.00  0.00     0.001 A 
HETATM    4  C8  UNK     1      30.732  -7.087  33.033  1.00  0.00     0.096 A 
HETATM    5  C11 UNK     1      28.398  -6.515  32.784  1.00  0.00     0.032 A 
HETATM    6  C15 UNK     1      30.779  -7.474  31.693  1.00  0.00     0.042 A 
HETATM    7  C17 UNK     1      28.446  -6.902  31.445  1.00  0.00     0.008 A 
HETATM    8  C18 UNK     1      29.637  -7.381  30.899  1.00  0.00     0.039 A 
ENDROOT
BRANCH   3   9
HETATM    9  C6  UNK     1      29.461  -6.196  34.974  1.00  0.00     0.034 C 
HETATM   10  C1  UNK     1      28.953  -6.916  35.973  1.00  0.00     0.067 A 
HETATM   11  C4  UNK     1      28.880  -6.475  37.389  1.00  0.00     0.197 A 
HETATM   12  C5  UNK     1      28.376  -8.277  35.834  1.00  0.00     0.197 A 
HETATM   13  C2  UNK     1      28.248  -7.602  38.090  1.00  0.00     0.029 A 
HETATM   14  O2  UNK     1      29.253  -5.428  37.871  1.00  0.00    -0.286 OA
HETATM   15  C3  UNK     1      27.958  -8.638  37.197  1.00  0.00     0.029 A 
HETATM   16  C9  UNK     1      27.950  -7.701  39.436  1.00  0.00     0.016 A 
HETATM   17  C10 UNK     1      27.361  -9.810  37.616  1.00  0.00     0.016 A 
HETATM   18  C13 UNK     1      27.053  -9.925  38.975  1.00  0.00     0.001 A 
HETATM   19  C12 UNK     1      27.345  -8.882  39.875  1.00  0.00     0.001 A 
HETATM   20  O3  UNK     1      28.268  -8.950  34.832  1.00  0.00    -0.286 OA
ENDBRANCH   3   9
BRANCH   4  21
HETATM   21  O1  UNK     1      31.844  -7.171  33.821  1.00  0.00    -0.344 OA
BRANCH  21  22
HETATM   22  C14 UNK     1      32.266  -8.477  34.204  1.00  0.00     0.214 C 
BRANCH  22  23
HETATM   23  C16 UNK     1      32.052  -8.647  35.679  1.00  0.00    -0.034 A 
HETATM   24  C19 UNK     1      31.460  -9.811  36.159  1.00  0.00     0.009 A 
HETATM   25  C21 UNK     1      31.261  -9.969  37.531  1.00  0.00     0.001 A 
HETATM   26  C23 UNK     1      31.654  -8.963  38.413  1.00  0.00     0.000 A 
HETATM   27  C22 UNK     1      32.246  -7.799  37.924  1.00  0.00     0.001 A 
HETATM   28  C20 UNK     1      32.446  -7.640  36.553  1.00  0.00     0.009 A 
ENDBRANCH  22  23
ENDBRANCH  21  22
ENDBRANCH   4  21
TORSDOF 4
ENDMDL
MODEL 6
REMARK VINA RESULT:      -7.4      5.111      7.086
REMARK  4 active torsions:
REMARK  status: ('A' for Active; 'I' for Inactive)
REMARK    1  A    between atoms: C14_19  and  O1_3 
REMARK    2  A    between atoms: C8_13  and  O1_3 
REMARK    3  A    between atoms: C6_11  and  C7_12 
REMARK    4  A    between atoms: C14_19  and  C16_21 
ROOT
HETATM    1  I1  UNK     1      35.590 -12.438  31.151  1.00  0.00    -0.042 I 
HETATM    2  I2  UNK     1      31.054 -15.907  32.976  1.00  0.00    -0.045 I 
HETATM    3  C7  UNK     1      31.294 -12.420  30.421  1.00  0.00     0.001 A 
HETATM    4  C8  UNK     1      32.640 -12.092  30.402  1.00  0.00     0.096 A 
HETATM    5  C11 UNK     1      30.827 -13.503  31.149  1.00  0.00     0.032 A 
HETATM    6  C15 UNK     1      33.543 -12.868  31.129  1.00  0.00     0.042 A 
HETATM    7  C17 UNK     1      31.730 -14.279  31.876  1.00  0.00     0.008 A 
HETATM    8  C18 UNK     1      33.089 -13.961  31.866  1.00  0.00     0.039 A 
ENDROOT
BRANCH   3   9
HETATM    9  C6  UNK     1      30.315 -11.618  29.662  1.00  0.00     0.034 C 
HETATM   10  C1  UNK     1      29.649 -10.559  30.120  1.00  0.00     0.067 A 
HETATM   11  C4  UNK     1      28.666  -9.767  29.338  1.00  0.00     0.197 A 
HETATM   12  C5  UNK     1      29.782  -9.997  31.488  1.00  0.00     0.197 A 
HETATM   13  C2  UNK     1      28.216  -8.722  30.268  1.00  0.00     0.029 A 
HETATM   14  O2  UNK     1      28.307  -9.934  28.193  1.00  0.00    -0.286 OA
HETATM   15  C3  UNK     1      28.857  -8.853  31.504  1.00  0.00     0.029 A 
HETATM   16  C9  UNK     1      27.296  -7.718  30.032  1.00  0.00     0.016 A 
HETATM   17  C10 UNK     1      28.603  -7.985  32.548  1.00  0.00     0.016 A 
HETATM   18  C13 UNK     1      27.675  -6.964  32.324  1.00  0.00     0.001 A 
HETATM   19  C12 UNK     1      27.028  -6.832  31.079  1.00  0.00     0.001 A 
HETATM   20  O3  UNK     1      30.487 -10.381  32.395  1.00  0.00    -0.286 OA
ENDBRANCH   3   9
BRANCH   4  21
HETATM   21  O1  UNK     1      33.072 -11.019  29.674  1.00  0.00    -0.344 OA
BRANCH  21  22
HETATM   22  C14 UNK     1      33.521  -9.883  30.406  1.00  0.00     0.214 C 
BRANCH  22  23
HETATM   23  C16 UNK     1      32.666  -8.703  30.050  1.00  0.00    -0.034 A 
HETATM   24  C19 UNK     1      32.162  -8.581  28.759  1.00  0.00     0.009 A 
HETATM   25  C21 UNK     1      31.369  -7.483  28.429  1.00  0.00     0.001 A 
HETATM   26  C23 UNK     1      31.084  -6.513  29.390  1.00  0.00     0.000 A 
HETATM   27  C22 UNK     1      31.593  -6.642  30.682  1.00  0.00     0.001 A 
HETATM   28  C20 UNK     1      32.387  -7.739  31.014  1.00  0.00     0.009 A 
ENDBRANCH  22  23
ENDBRANCH  21  22
ENDBRANCH   4  21
TORSDOF 4
ENDMDL
MODEL 7
REMARK VINA RESULT:      -7.2      2.585      4.618
REMARK  4 active torsions:
REMARK  status: ('A' for Active; 'I' for Inactive)
REMARK    1  A    between atoms: C14_19  and  O1_3 
REMARK    2  A    between atoms: C8_13  and  O1_3 
REMARK    3  A    between atoms: C6_11  and  C7_12 
REMARK    4  A    between atoms: C14_19  and  C16_21 
ROOT
HETATM    1  I1  UNK     1      35.861  -6.956  34.831  1.00  0.00    -0.042 I 
HETATM    2  I2  UNK     1      33.234 -11.864  32.607  1.00  0.00    -0.045 I 
HETATM    3  C7  UNK     1      31.722  -8.273  34.493  1.00  0.00     0.001 A 
HETATM    4  C8  UNK     1      32.851  -7.524  34.778  1.00  0.00     0.096 A 
HETATM    5  C11 UNK     1      31.814  -9.510  33.876  1.00  0.00     0.032 A 
HETATM    6  C15 UNK     1      34.108  -8.025  34.435  1.00  0.00     0.042 A 
HETATM    7  C17 UNK     1      33.070 -10.011  33.533  1.00  0.00     0.008 A 
HETATM    8  C18 UNK     1      34.217  -9.268  33.813  1.00  0.00     0.039 A 
ENDROOT
BRANCH   3   9
HETATM    9  C6  UNK     1      30.379  -7.770  34.844  1.00  0.00     0.034 C 
HETATM   10  C1  UNK     1      29.670  -8.117  35.917  1.00  0.00     0.067 A 
HETATM   11  C4  UNK     1      28.319  -7.598  36.249  1.00  0.00     0.197 A 
HETATM   12  C5  UNK     1      30.115  -9.079  36.957  1.00  0.00     0.197 A 
HETATM   13  C2  UNK     1      27.969  -8.271  37.508  1.00  0.00     0.029 A 
HETATM   14  O2  UNK     1      27.647  -6.801  35.632  1.00  0.00    -0.286 OA
HETATM   15  C3  UNK     1      29.001  -9.122  37.915  1.00  0.00     0.029 A 
HETATM   16  C9  UNK     1      26.808  -8.135  38.246  1.00  0.00     0.016 A 
HETATM   17  C10 UNK     1      28.910  -9.868  39.074  1.00  0.00     0.016 A 
HETATM   18  C13 UNK     1      27.742  -9.741  39.831  1.00  0.00     0.001 A 
HETATM   19  C12 UNK     1      26.702  -8.884  39.421  1.00  0.00     0.001 A 
HETATM   20  O3  UNK     1      31.157  -9.695  37.016  1.00  0.00    -0.286 OA
ENDBRANCH   3   9
BRANCH   4  21
HETATM   21  O1  UNK     1      32.730  -6.307  35.386  1.00  0.00    -0.344 OA
BRANCH  21  22
HETATM   22  C14 UNK     1      32.907  -6.272  36.799  1.00  0.00     0.214 C 
BRANCH  22  23
HETATM   23  C16 UNK     1      31.743  -5.558  37.421  1.00  0.00    -0.034 A 
HETATM   24  C19 UNK     1      31.033  -6.165  38.451  1.00  0.00     0.009 A 
HETATM   25  C21 UNK     1      29.951  -5.500  39.028  1.00  0.00     0.001 A 
HETATM   26  C23 UNK     1      29.585  -4.234  38.572  1.00  0.00     0.000 A 
HETATM   27  C22 UNK     1      30.302  -3.632  37.538  1.00  0.00     0.001 A 
HETATM   28  C20 UNK     1      31.385  -4.295  36.960  1.00  0.00     0.009 A 
ENDBRANCH  22  23
ENDBRANCH  21  22
ENDBRANCH   4  21
TORSDOF 4
ENDMDL
MODEL 8
REMARK VINA RESULT:      -7.1      3.085      6.318
REMARK  4 active torsions:
REMARK  status: ('A' for Active; 'I' for Inactive)
REMARK    1  A    between atoms: C14_19  and  O1_3 
REMARK    2  A    between atoms: C8_13  and  O1_3 
REMARK    3  A    between atoms: C6_11  and  C7_12 
REMARK    4  A    between atoms: C14_19  and  C16_21 
ROOT
HETATM    1  I1  UNK     1      34.952  -5.729  36.400  1.00  0.00    -0.042 I 
HETATM    2  I2  UNK     1      29.640  -4.437  38.861  1.00  0.00    -0.045 I 
HETATM    3  C7  UNK     1      30.905  -7.230  35.804  1.00  0.00     0.001 A 
HETATM    4  C8  UNK     1      32.272  -7.035  35.695  1.00  0.00     0.096 A 
HETATM    5  C11 UNK     1      30.142  -6.498  36.700  1.00  0.00     0.032 A 
HETATM    6  C15 UNK     1      32.893  -6.083  36.505  1.00  0.00     0.042 A 
HETATM    7  C17 UNK     1      30.763  -5.547  37.510  1.00  0.00     0.008 A 
HETATM    8  C18 UNK     1      32.139  -5.340  37.412  1.00  0.00     0.039 A 
ENDROOT
BRANCH   3   9
HETATM    9  C6  UNK     1      30.219  -8.229  34.961  1.00  0.00     0.034 C 
HETATM   10  C1  UNK     1      29.586  -7.982  33.816  1.00  0.00     0.067 A 
HETATM   11  C4  UNK     1      28.900  -9.004  32.984  1.00  0.00     0.197 A 
HETATM   12  C5  UNK     1      29.460  -6.645  33.183  1.00  0.00     0.197 A 
HETATM   13  C2  UNK     1      28.365  -8.248  31.843  1.00  0.00     0.029 A 
HETATM   14  O2  UNK     1      28.799 -10.194  33.187  1.00  0.00    -0.286 OA
HETATM   15  C3  UNK     1      28.687  -6.891  31.957  1.00  0.00     0.029 A 
HETATM   16  C9  UNK     1      27.639  -8.733  30.772  1.00  0.00     0.016 A 
HETATM   17  C10 UNK     1      28.295  -5.971  31.004  1.00  0.00     0.016 A 
HETATM   18  C13 UNK     1      27.560  -6.447  29.914  1.00  0.00     0.001 A 
HETATM   19  C12 UNK     1      27.236  -7.813  29.800  1.00  0.00     0.001 A 
HETATM   20  O3  UNK     1      29.893  -5.583  33.575  1.00  0.00    -0.286 OA
ENDBRANCH   3   9
BRANCH   4  21
HETATM   21  O1  UNK     1      32.999  -7.771  34.803  1.00  0.00    -0.344 OA
BRANCH  21  22
HETATM   22  C14 UNK     1      33.341  -7.140  33.573  1.00  0.00     0.214 C 
BRANCH  22  23
HETATM   23  C16 UNK     1      32.778  -7.942  32.438  1.00  0.00    -0.034 A 
HETATM   24  C19 UNK     1      32.319  -7.294  31.296  1.00  0.00     0.009 A 
HETATM   25  C21 UNK     1      31.795  -8.040  30.241  1.00  0.00     0.001 A 
HETATM   26  C23 UNK     1      31.732  -9.431  30.334  1.00  0.00     0.000 A 
HETATM   27  C22 UNK     1      32.194 -10.074  31.482  1.00  0.00     0.001 A 
HETATM   28  C20 UNK     1      32.718  -9.328  32.538  1.00  0.00     0.009 A 
ENDBRANCH  22  23
ENDBRANCH  21  22
ENDBRANCH   4  21
TORSDOF 4
ENDMDL
MODEL 9
REMARK VINA RESULT:      -7.0      3.487      6.575
REMARK  4 active torsions:
REMARK  status: ('A' for Active; 'I' for Inactive)
REMARK    1  A    between atoms: C14_19  and  O1_3 
REMARK    2  A    between atoms: C8_13  and  O1_3 
REMARK    3  A    between atoms: C6_11  and  C7_12 
REMARK    4  A    between atoms: C14_19  and  C16_21 
ROOT
HETATM    1  I1  UNK     1      36.651  -7.342  34.202  1.00  0.00    -0.042 I 
HETATM    2  I2  UNK     1      32.508  -5.520  38.134  1.00  0.00    -0.045 I 
HETATM    3  C7  UNK     1      32.395  -8.138  34.686  1.00  0.00     0.001 A 
HETATM    4  C8  UNK     1      33.694  -8.143  34.207  1.00  0.00     0.096 A 
HETATM    5  C11 UNK     1      32.041  -7.396  35.803  1.00  0.00     0.032 A 
HETATM    6  C15 UNK     1      34.667  -7.388  34.862  1.00  0.00     0.042 A 
HETATM    7  C17 UNK     1      33.014  -6.641  36.458  1.00  0.00     0.008 A 
HETATM    8  C18 UNK     1      34.327  -6.637  35.987  1.00  0.00     0.039 A 
ENDROOT
BRANCH   3   9
HETATM    9  C6  UNK     1      31.344  -8.927  34.015  1.00  0.00     0.034 C 
HETATM   10  C1  UNK     1      30.460  -8.461  33.134  1.00  0.00     0.067 A 
HETATM   11  C4  UNK     1      29.408  -9.275  32.471  1.00  0.00     0.197 A 
HETATM   12  C5  UNK     1      30.381  -7.053  32.670  1.00  0.00     0.197 A 
HETATM   13  C2  UNK     1      28.702  -8.322  31.603  1.00  0.00     0.029 A 
HETATM   14  O2  UNK     1      29.175 -10.456  32.606  1.00  0.00    -0.286 OA
HETATM   15  C3  UNK     1      29.261  -7.045  31.717  1.00  0.00     0.029 A 
HETATM   16  C9  UNK     1      27.632  -8.573  30.765  1.00  0.00     0.016 A 
HETATM   17  C10 UNK     1      28.771  -5.973  30.997  1.00  0.00     0.016 A 
HETATM   18  C13 UNK     1      27.689  -6.211  30.145  1.00  0.00     0.001 A 
HETATM   19  C12 UNK     1      27.125  -7.497  30.030  1.00  0.00     0.001 A 
HETATM   20  O3  UNK     1      31.074  -6.114  32.993  1.00  0.00    -0.286 OA
ENDBRANCH   3   9
BRANCH   4  21
HETATM   21  O1  UNK     1      34.014  -8.885  33.105  1.00  0.00    -0.344 OA
BRANCH  21  22
HETATM   22  C14 UNK     1      34.296  -8.169  31.907  1.00  0.00     0.214 C 
BRANCH  22  23
HETATM   23  C16 UNK     1      33.245  -8.490  30.886  1.00  0.00    -0.034 A 
HETATM   24  C19 UNK     1      32.805  -9.801  30.738  1.00  0.00     0.009 A 
HETATM   25  C21 UNK     1      31.828 -10.099  29.789  1.00  0.00     0.001 A 
HETATM   26  C23 UNK     1      31.297  -9.085  28.992  1.00  0.00     0.000 A 
HETATM   27  C22 UNK     1      31.743  -7.773  29.146  1.00  0.00     0.001 A 
HETATM   28  C20 UNK     1      32.720  -7.473  30.095  1.00  0.00     0.009 A 
ENDBRANCH  22  23
ENDBRANCH  21  22
ENDBRANCH   4  21
TORSDOF 4
ENDMDL
MODEL 10
REMARK VINA RESULT:      -7.0      3.142      6.698
REMARK  4 active torsions:
REMARK  status: ('A' for Active; 'I' for Inactive)
REMARK    1  A    between atoms: C14_19  and  O1_3 
REMARK    2  A    between atoms: C8_13  and  O1_3 
REMARK    3  A    between atoms: C6_11  and  C7_12 
REMARK    4  A    between atoms: C14_19  and  C16_21 
ROOT
HETATM    1  I1  UNK     1      29.944  -4.684  38.389  1.00  0.00    -0.042 I 
HETATM    2  I2  UNK     1      27.353  -9.924  39.724  1.00  0.00    -0.045 I 
HETATM    3  C7  UNK     1      28.485  -8.024  36.002  1.00  0.00     0.001 A 
HETATM    4  C8  UNK     1      29.042  -6.814  36.381  1.00  0.00     0.096 A 
HETATM    5  C11 UNK     1      28.000  -8.920  36.941  1.00  0.00     0.032 A 
HETATM    6  C15 UNK     1      29.117  -6.491  37.736  1.00  0.00     0.042 A 
HETATM    7  C17 UNK     1      28.075  -8.597  38.297  1.00  0.00     0.008 A 
HETATM    8  C18 UNK     1      28.634  -7.382  38.694  1.00  0.00     0.039 A 
ENDROOT
BRANCH   3   9
HETATM    9  C6  UNK     1      28.392  -8.394  34.576  1.00  0.00     0.034 C 
HETATM   10  C1  UNK     1      29.219  -9.211  33.925  1.00  0.00     0.067 A 
HETATM   11  C4  UNK     1      29.107  -9.569  32.488  1.00  0.00     0.197 A 
HETATM   12  C5  UNK     1      30.388  -9.897  34.530  1.00  0.00     0.197 A 
HETATM   13  C2  UNK     1      30.233 -10.482  32.250  1.00  0.00     0.029 A 
HETATM   14  O2  UNK     1      28.279  -9.200  31.684  1.00  0.00    -0.286 OA
HETATM   15  C3  UNK     1      30.970 -10.672  33.423  1.00  0.00     0.029 A 
HETATM   16  C9  UNK     1      30.581 -11.106  31.067  1.00  0.00     0.016 A 
HETATM   17  C10 UNK     1      32.081 -11.492  33.457  1.00  0.00     0.016 A 
HETATM   18  C13 UNK     1      32.445 -12.130  32.268  1.00  0.00     0.001 A 
HETATM   19  C12 UNK     1      31.703 -11.939  31.086  1.00  0.00     0.001 A 
HETATM   20  O3  UNK     1      30.785  -9.842  35.673  1.00  0.00    -0.286 OA
ENDBRANCH   3   9
BRANCH   4  21
HETATM   21  O1  UNK     1      29.514  -5.951  35.432  1.00  0.00    -0.344 OA
BRANCH  21  22
HETATM   22  C14 UNK     1      30.922  -5.932  35.221  1.00  0.00     0.214 C 
BRANCH  22  23
HETATM   23  C16 UNK     1      31.211  -6.345  33.809  1.00  0.00    -0.034 A 
HETATM   24  C19 UNK     1      32.322  -7.135  33.535  1.00  0.00     0.009 A 
HETATM   25  C21 UNK     1      32.591  -7.518  32.222  1.00  0.00     0.001 A 
HETATM   26  C23 UNK     1      31.748  -7.109  31.189  1.00  0.00     0.000 A 
HETATM   27  C22 UNK     1      30.635  -6.316  31.471  1.00  0.00     0.001 A 
HETATM   28  C20 UNK     1      30.365  -5.932  32.784  1.00  0.00     0.009 A 
ENDBRANCH  22  23
ENDBRANCH  21  22
ENDBRANCH   4  21
TORSDOF 4
ENDMDL
