MODEL 1
REMARK VINA RESULT:      -9.3      0.000      0.000
REMARK  6 active torsions:
REMARK  status: ('A' for Active; 'I' for Inactive)
REMARK    1  A    between atoms: C13_21  and  O1_2 
REMARK    2  A    between atoms: C19_27  and  O1_2 
REMARK    3  A    between atoms: C1_9  and  C9_17 
REMARK    4  A    between atoms: C11_19  and  C4_12 
REMARK    5  A    between atoms: C13_21  and  C8_16 
REMARK    6  A    between atoms: C12_20  and  C19_27 
ROOT
HETATM    1  O3  UNK     1      32.210  -9.020  34.523  1.00  0.00    -0.293 OA
HETATM    2  N1  UNK     1      28.901 -10.118  31.315  1.00  0.00    -0.362 N 
HETATM    3  C1  UNK     1      31.158 -12.291  33.393  1.00  0.00     0.031 C 
HETATM    4  C2  UNK     1      30.407 -11.884  32.116  1.00  0.00     0.067 C 
HETATM    5  C3  UNK     1      30.472  -9.522  32.986  1.00  0.00     0.024 C 
HETATM    6  C4  UNK     1      29.920  -8.102  33.033  1.00  0.00     0.104 C 
HETATM    7  C5  UNK     1      29.936 -10.453  32.168  1.00  0.00     0.021 C 
HETATM    8  C6  UNK     1      32.246 -11.263  33.710  1.00  0.00     0.093 C 
HETATM    9  C7  UNK     1      31.667  -9.869  33.817  1.00  0.00     0.159 C 
HETATM   10  C8  UNK     1      28.883  -7.835  31.940  1.00  0.00     0.052 C 
HETATM   11  C10 UNK     1      28.405  -8.833  31.160  1.00  0.00     0.018 C 
HETATM   12  C15 UNK     1      27.352  -8.682  30.097  1.00  0.00     0.069 C 
HETATM   13  H7  UNK     1      28.528 -10.844  30.714  1.00  0.00     0.165 HD
ENDROOT
BRANCH   6  14
HETATM   14  C11 UNK     1      29.331  -7.815  34.388  1.00  0.00     0.029 A 
HETATM   15  C20 UNK     1      29.859  -6.663  35.161  1.00  0.00     0.194 A 
HETATM   16  C23 UNK     1      29.248  -6.426  36.481  1.00  0.00     0.050 A 
HETATM   17  O6  UNK     1      30.751  -5.945  34.730  1.00  0.00    -0.287 OA
HETATM   18  C27 UNK     1      28.234  -7.277  36.922  1.00  0.00     0.089 A 
HETATM   19  C28 UNK     1      29.675  -5.367  37.285  1.00  0.00     0.042 A 
HETATM   20  C30 UNK     1      27.641  -7.073  38.168  1.00  0.00     0.040 A 
HETATM   21  O4  UNK     1      27.775  -8.333  36.173  1.00  0.00    -0.321 OA
HETATM   22  C32 UNK     1      28.066  -6.015  38.972  1.00  0.00     0.026 A 
HETATM   23  C31 UNK     1      29.081  -5.164  38.531  1.00  0.00     0.035 A 
HETATM   24 Cl1  UNK     1      29.600  -3.861  39.530  1.00  0.00    -0.084 Cl
HETATM   25  C21 UNK     1      28.353  -8.540  34.946  1.00  0.00     0.154 A 
ENDBRANCH   6  14
BRANCH  10  26
HETATM   26  C13 UNK     1      28.472  -6.434  31.750  1.00  0.00     0.292 C 
HETATM   27  O5  UNK     1      27.746  -5.840  32.525  1.00  0.00    -0.259 OA
BRANCH  26  28
HETATM   28  O1  UNK     1      29.035  -5.975  30.606  1.00  0.00    -0.315 OA
BRANCH  28  29
HETATM   29  C19 UNK     1      30.412  -5.597  30.719  1.00  0.00     0.211 C 
BRANCH  29  30
HETATM   30  C12 UNK     1      31.213  -6.334  29.665  1.00  0.00     0.145 C 
HETATM   31  O2  UNK     1      30.329  -7.080  28.812  1.00  0.00    -0.384 OA
HETATM   32  C22 UNK     1      30.918  -8.363  28.556  1.00  0.00     0.168 C 
HETATM   33  C18 UNK     1      32.330  -8.317  29.101  1.00  0.00     0.029 C 
HETATM   34  C14 UNK     1      32.191  -7.343  30.243  1.00  0.00     0.036 C 
ENDBRANCH  29  30
ENDBRANCH  28  29
ENDBRANCH  26  28
ENDBRANCH  10  26
BRANCH   3  35
HETATM   35  C9  UNK     1      31.707 -13.702  33.304  1.00  0.00    -0.053 A 
HETATM   36  C16 UNK     1      33.038 -13.950  33.634  1.00  0.00     0.008 A 
HETATM   37  C24 UNK     1      33.543 -15.248  33.553  1.00  0.00     0.007 A 
HETATM   38  C26 UNK     1      32.716 -16.294  33.143  1.00  0.00    -0.062 A 
HETATM   39  C25 UNK     1      31.384 -16.042  32.814  1.00  0.00     0.007 A 
HETATM   40  C29 UNK     1      33.256 -17.681  33.057  1.00  0.00     0.048 C 
HETATM   41  C17 UNK     1      30.879 -14.744  32.895  1.00  0.00     0.008 A 
ENDBRANCH   3  35
TORSDOF 6
ENDMDL
MODEL 2
REMARK VINA RESULT:      -9.0      3.111      7.896
REMARK  6 active torsions:
REMARK  status: ('A' for Active; 'I' for Inactive)
REMARK    1  A    between atoms: C13_21  and  O1_2 
REMARK    2  A    between atoms: C19_27  and  O1_2 
REMARK    3  A    between atoms: C1_9  and  C9_17 
REMARK    4  A    between atoms: C11_19  and  C4_12 
REMARK    5  A    between atoms: C13_21  and  C8_16 
REMARK    6  A    between atoms: C12_20  and  C19_27 
ROOT
HETATM    1  O3  UNK     1      29.010 -10.204  33.772  1.00  0.00    -0.293 OA
HETATM    2  N1  UNK     1      32.305  -7.232  32.110  1.00  0.00    -0.362 N 
HETATM    3  C1  UNK     1      30.574  -7.403  35.443  1.00  0.00     0.031 C 
HETATM    4  C2  UNK     1      31.179  -6.690  34.224  1.00  0.00     0.067 C 
HETATM    5  C3  UNK     1      30.734  -8.806  32.932  1.00  0.00     0.024 C 
HETATM    6  C4  UNK     1      31.026  -9.742  31.764  1.00  0.00     0.104 C 
HETATM    7  C5  UNK     1      31.388  -7.631  33.065  1.00  0.00     0.021 C 
HETATM    8  C6  UNK     1      29.336  -8.198  35.024  1.00  0.00     0.093 C 
HETATM    9  C7  UNK     1      29.661  -9.169  33.909  1.00  0.00     0.159 C 
HETATM   10  C8  UNK     1      31.945  -9.112  30.716  1.00  0.00     0.052 C 
HETATM   11  C10 UNK     1      32.555  -7.923  30.935  1.00  0.00     0.018 C 
HETATM   12  C15 UNK     1      33.513  -7.247  29.992  1.00  0.00     0.069 C 
HETATM   13  H7  UNK     1      32.772  -6.343  32.244  1.00  0.00     0.165 HD
ENDROOT
BRANCH   6  14
HETATM   14  C11 UNK     1      31.618 -11.032  32.265  1.00  0.00     0.029 A 
HETATM   15  C20 UNK     1      30.941 -12.306  31.916  1.00  0.00     0.194 A 
HETATM   16  C23 UNK     1      31.562 -13.539  32.432  1.00  0.00     0.050 A 
HETATM   17  O6  UNK     1      29.923 -12.336  31.237  1.00  0.00    -0.287 OA
HETATM   18  C27 UNK     1      32.722 -13.444  33.201  1.00  0.00     0.089 A 
HETATM   19  C28 UNK     1      31.001 -14.789  32.158  1.00  0.00     0.042 A 
HETATM   20  C30 UNK     1      33.327 -14.598  33.701  1.00  0.00     0.040 A 
HETATM   21  O4  UNK     1      33.316 -12.243  33.501  1.00  0.00    -0.321 OA
HETATM   22  C32 UNK     1      32.768 -15.846  33.427  1.00  0.00     0.026 A 
HETATM   23  C31 UNK     1      31.607 -15.941  32.658  1.00  0.00     0.035 A 
HETATM   24 Cl1  UNK     1      30.924 -17.486  32.326  1.00  0.00    -0.084 Cl
HETATM   25  C21 UNK     1      32.727 -11.103  33.013  1.00  0.00     0.154 A 
ENDBRANCH   6  14
BRANCH  10  26
HETATM   26  C13 UNK     1      32.090  -9.839  29.445  1.00  0.00     0.292 C 
HETATM   27  O5  UNK     1      32.865 -10.763  29.288  1.00  0.00    -0.259 OA
BRANCH  26  28
HETATM   28  O1  UNK     1      31.235  -9.297  28.544  1.00  0.00    -0.315 OA
BRANCH  28  29
HETATM   29  C19 UNK     1      29.949  -9.923  28.478  1.00  0.00     0.211 C 
BRANCH  29  30
HETATM   30  C12 UNK     1      28.883  -8.895  28.803  1.00  0.00     0.145 C 
HETATM   31  O2  UNK     1      29.491  -7.606  28.992  1.00  0.00    -0.384 OA
HETATM   32  C22 UNK     1      28.863  -6.968  30.114  1.00  0.00     0.168 C 
HETATM   33  C18 UNK     1      27.668  -7.817  30.492  1.00  0.00     0.029 C 
HETATM   34  C14 UNK     1      28.121  -9.194  30.082  1.00  0.00     0.036 C 
ENDBRANCH  29  30
ENDBRANCH  28  29
ENDBRANCH  26  28
ENDBRANCH  10  26
BRANCH   3  35
HETATM   35  C9  UNK     1      30.282  -6.439  36.577  1.00  0.00    -0.053 A 
HETATM   36  C16 UNK     1      29.543  -6.867  37.678  1.00  0.00     0.008 A 
HETATM   37  C24 UNK     1      29.275  -5.980  38.721  1.00  0.00     0.007 A 
HETATM   38  C26 UNK     1      29.746  -4.668  38.661  1.00  0.00    -0.062 A 
HETATM   39  C25 UNK     1      30.485  -4.243  37.557  1.00  0.00     0.007 A 
HETATM   40  C29 UNK     1      29.460  -3.721  39.776  1.00  0.00     0.048 C 
HETATM   41  C17 UNK     1      30.754  -5.130  36.514  1.00  0.00     0.008 A 
ENDBRANCH   3  35
TORSDOF 6
ENDMDL
MODEL 3
REMARK VINA RESULT:      -8.9      2.703      4.140
REMARK  6 active torsions:
REMARK  status: ('A' for Active; 'I' for Inactive)
REMARK    1  A    between atoms: C13_21  and  O1_2 
REMARK    2  A    between atoms: C19_27  and  O1_2 
REMARK    3  A    between atoms: C1_9  and  C9_17 
REMARK    4  A    between atoms: C11_19  and  C4_12 
REMARK    5  A    between atoms: C13_21  and  C8_16 
REMARK    6  A    between atoms: C12_20  and  C19_27 
ROOT
HETATM    1  O3  UNK     1      33.773 -11.663  31.674  1.00  0.00    -0.293 OA
HETATM    2  N1  UNK     1      29.545 -11.885  29.546  1.00  0.00    -0.362 N 
HETATM    3  C1  UNK     1      31.244 -14.235  31.938  1.00  0.00     0.031 C 
HETATM    4  C2  UNK     1      30.390 -13.873  30.714  1.00  0.00     0.067 C 
HETATM    5  C3  UNK     1      31.623 -11.678  30.667  1.00  0.00     0.024 C 
HETATM    6  C4  UNK     1      31.714 -10.206  30.278  1.00  0.00     0.104 C 
HETATM    7  C5  UNK     1      30.557 -12.429  30.315  1.00  0.00     0.021 C 
HETATM    8  C6  UNK     1      32.691 -13.789  31.718  1.00  0.00     0.093 C 
HETATM    9  C7  UNK     1      32.765 -12.312  31.398  1.00  0.00     0.159 C 
HETATM   10  C8  UNK     1      30.606  -9.781  29.313  1.00  0.00     0.052 C 
HETATM   11  C10 UNK     1      29.576 -10.606  29.012  1.00  0.00     0.018 C 
HETATM   12  C15 UNK     1      28.416 -10.264  28.117  1.00  0.00     0.069 C 
HETATM   13  H7  UNK     1      28.764 -12.482  29.300  1.00  0.00     0.165 HD
ENDROOT
BRANCH   6  14
HETATM   14  C11 UNK     1      31.691  -9.340  31.508  1.00  0.00     0.029 A 
HETATM   15  C20 UNK     1      32.823  -8.407  31.739  1.00  0.00     0.194 A 
HETATM   16  C23 UNK     1      32.751  -7.581  32.958  1.00  0.00     0.050 A 
HETATM   17  O6  UNK     1      33.766  -8.325  30.964  1.00  0.00    -0.287 OA
HETATM   18  C27 UNK     1      31.652  -7.718  33.807  1.00  0.00     0.089 A 
HETATM   19  C28 UNK     1      33.768  -6.673  33.265  1.00  0.00     0.042 A 
HETATM   20  C30 UNK     1      31.563  -6.947  34.966  1.00  0.00     0.040 A 
HETATM   21  O4  UNK     1      30.626  -8.593  33.554  1.00  0.00    -0.321 OA
HETATM   22  C32 UNK     1      32.577  -6.040  35.274  1.00  0.00     0.026 A 
HETATM   23  C31 UNK     1      33.677  -5.904  34.425  1.00  0.00     0.035 A 
HETATM   24 Cl1  UNK     1      34.924  -4.781  34.812  1.00  0.00    -0.084 Cl
HETATM   25  C21 UNK     1      30.705  -9.356  32.415  1.00  0.00     0.154 A 
ENDBRANCH   6  14
BRANCH  10  26
HETATM   26  C13 UNK     1      30.746  -8.454  28.693  1.00  0.00     0.292 C 
HETATM   27  O5  UNK     1      31.607  -8.185  27.876  1.00  0.00    -0.259 OA
BRANCH  26  28
HETATM   28  O1  UNK     1      29.778  -7.646  29.190  1.00  0.00    -0.315 OA
BRANCH  28  29
HETATM   29  C19 UNK     1      30.253  -6.472  29.858  1.00  0.00     0.211 C 
BRANCH  29  30
HETATM   30  C12 UNK     1      29.120  -5.871  30.665  1.00  0.00     0.145 C 
HETATM   31  O2  UNK     1      29.580  -5.555  31.990  1.00  0.00    -0.384 OA
HETATM   32  C22 UNK     1      28.558  -5.930  32.926  1.00  0.00     0.168 C 
HETATM   33  C18 UNK     1      27.329  -6.289  32.118  1.00  0.00     0.029 C 
HETATM   34  C14 UNK     1      27.937  -6.807  30.840  1.00  0.00     0.036 C 
ENDBRANCH  29  30
ENDBRANCH  28  29
ENDBRANCH  26  28
ENDBRANCH  10  26
BRANCH   3  35
HETATM   35  C9  UNK     1      31.143 -15.708  32.285  1.00  0.00    -0.053 A 
HETATM   36  C16 UNK     1      31.595 -16.667  31.381  1.00  0.00     0.008 A 
HETATM   37  C24 UNK     1      31.502 -18.022  31.700  1.00  0.00     0.007 A 
HETATM   38  C26 UNK     1      30.958 -18.415  32.923  1.00  0.00    -0.062 A 
HETATM   39  C25 UNK     1      30.506 -17.453  33.826  1.00  0.00     0.007 A 
HETATM   40  C29 UNK     1      30.860 -19.863  33.264  1.00  0.00     0.048 C 
HETATM   41  C17 UNK     1      30.599 -16.098  33.507  1.00  0.00     0.008 A 
ENDBRANCH   3  35
TORSDOF 6
ENDMDL
MODEL 4
REMARK VINA RESULT:      -8.8      0.940      1.008
REMARK  6 active torsions:
REMARK  status: ('A' for Active; 'I' for Inactive)
REMARK    1  A    between atoms: C13_21  and  O1_2 
REMARK    2  A    between atoms: C19_27  and  O1_2 
REMARK    3  A    between atoms: C1_9  and  C9_17 
REMARK    4  A    between atoms: C11_19  and  C4_12 
REMARK    5  A    between atoms: C13_21  and  C8_16 
REMARK    6  A    between atoms: C12_20  and  C19_27 
ROOT
HETATM    1  O3  UNK     1      32.473  -9.657  34.430  1.00  0.00    -0.293 OA
HETATM    2  N1  UNK     1      29.472 -10.623  30.892  1.00  0.00    -0.362 N 
HETATM    3  C1  UNK     1      31.272 -12.878  33.302  1.00  0.00     0.031 C 
HETATM    4  C2  UNK     1      30.713 -12.470  31.931  1.00  0.00     0.067 C 
HETATM    5  C3  UNK     1      30.886 -10.084  32.716  1.00  0.00     0.024 C 
HETATM    6  C4  UNK     1      30.461  -8.621  32.645  1.00  0.00     0.104 C 
HETATM    7  C5  UNK     1      30.368 -11.004  31.874  1.00  0.00     0.021 C 
HETATM    8  C6  UNK     1      32.404 -11.932  33.709  1.00  0.00     0.093 C 
HETATM    9  C7  UNK     1      31.942 -10.490  33.696  1.00  0.00     0.159 C 
HETATM   10  C8  UNK     1      29.584  -8.320  31.428  1.00  0.00     0.052 C 
HETATM   11  C10 UNK     1      29.114  -9.309  30.633  1.00  0.00     0.018 C 
HETATM   12  C15 UNK     1      28.208  -9.120  29.447  1.00  0.00     0.069 C 
HETATM   13  H7  UNK     1      29.109 -11.342  30.278  1.00  0.00     0.165 HD
ENDROOT
BRANCH   6  14
HETATM   14  C11 UNK     1      29.747  -8.224  33.909  1.00  0.00     0.029 A 
HETATM   15  C20 UNK     1      30.289  -7.092  34.703  1.00  0.00     0.194 A 
HETATM   16  C23 UNK     1      29.552  -6.744  35.932  1.00  0.00     0.050 A 
HETATM   17  O6  UNK     1      31.291  -6.479  34.361  1.00  0.00    -0.287 OA
HETATM   18  C27 UNK     1      28.416  -7.479  36.273  1.00  0.00     0.089 A 
HETATM   19  C28 UNK     1      29.982  -5.694  36.747  1.00  0.00     0.042 A 
HETATM   20  C30 UNK     1      27.704  -7.167  37.431  1.00  0.00     0.040 A 
HETATM   21  O4  UNK     1      27.949  -8.519  35.509  1.00  0.00    -0.321 OA
HETATM   22  C32 UNK     1      28.131  -6.119  38.246  1.00  0.00     0.026 A 
HETATM   23  C31 UNK     1      29.268  -5.385  37.905  1.00  0.00     0.035 A 
HETATM   24 Cl1  UNK     1      29.789  -4.093  38.917  1.00  0.00    -0.084 Cl
HETATM   25  C21 UNK     1      28.645  -8.831  34.367  1.00  0.00     0.154 A 
ENDBRANCH   6  14
BRANCH  10  26
HETATM   26  C13 UNK     1      29.324  -6.900  31.139  1.00  0.00     0.292 C 
HETATM   27  O5  UNK     1      28.209  -6.413  31.135  1.00  0.00    -0.259 OA
BRANCH  26  28
HETATM   28  O1  UNK     1      30.509  -6.289  30.896  1.00  0.00    -0.315 OA
BRANCH  28  29
HETATM   29  C19 UNK     1      30.881  -6.218  29.515  1.00  0.00     0.211 C 
BRANCH  29  30
HETATM   30  C12 UNK     1      32.155  -7.010  29.305  1.00  0.00     0.145 C 
HETATM   31  O2  UNK     1      31.840  -8.309  28.775  1.00  0.00    -0.384 OA
HETATM   32  C22 UNK     1      32.668  -9.281  29.431  1.00  0.00     0.168 C 
HETATM   33  C18 UNK     1      33.690  -8.513  30.242  1.00  0.00     0.029 C 
HETATM   34  C14 UNK     1      32.935  -7.255  30.585  1.00  0.00     0.036 C 
ENDBRANCH  29  30
ENDBRANCH  28  29
ENDBRANCH  26  28
ENDBRANCH  10  26
BRANCH   3  35
HETATM   35  C9  UNK     1      31.701 -14.332  33.330  1.00  0.00    -0.053 A 
HETATM   36  C16 UNK     1      33.047 -14.656  33.482  1.00  0.00     0.008 A 
HETATM   37  C24 UNK     1      33.442 -15.994  33.509  1.00  0.00     0.007 A 
HETATM   38  C26 UNK     1      32.488 -17.005  33.384  1.00  0.00    -0.062 A 
HETATM   39  C25 UNK     1      31.141 -16.677  33.232  1.00  0.00     0.007 A 
HETATM   40  C29 UNK     1      32.910 -18.434  33.413  1.00  0.00     0.048 C 
HETATM   41  C17 UNK     1      30.747 -15.340  33.206  1.00  0.00     0.008 A 
ENDBRANCH   3  35
TORSDOF 6
ENDMDL
MODEL 5
REMARK VINA RESULT:      -8.7      1.689      3.114
REMARK  6 active torsions:
REMARK  status: ('A' for Active; 'I' for Inactive)
REMARK    1  A    between atoms: C13_21  and  O1_2 
REMARK    2  A    between atoms: C19_27  and  O1_2 
REMARK    3  A    between atoms: C1_9  and  C9_17 
REMARK    4  A    between atoms: C11_19  and  C4_12 
REMARK    5  A    between atoms: C13_21  and  C8_16 
REMARK    6  A    between atoms: C12_20  and  C19_27 
ROOT
HETATM    1  O3  UNK     1      32.576 -11.560  34.103  1.00  0.00    -0.293 OA
HETATM    2  N1  UNK     1      29.984 -12.519  30.255  1.00  0.00    -0.362 N 
HETATM    3  C1  UNK     1      31.016 -14.681  33.152  1.00  0.00     0.031 C 
HETATM    4  C2  UNK     1      30.733 -14.379  31.672  1.00  0.00     0.067 C 
HETATM    5  C3  UNK     1      31.198 -11.964  32.213  1.00  0.00     0.024 C 
HETATM    6  C4  UNK     1      31.042 -10.476  31.917  1.00  0.00     0.104 C 
HETATM    7  C5  UNK     1      30.654 -12.898  31.403  1.00  0.00     0.021 C 
HETATM    8  C6  UNK     1      32.223 -13.872  33.630  1.00  0.00     0.093 C 
HETATM    9  C7  UNK     1      32.020 -12.392  33.387  1.00  0.00     0.159 C 
HETATM   10  C8  UNK     1      30.410 -10.209  30.549  1.00  0.00     0.052 C 
HETATM   11  C10 UNK     1      29.894 -11.212  29.801  1.00  0.00     0.018 C 
HETATM   12  C15 UNK     1      29.210 -11.047  28.472  1.00  0.00     0.069 C 
HETATM   13  H7  UNK     1      29.593 -13.250  29.672  1.00  0.00     0.165 HD
ENDROOT
BRANCH   6  14
HETATM   14  C11 UNK     1      30.235  -9.811  32.999  1.00  0.00     0.029 A 
HETATM   15  C20 UNK     1      30.794  -8.604  33.660  1.00  0.00     0.194 A 
HETATM   16  C23 UNK     1      29.964  -7.992  34.713  1.00  0.00     0.050 A 
HETATM   17  O6  UNK     1      31.883  -8.139  33.351  1.00  0.00    -0.287 OA
HETATM   18  C27 UNK     1      28.731  -8.565  35.024  1.00  0.00     0.089 A 
HETATM   19  C28 UNK     1      30.402  -6.853  35.394  1.00  0.00     0.042 A 
HETATM   20  C30 UNK     1      27.929  -8.003  36.018  1.00  0.00     0.040 A 
HETATM   21  O4  UNK     1      28.251  -9.683  34.387  1.00  0.00    -0.321 OA
HETATM   22  C32 UNK     1      28.364  -6.866  36.698  1.00  0.00     0.026 A 
HETATM   23  C31 UNK     1      29.598  -6.293  36.387  1.00  0.00     0.035 A 
HETATM   24 Cl1  UNK     1      30.128  -4.889  37.232  1.00  0.00    -0.084 Cl
HETATM   25  C21 UNK     1      29.035 -10.242  33.408  1.00  0.00     0.154 A 
ENDBRANCH   6  14
BRANCH  10  26
HETATM   26  C13 UNK     1      30.438  -8.817  30.071  1.00  0.00     0.292 C 
HETATM   27  O5  UNK     1      31.466  -8.223  29.807  1.00  0.00    -0.259 OA
BRANCH  26  28
HETATM   28  O1  UNK     1      29.162  -8.367  29.993  1.00  0.00    -0.315 OA
BRANCH  28  29
HETATM   29  C19 UNK     1      29.017  -7.053  29.442  1.00  0.00     0.211 C 
BRANCH  29  30
HETATM   30  C12 UNK     1      28.337  -6.163  30.463  1.00  0.00     0.145 C 
HETATM   31  O2  UNK     1      29.302  -5.283  31.063  1.00  0.00    -0.384 OA
HETATM   32  C22 UNK     1      29.033  -5.206  32.471  1.00  0.00     0.168 C 
HETATM   33  C18 UNK     1      27.708  -5.899  32.706  1.00  0.00     0.029 C 
HETATM   34  C14 UNK     1      27.697  -6.931  31.607  1.00  0.00     0.036 C 
ENDBRANCH  29  30
ENDBRANCH  28  29
ENDBRANCH  26  28
ENDBRANCH  10  26
BRANCH   3  35
HETATM   35  C9  UNK     1      31.182 -16.167  33.405  1.00  0.00    -0.053 A 
HETATM   36  C16 UNK     1      32.413 -16.777  33.172  1.00  0.00     0.008 A 
HETATM   37  C24 UNK     1      32.566 -18.144  33.406  1.00  0.00     0.007 A 
HETATM   38  C26 UNK     1      31.489 -18.897  33.873  1.00  0.00    -0.062 A 
HETATM   39  C25 UNK     1      30.258 -18.283  34.105  1.00  0.00     0.007 A 
HETATM   40  C29 UNK     1      31.653 -20.358  34.123  1.00  0.00     0.048 C 
HETATM   41  C17 UNK     1      30.105 -16.917  33.872  1.00  0.00     0.008 A 
ENDBRANCH   3  35
TORSDOF 6
ENDMDL
MODEL 6
REMARK VINA RESULT:      -8.5     31.327     34.920
REMARK  6 active torsions:
REMARK  status: ('A' for Active; 'I' for Inactive)
REMARK    1  A    between atoms: C13_21  and  O1_2 
REMARK    2  A    between atoms: C19_27  and  O1_2 
REMARK    3  A    between atoms: C1_9  and  C9_17 
REMARK    4  A    between atoms: C11_19  and  C4_12 
REMARK    5  A    between atoms: C13_21  and  C8_16 
REMARK    6  A    between atoms: C12_20  and  C19_27 
ROOT
HETATM    1  O3  UNK     1      19.144  13.902  11.835  1.00  0.00    -0.293 OA
HETATM    2  N1  UNK     1      20.349  12.970   7.349  1.00  0.00    -0.362 N 
HETATM    3  C1  UNK     1      22.269  12.603  10.560  1.00  0.00     0.031 C 
HETATM    4  C2  UNK     1      22.097  12.950   9.073  1.00  0.00     0.067 C 
HETATM    5  C3  UNK     1      19.664  13.353   9.585  1.00  0.00     0.024 C 
HETATM    6  C4  UNK     1      18.206  13.445   9.149  1.00  0.00     0.104 C 
HETATM    7  C5  UNK     1      20.646  13.102   8.693  1.00  0.00     0.021 C 
HETATM    8  C6  UNK     1      21.473  13.583  11.423  1.00  0.00     0.093 C 
HETATM    9  C7  UNK     1      20.015  13.610  11.017  1.00  0.00     0.159 C 
HETATM   10  C8  UNK     1      18.043  13.426   7.627  1.00  0.00     0.052 C 
HETATM   11  C10 UNK     1      19.088  13.170   6.807  1.00  0.00     0.018 C 
HETATM   12  C15 UNK     1      19.020  13.081   5.307  1.00  0.00     0.069 C 
HETATM   13  H7  UNK     1      21.113  12.785   6.711  1.00  0.00     0.165 HD
ENDROOT
BRANCH   6  14
HETATM   14  C11 UNK     1      17.405  12.332   9.770  1.00  0.00     0.029 A 
HETATM   15  C20 UNK     1      17.681  10.937   9.343  1.00  0.00     0.194 A 
HETATM   16  C23 UNK     1      16.869   9.885   9.981  1.00  0.00     0.050 A 
HETATM   17  O6  UNK     1      18.534  10.669   8.507  1.00  0.00    -0.287 OA
HETATM   18  C27 UNK     1      15.910  10.249  10.928  1.00  0.00     0.089 A 
HETATM   19  C28 UNK     1      17.052   8.541   9.647  1.00  0.00     0.042 A 
HETATM   20  C30 UNK     1      15.130   9.271  11.545  1.00  0.00     0.040 A 
HETATM   21  O4  UNK     1      15.689  11.553  11.294  1.00  0.00    -0.321 OA
HETATM   22  C32 UNK     1      15.312   7.929  11.213  1.00  0.00     0.026 A 
HETATM   23  C31 UNK     1      16.271   7.565  10.266  1.00  0.00     0.035 A 
HETATM   24 Cl1  UNK     1      16.489   5.906   9.861  1.00  0.00    -0.084 Cl
HETATM   25  C21 UNK     1      16.452  12.522  10.692  1.00  0.00     0.154 A 
ENDBRANCH   6  14
BRANCH  10  26
HETATM   26  C13 UNK     1      16.705  13.751   7.105  1.00  0.00     0.292 C 
HETATM   27  O5  UNK     1      15.847  12.913   6.901  1.00  0.00    -0.259 OA
BRANCH  26  28
HETATM   28  O1  UNK     1      16.636  15.090   6.912  1.00  0.00    -0.315 OA
BRANCH  28  29
HETATM   29  C19 UNK     1      15.483  15.539   6.190  1.00  0.00     0.211 C 
BRANCH  29  30
HETATM   30  C12 UNK     1      14.540  16.235   7.150  1.00  0.00     0.145 C 
HETATM   31  O2  UNK     1      13.447  16.821   6.422  1.00  0.00    -0.384 OA
HETATM   32  C22 UNK     1      13.177  18.118   6.974  1.00  0.00     0.168 C 
HETATM   33  C18 UNK     1      14.000  18.240   8.239  1.00  0.00     0.029 C 
HETATM   34  C14 UNK     1      15.190  17.372   7.921  1.00  0.00     0.036 C 
ENDBRANCH  29  30
ENDBRANCH  28  29
ENDBRANCH  26  28
ENDBRANCH  10  26
BRANCH   3  35
HETATM   35  C9  UNK     1      23.730  12.538  10.961  1.00  0.00    -0.053 A 
HETATM   36  C16 UNK     1      24.597  11.679  10.288  1.00  0.00     0.008 A 
HETATM   37  C24 UNK     1      25.941  11.620  10.657  1.00  0.00     0.007 A 
HETATM   38  C26 UNK     1      26.415  12.419  11.698  1.00  0.00    -0.062 A 
HETATM   39  C25 UNK     1      25.545  13.277  12.369  1.00  0.00     0.007 A 
HETATM   40  C29 UNK     1      27.852  12.356  12.091  1.00  0.00     0.048 C 
HETATM   41  C17 UNK     1      24.201  13.337  12.000  1.00  0.00     0.008 A 
ENDBRANCH   3  35
TORSDOF 6
ENDMDL
MODEL 7
REMARK VINA RESULT:      -8.5      3.936      8.210
REMARK  6 active torsions:
REMARK  status: ('A' for Active; 'I' for Inactive)
REMARK    1  A    between atoms: C13_21  and  O1_2 
REMARK    2  A    between atoms: C19_27  and  O1_2 
REMARK    3  A    between atoms: C1_9  and  C9_17 
REMARK    4  A    between atoms: C11_19  and  C4_12 
REMARK    5  A    between atoms: C13_21  and  C8_16 
REMARK    6  A    between atoms: C12_20  and  C19_27 
ROOT
HETATM    1  O3  UNK     1      32.267 -10.133  34.427  1.00  0.00    -0.293 OA
HETATM    2  N1  UNK     1      31.484  -6.410  31.602  1.00  0.00    -0.362 N 
HETATM    3  C1  UNK     1      31.550  -6.709  35.349  1.00  0.00     0.031 C 
HETATM    4  C2  UNK     1      31.017  -6.194  34.003  1.00  0.00     0.067 C 
HETATM    5  C3  UNK     1      31.984  -8.278  32.972  1.00  0.00     0.024 C 
HETATM    6  C4  UNK     1      32.529  -9.044  31.771  1.00  0.00     0.104 C 
HETATM    7  C5  UNK     1      31.520  -7.017  32.844  1.00  0.00     0.021 C 
HETATM    8  C6  UNK     1      31.302  -8.214  35.469  1.00  0.00     0.093 C 
HETATM    9  C7  UNK     1      31.908  -8.963  34.300  1.00  0.00     0.159 C 
HETATM   10  C8  UNK     1      32.293  -8.312  30.448  1.00  0.00     0.052 C 
HETATM   11  C10 UNK     1      31.816  -7.046  30.416  1.00  0.00     0.018 C 
HETATM   12  C15 UNK     1      31.599  -6.227  29.173  1.00  0.00     0.069 C 
HETATM   13  H7  UNK     1      31.125  -5.465  31.547  1.00  0.00     0.165 HD
ENDROOT
BRANCH   6  14
HETATM   14  C11 UNK     1      33.996  -9.326  31.954  1.00  0.00     0.029 A 
HETATM   15  C20 UNK     1      34.457 -10.736  31.913  1.00  0.00     0.194 A 
HETATM   16  C23 UNK     1      35.903 -10.956  32.098  1.00  0.00     0.050 A 
HETATM   17  O6  UNK     1      33.684 -11.668  31.737  1.00  0.00    -0.287 OA
HETATM   18  C27 UNK     1      36.738  -9.856  32.295  1.00  0.00     0.089 A 
HETATM   19  C28 UNK     1      36.436 -12.248  32.076  1.00  0.00     0.042 A 
HETATM   20  C30 UNK     1      38.109 -10.040  32.473  1.00  0.00     0.040 A 
HETATM   21  O4  UNK     1      36.268  -8.566  32.325  1.00  0.00    -0.321 OA
HETATM   22  C32 UNK     1      38.643 -11.329  32.451  1.00  0.00     0.026 A 
HETATM   23  C31 UNK     1      37.808 -12.430  32.254  1.00  0.00     0.035 A 
HETATM   24 Cl1  UNK     1      38.475 -14.017  32.228  1.00  0.00    -0.084 Cl
HETATM   25  C21 UNK     1      34.920  -8.376  32.152  1.00  0.00     0.154 A 
ENDBRANCH   6  14
BRANCH  10  26
HETATM   26  C13 UNK     1      32.563  -9.074  29.218  1.00  0.00     0.292 C 
HETATM   27  O5  UNK     1      33.491  -8.828  28.470  1.00  0.00    -0.259 OA
BRANCH  26  28
HETATM   28  O1  UNK     1      31.623 -10.043  29.100  1.00  0.00    -0.315 OA
BRANCH  28  29
HETATM   29  C19 UNK     1      30.567  -9.753  28.177  1.00  0.00     0.211 C 
BRANCH  29  30
HETATM   30  C12 UNK     1      29.272  -9.585  28.946  1.00  0.00     0.145 C 
HETATM   31  O2  UNK     1      28.858  -8.208  28.910  1.00  0.00    -0.384 OA
HETATM   32  C22 UNK     1      28.375  -7.845  30.211  1.00  0.00     0.168 C 
HETATM   33  C18 UNK     1      28.285  -9.121  31.021  1.00  0.00     0.029 C 
HETATM   34  C14 UNK     1      29.387  -9.952  30.416  1.00  0.00     0.036 C 
ENDBRANCH  29  30
ENDBRANCH  28  29
ENDBRANCH  26  28
ENDBRANCH  10  26
BRANCH   3  35
HETATM   35  C9  UNK     1      30.974  -5.937  36.520  1.00  0.00    -0.053 A 
HETATM   36  C16 UNK     1      30.293  -6.613  37.529  1.00  0.00     0.008 A 
HETATM   37  C24 UNK     1      29.764  -5.902  38.607  1.00  0.00     0.007 A 
HETATM   38  C26 UNK     1      29.918  -4.517  38.673  1.00  0.00    -0.062 A 
HETATM   39  C25 UNK     1      30.601  -3.843  37.661  1.00  0.00     0.007 A 
HETATM   40  C29 UNK     1      29.353  -3.758  39.825  1.00  0.00     0.048 C 
HETATM   41  C17 UNK     1      31.130  -4.554  36.583  1.00  0.00     0.008 A 
ENDBRANCH   3  35
TORSDOF 6
ENDMDL
MODEL 8
REMARK VINA RESULT:      -8.4      1.435      2.030
REMARK  6 active torsions:
REMARK  status: ('A' for Active; 'I' for Inactive)
REMARK    1  A    between atoms: C13_21  and  O1_2 
REMARK    2  A    between atoms: C19_27  and  O1_2 
REMARK    3  A    between atoms: C1_9  and  C9_17 
REMARK    4  A    between atoms: C11_19  and  C4_12 
REMARK    5  A    between atoms: C13_21  and  C8_16 
REMARK    6  A    between atoms: C12_20  and  C19_27 
ROOT
HETATM    1  O3  UNK     1      33.145  -9.632  34.278  1.00  0.00    -0.293 OA
HETATM    2  N1  UNK     1      29.303 -10.322  31.591  1.00  0.00    -0.362 N 
HETATM    3  C1  UNK     1      31.499 -12.744  33.446  1.00  0.00     0.031 C 
HETATM    4  C2  UNK     1      30.643 -12.266  32.263  1.00  0.00     0.067 C 
HETATM    5  C3  UNK     1      31.157  -9.917  33.010  1.00  0.00     0.024 C 
HETATM    6  C4  UNK     1      30.821  -8.431  33.066  1.00  0.00     0.104 C 
HETATM    7  C5  UNK     1      30.389 -10.782  32.313  1.00  0.00     0.021 C 
HETATM    8  C6  UNK     1      32.754 -11.877  33.568  1.00  0.00     0.093 C 
HETATM    9  C7  UNK     1      32.396 -10.411  33.689  1.00  0.00     0.159 C 
HETATM   10  C8  UNK     1      29.690  -8.045  32.111  1.00  0.00     0.052 C 
HETATM   11  C10 UNK     1      28.975  -8.983  31.447  1.00  0.00     0.018 C 
HETATM   12  C15 UNK     1      27.816  -8.708  30.528  1.00  0.00     0.069 C 
HETATM   13  H7  UNK     1      28.753 -11.001  31.079  1.00  0.00     0.165 HD
ENDROOT
BRANCH   6  14
HETATM   14  C11 UNK     1      30.471  -8.029  34.473  1.00  0.00     0.029 A 
HETATM   15  C20 UNK     1      29.377  -8.754  35.167  1.00  0.00     0.194 A 
HETATM   16  C23 UNK     1      29.074  -8.320  36.543  1.00  0.00     0.050 A 
HETATM   17  O6  UNK     1      28.757  -9.662  34.630  1.00  0.00    -0.287 OA
HETATM   18  C27 UNK     1      29.814  -7.279  37.104  1.00  0.00     0.089 A 
HETATM   19  C28 UNK     1      28.062  -8.940  37.280  1.00  0.00     0.042 A 
HETATM   20  C30 UNK     1      29.545  -6.851  38.404  1.00  0.00     0.040 A 
HETATM   21  O4  UNK     1      30.819  -6.635  36.427  1.00  0.00    -0.321 OA
HETATM   22  C32 UNK     1      28.535  -7.469  39.142  1.00  0.00     0.026 A 
HETATM   23  C31 UNK     1      27.795  -8.511  38.580  1.00  0.00     0.035 A 
HETATM   24 Cl1  UNK     1      26.549  -9.269  39.496  1.00  0.00    -0.084 Cl
HETATM   25  C21 UNK     1      31.090  -7.049  35.146  1.00  0.00     0.154 A 
ENDBRANCH   6  14
BRANCH  10  26
HETATM   26  C13 UNK     1      29.457  -6.605  31.915  1.00  0.00     0.292 C 
HETATM   27  O5  UNK     1      28.421  -6.048  32.226  1.00  0.00    -0.259 OA
BRANCH  26  28
HETATM   28  O1  UNK     1      30.565  -6.066  31.351  1.00  0.00    -0.315 OA
BRANCH  28  29
HETATM   29  C19 UNK     1      30.429  -5.707  29.972  1.00  0.00     0.211 C 
BRANCH  29  30
HETATM   30  C12 UNK     1      31.358  -6.571  29.144  1.00  0.00     0.145 C 
HETATM   31  O2  UNK     1      30.628  -7.675  28.583  1.00  0.00    -0.384 OA
HETATM   32  C22 UNK     1      31.438  -8.855  28.686  1.00  0.00     0.168 C 
HETATM   33  C18 UNK     1      32.814  -8.408  29.131  1.00  0.00     0.029 C 
HETATM   34  C14 UNK     1      32.495  -7.181  29.946  1.00  0.00     0.036 C 
ENDBRANCH  29  30
ENDBRANCH  28  29
ENDBRANCH  26  28
ENDBRANCH  10  26
BRANCH   3  35
HETATM   35  C9  UNK     1      31.828 -14.222  33.348  1.00  0.00    -0.053 A 
HETATM   36  C16 UNK     1      30.823 -15.137  33.044  1.00  0.00     0.008 A 
HETATM   37  C24 UNK     1      31.126 -16.496  32.952  1.00  0.00     0.007 A 
HETATM   38  C26 UNK     1      32.433 -16.936  33.165  1.00  0.00    -0.062 A 
HETATM   39  C25 UNK     1      33.436 -16.017  33.469  1.00  0.00     0.007 A 
HETATM   40  C29 UNK     1      32.756 -18.388  33.067  1.00  0.00     0.048 C 
HETATM   41  C17 UNK     1      33.134 -14.658  33.560  1.00  0.00     0.008 A 
ENDBRANCH   3  35
TORSDOF 6
ENDMDL
MODEL 9
REMARK VINA RESULT:      -8.4      3.646      5.187
REMARK  6 active torsions:
REMARK  status: ('A' for Active; 'I' for Inactive)
REMARK    1  A    between atoms: C13_21  and  O1_2 
REMARK    2  A    between atoms: C19_27  and  O1_2 
REMARK    3  A    between atoms: C1_9  and  C9_17 
REMARK    4  A    between atoms: C11_19  and  C4_12 
REMARK    5  A    between atoms: C13_21  and  C8_16 
REMARK    6  A    between atoms: C12_20  and  C19_27 
ROOT
HETATM    1  O3  UNK     1      35.127  -6.228  33.437  1.00  0.00    -0.293 OA
HETATM    2  N1  UNK     1      32.784  -9.087  30.473  1.00  0.00    -0.362 N 
HETATM    3  C1  UNK     1      36.197  -9.379  32.021  1.00  0.00     0.031 C 
HETATM    4  C2  UNK     1      35.167  -9.508  30.888  1.00  0.00     0.067 C 
HETATM    5  C3  UNK     1      33.873  -7.677  32.036  1.00  0.00     0.024 C 
HETATM    6  C4  UNK     1      32.568  -6.939  32.316  1.00  0.00     0.104 C 
HETATM    7  C5  UNK     1      33.919  -8.710  31.167  1.00  0.00     0.021 C 
HETATM    8  C6  UNK     1      36.433  -7.904  32.350  1.00  0.00     0.093 C 
HETATM    9  C7  UNK     1      35.133  -7.206  32.690  1.00  0.00     0.159 C 
HETATM   10  C8  UNK     1      31.437  -7.363  31.377  1.00  0.00     0.052 C 
HETATM   11  C10 UNK     1      31.575  -8.411  30.532  1.00  0.00     0.018 C 
HETATM   12  C15 UNK     1      30.508  -8.935  29.610  1.00  0.00     0.069 C 
HETATM   13  H7  UNK     1      32.859  -9.864  29.828  1.00  0.00     0.165 HD
ENDROOT
BRANCH   6  14
HETATM   14  C11 UNK     1      32.155  -7.137  33.749  1.00  0.00     0.029 A 
HETATM   15  C20 UNK     1      31.702  -5.956  34.526  1.00  0.00     0.194 A 
HETATM   16  C23 UNK     1      31.309  -6.205  35.925  1.00  0.00     0.050 A 
HETATM   17  O6  UNK     1      31.656  -4.835  34.037  1.00  0.00    -0.287 OA
HETATM   18  C27 UNK     1      31.382  -7.503  36.429  1.00  0.00     0.089 A 
HETATM   19  C28 UNK     1      30.869  -5.158  36.739  1.00  0.00     0.042 A 
HETATM   20  C30 UNK     1      31.015  -7.763  37.750  1.00  0.00     0.040 A 
HETATM   21  O4  UNK     1      31.806  -8.569  35.675  1.00  0.00    -0.321 OA
HETATM   22  C32 UNK     1      30.575  -6.719  38.564  1.00  0.00     0.026 A 
HETATM   23  C31 UNK     1      30.502  -5.420  38.059  1.00  0.00     0.035 A 
HETATM   24 Cl1  UNK     1      29.958  -4.137  39.070  1.00  0.00    -0.084 Cl
HETATM   25  C21 UNK     1      32.169  -8.322  34.374  1.00  0.00     0.154 A 
ENDBRANCH   6  14
BRANCH  10  26
HETATM   26  C13 UNK     1      30.215  -6.543  31.407  1.00  0.00     0.292 C 
HETATM   27  O5  UNK     1      30.122  -5.462  30.857  1.00  0.00    -0.259 OA
BRANCH  26  28
HETATM   28  O1  UNK     1      29.276  -7.202  32.129  1.00  0.00    -0.315 OA
BRANCH  28  29
HETATM   29  C19 UNK     1      28.561  -6.396  33.072  1.00  0.00     0.211 C 
BRANCH  29  30
HETATM   30  C12 UNK     1      27.793  -7.303  34.013  1.00  0.00     0.145 C 
HETATM   31  O2  UNK     1      27.568  -6.629  35.263  1.00  0.00    -0.384 OA
HETATM   32  C22 UNK     1      27.782  -7.566  36.329  1.00  0.00     0.168 C 
HETATM   33  C18 UNK     1      27.932  -8.932  35.693  1.00  0.00     0.029 C 
HETATM   34  C14 UNK     1      28.529  -8.588  34.352  1.00  0.00     0.036 C 
ENDBRANCH  29  30
ENDBRANCH  28  29
ENDBRANCH  26  28
ENDBRANCH  10  26
BRANCH   3  35
HETATM   35  C9  UNK     1      37.487 -10.111  31.700  1.00  0.00    -0.053 A 
HETATM   36  C16 UNK     1      37.763 -10.485  30.387  1.00  0.00     0.008 A 
HETATM   37  C24 UNK     1      38.950 -11.157  30.092  1.00  0.00     0.007 A 
HETATM   38  C26 UNK     1      39.857 -11.452  31.110  1.00  0.00    -0.062 A 
HETATM   39  C25 UNK     1      39.577 -11.075  32.424  1.00  0.00     0.007 A 
HETATM   40  C29 UNK     1      41.125 -12.169  30.794  1.00  0.00     0.048 C 
HETATM   41  C17 UNK     1      38.391 -10.403  32.719  1.00  0.00     0.008 A 
ENDBRANCH   3  35
TORSDOF 6
ENDMDL
MODEL 10
REMARK VINA RESULT:      -8.4     31.320     34.587
REMARK  6 active torsions:
REMARK  status: ('A' for Active; 'I' for Inactive)
REMARK    1  A    between atoms: C13_21  and  O1_2 
REMARK    2  A    between atoms: C19_27  and  O1_2 
REMARK    3  A    between atoms: C1_9  and  C9_17 
REMARK    4  A    between atoms: C11_19  and  C4_12 
REMARK    5  A    between atoms: C13_21  and  C8_16 
REMARK    6  A    between atoms: C12_20  and  C19_27 
ROOT
HETATM    1  O3  UNK     1      19.184  13.771  11.731  1.00  0.00    -0.293 OA
HETATM    2  N1  UNK     1      20.439  12.673   7.296  1.00  0.00    -0.362 N 
HETATM    3  C1  UNK     1      22.342  12.478  10.532  1.00  0.00     0.031 C 
HETATM    4  C2  UNK     1      22.174  12.760   9.031  1.00  0.00     0.067 C 
HETATM    5  C3  UNK     1      19.731  13.137   9.509  1.00  0.00     0.024 C 
HETATM    6  C4  UNK     1      18.274  13.182   9.059  1.00  0.00     0.104 C 
HETATM    7  C5  UNK     1      20.724  12.867   8.635  1.00  0.00     0.021 C 
HETATM    8  C6  UNK     1      21.521  13.479  11.348  1.00  0.00     0.093 C 
HETATM    9  C7  UNK     1      20.066  13.460  10.931  1.00  0.00     0.159 C 
HETATM   10  C8  UNK     1      18.123  13.096   7.539  1.00  0.00     0.052 C 
HETATM   11  C10 UNK     1      19.179  12.826   6.738  1.00  0.00     0.018 C 
HETATM   12  C15 UNK     1      19.123  12.671   5.242  1.00  0.00     0.069 C 
HETATM   13  H7  UNK     1      21.212  12.475   6.671  1.00  0.00     0.165 HD
ENDROOT
BRANCH   6  14
HETATM   14  C11 UNK     1      17.490  12.081   9.722  1.00  0.00     0.029 A 
HETATM   15  C20 UNK     1      17.724  10.682   9.283  1.00  0.00     0.194 A 
HETATM   16  C23 UNK     1      16.930   9.643   9.964  1.00  0.00     0.050 A 
HETATM   17  O6  UNK     1      18.529  10.401   8.406  1.00  0.00    -0.287 OA
HETATM   18  C27 UNK     1      16.026  10.021  10.957  1.00  0.00     0.089 A 
HETATM   19  C28 UNK     1      17.077   8.296   9.623  1.00  0.00     0.042 A 
HETATM   20  C30 UNK     1      15.264   9.055  11.614  1.00  0.00     0.040 A 
HETATM   21  O4  UNK     1      15.842  11.328  11.332  1.00  0.00    -0.321 OA
HETATM   22  C32 UNK     1      15.410   7.709  11.275  1.00  0.00     0.026 A 
HETATM   23  C31 UNK     1      16.314   7.331  10.281  1.00  0.00     0.035 A 
HETATM   24 Cl1  UNK     1      16.487   5.669   9.869  1.00  0.00    -0.084 Cl
HETATM   25  C21 UNK     1      16.588  12.285  10.691  1.00  0.00     0.154 A 
ENDBRANCH   6  14
BRANCH  10  26
HETATM   26  C13 UNK     1      16.783  13.372   6.995  1.00  0.00     0.292 C 
HETATM   27  O5  UNK     1      16.005  12.499   6.661  1.00  0.00    -0.259 OA
BRANCH  26  28
HETATM   28  O1  UNK     1      16.611  14.715   6.946  1.00  0.00    -0.315 OA
BRANCH  28  29
HETATM   29  C19 UNK     1      16.722  15.293   5.641  1.00  0.00     0.211 C 
BRANCH  29  30
HETATM   30  C12 UNK     1      17.806  16.352   5.661  1.00  0.00     0.145 C 
HETATM   31  O2  UNK     1      18.913  15.933   4.845  1.00  0.00    -0.384 OA
HETATM   32  C22 UNK     1      20.131  16.268   5.527  1.00  0.00     0.168 C 
HETATM   33  C18 UNK     1      19.752  17.128   6.713  1.00  0.00     0.029 C 
HETATM   34  C14 UNK     1      18.375  16.611   7.045  1.00  0.00     0.036 C 
ENDBRANCH  29  30
ENDBRANCH  28  29
ENDBRANCH  26  28
ENDBRANCH  10  26
BRANCH   3  35
HETATM   35  C9  UNK     1      23.801  12.458  10.946  1.00  0.00    -0.053 A 
HETATM   36  C16 UNK     1      24.662  11.506  10.405  1.00  0.00     0.008 A 
HETATM   37  C24 UNK     1      26.005  11.488  10.785  1.00  0.00     0.007 A 
HETATM   38  C26 UNK     1      26.482  12.423  11.704  1.00  0.00    -0.062 A 
HETATM   39  C25 UNK     1      25.617  13.375  12.243  1.00  0.00     0.007 A 
HETATM   40  C29 UNK     1      27.917  12.404  12.109  1.00  0.00     0.048 C 
HETATM   41  C17 UNK     1      24.275  13.393  11.863  1.00  0.00     0.008 A 
ENDBRANCH   3  35
TORSDOF 6
ENDMDL
