MODEL 1
REMARK VINA RESULT:      -9.1      0.000      0.000
REMARK  4 active torsions:
REMARK  status: ('A' for Active; 'I' for Inactive)
REMARK    1  A    between atoms: C14_21  and  O2_4 
REMARK    2  A    between atoms: C17_24  and  O2_4 
REMARK    3  A    between atoms: C5_12  and  N1_7 
REMARK       I    between atoms: C6_13  and  N1_7 
REMARK    4  A    between atoms: C2_9  and  C6_13 
ROOT
HETATM    1  O3  UNK     1      17.595   3.206  32.739  1.00  0.00    -0.267 OA
HETATM    2  N1  UNK     1      18.712   4.724  31.308  1.00  0.00    -0.323 N 
HETATM    3  C6  UNK     1      18.277   3.487  31.756  1.00  0.00     0.262 C 
HETATM    4  H3  UNK     1      19.260   4.759  30.452  1.00  0.00     0.169 HD
ENDROOT
BRANCH   3   5
HETATM    5  C2  UNK     1      18.719   2.376  30.903  1.00  0.00     0.108 A 
HETATM    6  C4  UNK     1      19.148   1.278  31.537  1.00  0.00     0.037 A 
HETATM    7  C1  UNK     1      19.607   0.125  30.778  1.00  0.00    -0.001 A 
HETATM    8  C3  UNK     1      19.590   0.186  29.387  1.00  0.00     0.089 A 
HETATM    9  C7  UNK     1      20.064  -1.040  31.397  1.00  0.00     0.014 A 
HETATM   10  O1  UNK     1      19.136   1.343  28.726  1.00  0.00    -0.274 OA
HETATM   11  C9  UNK     1      20.016  -0.884  28.602  1.00  0.00     0.038 A 
HETATM   12  C8  UNK     1      18.692   2.462  29.426  1.00  0.00     0.304 A 
HETATM   13  O4  UNK     1      18.299   3.466  28.842  1.00  0.00    -0.259 OA
HETATM   14  C13 UNK     1      20.470  -2.043  29.228  1.00  0.00     0.003 A 
HETATM   15  C10 UNK     1      20.494  -2.121  30.622  1.00  0.00     0.001 A 
ENDBRANCH   3   5
BRANCH   2  16
HETATM   16  C5  UNK     1      18.469   5.989  31.890  1.00  0.00     0.035 A 
HETATM   17  C11 UNK     1      19.368   6.495  32.815  1.00  0.00     0.032 A 
HETATM   18  C15 UNK     1      19.127   7.743  33.390  1.00  0.00     0.039 A 
HETATM   19  C14 UNK     1      17.991   8.468  33.032  1.00  0.00     0.075 A 
HETATM   20  C16 UNK     1      17.095   7.946  32.099  1.00  0.00     0.039 A 
HETATM   21  C12 UNK     1      17.336   6.698  31.525  1.00  0.00     0.032 A 
BRANCH  19  22
HETATM   22  O2  UNK     1      17.757   9.686  33.593  1.00  0.00    -0.290 OA
BRANCH  22  23
HETATM   23  C17 UNK     1      16.515   9.871  34.261  1.00  0.00     0.505 C 
HETATM   24  F1  UNK     1      16.414   8.907  35.213  1.00  0.00    -0.184 F 
HETATM   25  F2  UNK     1      16.533  11.058  34.914  1.00  0.00    -0.184 F 
ENDBRANCH  22  23
ENDBRANCH  19  22
ENDBRANCH   2  16
TORSDOF 4
ENDMDL
MODEL 2
REMARK VINA RESULT:      -9.0      9.629     13.254
REMARK  4 active torsions:
REMARK  status: ('A' for Active; 'I' for Inactive)
REMARK    1  A    between atoms: C14_21  and  O2_4 
REMARK    2  A    between atoms: C17_24  and  O2_4 
REMARK    3  A    between atoms: C5_12  and  N1_7 
REMARK       I    between atoms: C6_13  and  N1_7 
REMARK    4  A    between atoms: C2_9  and  C6_13 
ROOT
HETATM    1  O3  UNK     1      21.193  -4.307  36.847  1.00  0.00    -0.267 OA
HETATM    2  N1  UNK     1      18.934  -5.001  36.714  1.00  0.00    -0.323 N 
HETATM    3  C6  UNK     1      19.997  -4.114  36.642  1.00  0.00     0.262 C 
HETATM    4  H3  UNK     1      18.004  -4.656  36.489  1.00  0.00     0.169 HD
ENDROOT
BRANCH   3   5
HETATM    5  C2  UNK     1      19.589  -2.755  36.262  1.00  0.00     0.108 A 
HETATM    6  C4  UNK     1      18.885  -2.072  37.172  1.00  0.00     0.037 A 
HETATM    7  C1  UNK     1      18.436  -0.718  36.888  1.00  0.00    -0.001 A 
HETATM    8  C3  UNK     1      18.751  -0.150  35.657  1.00  0.00     0.089 A 
HETATM    9  C7  UNK     1      17.699   0.030  37.808  1.00  0.00     0.014 A 
HETATM   10  O1  UNK     1      19.493  -0.873  34.703  1.00  0.00    -0.274 OA
HETATM   11  C9  UNK     1      18.351   1.142  35.323  1.00  0.00     0.038 A 
HETATM   12  C8  UNK     1      19.936  -2.170  34.948  1.00  0.00     0.304 A 
HETATM   13  O4  UNK     1      20.581  -2.793  34.110  1.00  0.00    -0.259 OA
HETATM   14  C13 UNK     1      17.616   1.882  36.246  1.00  0.00     0.003 A 
HETATM   15  C10 UNK     1      17.291   1.328  37.486  1.00  0.00     0.001 A 
ENDBRANCH   3   5
BRANCH   2  16
HETATM   16  C5  UNK     1      18.975  -6.374  37.050  1.00  0.00     0.035 A 
HETATM   17  C11 UNK     1      18.624  -7.317  36.098  1.00  0.00     0.032 A 
HETATM   18  C15 UNK     1      18.663  -8.671  36.431  1.00  0.00     0.039 A 
HETATM   19  C14 UNK     1      19.053  -9.063  37.711  1.00  0.00     0.075 A 
HETATM   20  C16 UNK     1      19.404  -8.102  38.659  1.00  0.00     0.039 A 
HETATM   21  C12 UNK     1      19.364  -6.748  38.326  1.00  0.00     0.032 A 
BRANCH  19  22
HETATM   22  O2  UNK     1      19.091 -10.385  38.034  1.00  0.00    -0.290 OA
BRANCH  22  23
HETATM   23  C17 UNK     1      20.259 -11.113  37.675  1.00  0.00     0.505 C 
HETATM   24  F1  UNK     1      20.182 -11.382  36.346  1.00  0.00    -0.184 F 
HETATM   25  F2  UNK     1      21.346 -10.322  37.846  1.00  0.00    -0.184 F 
ENDBRANCH  22  23
ENDBRANCH  19  22
ENDBRANCH   2  16
TORSDOF 4
ENDMDL
MODEL 3
REMARK VINA RESULT:      -8.7      1.301      2.377
REMARK  4 active torsions:
REMARK  status: ('A' for Active; 'I' for Inactive)
REMARK    1  A    between atoms: C14_21  and  O2_4 
REMARK    2  A    between atoms: C17_24  and  O2_4 
REMARK    3  A    between atoms: C5_12  and  N1_7 
REMARK       I    between atoms: C6_13  and  N1_7 
REMARK    4  A    between atoms: C2_9  and  C6_13 
ROOT
HETATM    1  O3  UNK     1      18.534   4.524  30.135  1.00  0.00    -0.267 OA
HETATM    2  N1  UNK     1      17.879   4.602  32.407  1.00  0.00    -0.323 N 
HETATM    3  C6  UNK     1      18.349   4.020  31.240  1.00  0.00     0.262 C 
HETATM    4  H3  UNK     1      17.810   4.020  33.239  1.00  0.00     0.169 HD
ENDROOT
BRANCH   3   5
HETATM    5  C2  UNK     1      18.658   2.593  31.390  1.00  0.00     0.108 A 
HETATM    6  C4  UNK     1      19.215   1.994  30.331  1.00  0.00     0.037 A 
HETATM    7  C1  UNK     1      19.557   0.581  30.383  1.00  0.00    -0.001 A 
HETATM    8  C3  UNK     1      19.295  -0.132  31.550  1.00  0.00     0.089 A 
HETATM    9  C7  UNK     1      20.140  -0.085  29.302  1.00  0.00     0.014 A 
HETATM   10  O1  UNK     1      18.709   0.504  32.661  1.00  0.00    -0.274 OA
HETATM   11  C9  UNK     1      19.599  -1.488  31.664  1.00  0.00     0.038 A 
HETATM   12  C8  UNK     1      18.371   1.854  32.640  1.00  0.00     0.304 A 
HETATM   13  O4  UNK     1      17.860   2.400  33.613  1.00  0.00    -0.259 OA
HETATM   14  C13 UNK     1      20.179  -2.144  30.581  1.00  0.00     0.003 A 
HETATM   15  C10 UNK     1      20.450  -1.444  29.403  1.00  0.00     0.001 A 
ENDBRANCH   3   5
BRANCH   2  16
HETATM   16  C5  UNK     1      17.490   5.946  32.608  1.00  0.00     0.035 A 
HETATM   17  C11 UNK     1      16.200   6.335  32.286  1.00  0.00     0.032 A 
HETATM   18  C15 UNK     1      15.817   7.662  32.484  1.00  0.00     0.039 A 
HETATM   19  C14 UNK     1      16.730   8.581  33.002  1.00  0.00     0.075 A 
HETATM   20  C16 UNK     1      18.025   8.174  33.322  1.00  0.00     0.039 A 
HETATM   21  C12 UNK     1      18.407   6.848  33.123  1.00  0.00     0.032 A 
BRANCH  19  22
HETATM   22  O2  UNK     1      16.355   9.875  33.194  1.00  0.00    -0.290 OA
BRANCH  22  23
HETATM   23  C17 UNK     1      15.598  10.170  34.362  1.00  0.00     0.505 C 
HETATM   24  F1  UNK     1      14.284  10.093  34.029  1.00  0.00    -0.184 F 
HETATM   25  F2  UNK     1      15.817   9.207  35.290  1.00  0.00    -0.184 F 
ENDBRANCH  22  23
ENDBRANCH  19  22
ENDBRANCH   2  16
TORSDOF 4
ENDMDL
MODEL 4
REMARK VINA RESULT:      -8.6      8.135     10.174
REMARK  4 active torsions:
REMARK  status: ('A' for Active; 'I' for Inactive)
REMARK    1  A    between atoms: C14_21  and  O2_4 
REMARK    2  A    between atoms: C17_24  and  O2_4 
REMARK    3  A    between atoms: C5_12  and  N1_7 
REMARK       I    between atoms: C6_13  and  N1_7 
REMARK    4  A    between atoms: C2_9  and  C6_13 
ROOT
HETATM    1  O3  UNK     1      21.288  -3.984  37.198  1.00  0.00    -0.267 OA
HETATM    2  N1  UNK     1      19.014  -3.840  36.557  1.00  0.00    -0.323 N 
HETATM    3  C6  UNK     1      20.201  -4.471  36.895  1.00  0.00     0.262 C 
HETATM    4  H3  UNK     1      18.204  -4.420  36.352  1.00  0.00     0.169 HD
ENDROOT
BRANCH   3   5
HETATM    5  C2  UNK     1      20.102  -5.936  36.877  1.00  0.00     0.108 A 
HETATM    6  C4  UNK     1      19.966  -6.535  38.065  1.00  0.00     0.037 A 
HETATM    7  C1  UNK     1      19.860  -7.983  38.150  1.00  0.00    -0.001 A 
HETATM    8  C3  UNK     1      19.903  -8.730  36.976  1.00  0.00     0.089 A 
HETATM    9  C7  UNK     1      19.717  -8.650  39.368  1.00  0.00     0.014 A 
HETATM   10  O1  UNK     1      20.046  -8.094  35.728  1.00  0.00    -0.274 OA
HETATM   11  C9  UNK     1      19.807 -10.120  36.988  1.00  0.00     0.038 A 
HETATM   12  C8  UNK     1      20.149  -6.710  35.616  1.00  0.00     0.304 A 
HETATM   13  O4  UNK     1      20.275  -6.165  34.524  1.00  0.00    -0.259 OA
HETATM   14  C13 UNK     1      19.665 -10.777  38.208  1.00  0.00     0.003 A 
HETATM   15  C10 UNK     1      19.620 -10.044  39.396  1.00  0.00     0.001 A 
ENDBRANCH   3   5
BRANCH   2  16
HETATM   16  C5  UNK     1      18.766  -2.450  36.476  1.00  0.00     0.035 A 
HETATM   17  C11 UNK     1      18.133  -1.812  37.530  1.00  0.00     0.032 A 
HETATM   18  C15 UNK     1      17.887  -0.441  37.450  1.00  0.00     0.039 A 
HETATM   19  C14 UNK     1      18.278   0.272  36.316  1.00  0.00     0.075 A 
HETATM   20  C16 UNK     1      18.914  -0.385  35.264  1.00  0.00     0.039 A 
HETATM   21  C12 UNK     1      19.159  -1.756  35.344  1.00  0.00     0.032 A 
BRANCH  19  22
HETATM   22  O2  UNK     1      18.037   1.609  36.239  1.00  0.00    -0.290 OA
BRANCH  22  23
HETATM   23  C17 UNK     1      18.844   2.368  35.346  1.00  0.00     0.505 C 
HETATM   24  F1  UNK     1      18.120   3.450  34.958  1.00  0.00    -0.184 F 
HETATM   25  F2  UNK     1      19.921   2.846  36.016  1.00  0.00    -0.184 F 
ENDBRANCH  22  23
ENDBRANCH  19  22
ENDBRANCH   2  16
TORSDOF 4
ENDMDL
MODEL 5
REMARK VINA RESULT:      -8.4     13.892     16.518
REMARK  4 active torsions:
REMARK  status: ('A' for Active; 'I' for Inactive)
REMARK    1  A    between atoms: C14_21  and  O2_4 
REMARK    2  A    between atoms: C17_24  and  O2_4 
REMARK    3  A    between atoms: C5_12  and  N1_7 
REMARK       I    between atoms: C6_13  and  N1_7 
REMARK    4  A    between atoms: C2_9  and  C6_13 
ROOT
HETATM    1  O3  UNK     1      16.952  -2.183  16.603  1.00  0.00    -0.267 OA
HETATM    2  N1  UNK     1      19.060  -1.147  16.314  1.00  0.00    -0.323 N 
HETATM    3  C6  UNK     1      18.030  -2.031  16.033  1.00  0.00     0.262 C 
HETATM    4  H3  UNK     1      19.878  -1.157  15.711  1.00  0.00     0.169 HD
ENDROOT
BRANCH   3   5
HETATM    5  C2  UNK     1      18.308  -2.893  14.877  1.00  0.00     0.108 A 
HETATM    6  C4  UNK     1      18.139  -4.207  15.065  1.00  0.00     0.037 A 
HETATM    7  C1  UNK     1      18.390  -5.141  13.979  1.00  0.00    -0.001 A 
HETATM    8  C3  UNK     1      18.808  -4.644  12.747  1.00  0.00     0.089 A 
HETATM    9  C7  UNK     1      18.226  -6.520  14.130  1.00  0.00     0.014 A 
HETATM   10  O1  UNK     1      18.984  -3.260  12.556  1.00  0.00    -0.274 OA
HETATM   11  C9  UNK     1      19.065  -5.486  11.667  1.00  0.00     0.038 A 
HETATM   12  C8  UNK     1      18.751  -2.343  13.577  1.00  0.00     0.304 A 
HETATM   13  O4  UNK     1      18.908  -1.139  13.401  1.00  0.00    -0.259 OA
HETATM   14  C13 UNK     1      18.900  -6.860  11.826  1.00  0.00     0.003 A 
HETATM   15  C10 UNK     1      18.481  -7.376  13.054  1.00  0.00     0.001 A 
ENDBRANCH   3   5
BRANCH   2  16
HETATM   16  C5  UNK     1      19.118  -0.188  17.352  1.00  0.00     0.035 A 
HETATM   17  C11 UNK     1      18.993   1.156  17.040  1.00  0.00     0.032 A 
HETATM   18  C15 UNK     1      19.051   2.102  18.064  1.00  0.00     0.039 A 
HETATM   19  C14 UNK     1      19.233   1.691  19.384  1.00  0.00     0.075 A 
HETATM   20  C16 UNK     1      19.356   0.334  19.682  1.00  0.00     0.039 A 
HETATM   21  C12 UNK     1      19.299  -0.612  18.658  1.00  0.00     0.032 A 
BRANCH  19  22
HETATM   22  O2  UNK     1      19.289   2.615  20.382  1.00  0.00    -0.290 OA
BRANCH  22  23
HETATM   23  C17 UNK     1      19.801   2.190  21.639  1.00  0.00     0.505 C 
HETATM   24  F1  UNK     1      21.127   2.482  21.663  1.00  0.00    -0.184 F 
HETATM   25  F2  UNK     1      19.228   2.923  22.624  1.00  0.00    -0.184 F 
ENDBRANCH  22  23
ENDBRANCH  19  22
ENDBRANCH   2  16
TORSDOF 4
ENDMDL
MODEL 6
REMARK VINA RESULT:      -8.4      3.733      9.761
REMARK  4 active torsions:
REMARK  status: ('A' for Active; 'I' for Inactive)
REMARK    1  A    between atoms: C14_21  and  O2_4 
REMARK    2  A    between atoms: C17_24  and  O2_4 
REMARK    3  A    between atoms: C5_12  and  N1_7 
REMARK       I    between atoms: C6_13  and  N1_7 
REMARK    4  A    between atoms: C2_9  and  C6_13 
ROOT
HETATM    1  O3  UNK     1      16.134   8.267  30.847  1.00  0.00    -0.267 OA
HETATM    2  N1  UNK     1      17.409   7.132  32.487  1.00  0.00    -0.323 N 
HETATM    3  C6  UNK     1      16.602   8.137  31.976  1.00  0.00     0.262 C 
HETATM    4  H3  UNK     1      17.685   7.189  33.464  1.00  0.00     0.169 HD
ENDROOT
BRANCH   3   5
HETATM    5  C2  UNK     1      16.285   9.179  32.961  1.00  0.00     0.108 A 
HETATM    6  C4  UNK     1      15.022   9.620  32.968  1.00  0.00     0.037 A 
HETATM    7  C1  UNK     1      14.611  10.653  33.907  1.00  0.00    -0.001 A 
HETATM    8  C3  UNK     1      15.552  11.169  34.793  1.00  0.00     0.089 A 
HETATM    9  C7  UNK     1      13.304  11.143  33.950  1.00  0.00     0.014 A 
HETATM   10  O1  UNK     1      16.880  10.700  34.780  1.00  0.00    -0.274 OA
HETATM   11  C9  UNK     1      15.223  12.159  35.717  1.00  0.00     0.038 A 
HETATM   12  C8  UNK     1      17.302   9.714  33.893  1.00  0.00     0.304 A 
HETATM   13  O4  UNK     1      18.461   9.312  33.889  1.00  0.00    -0.259 OA
HETATM   14  C13 UNK     1      13.917  12.643  35.753  1.00  0.00     0.003 A 
HETATM   15  C10 UNK     1      12.960  12.136  34.872  1.00  0.00     0.001 A 
ENDBRANCH   3   5
BRANCH   2  16
HETATM   16  C5  UNK     1      17.898   5.989  31.813  1.00  0.00     0.035 A 
HETATM   17  C11 UNK     1      17.605   4.730  32.311  1.00  0.00     0.032 A 
HETATM   18  C15 UNK     1      18.089   3.603  31.646  1.00  0.00     0.039 A 
HETATM   19  C14 UNK     1      18.860   3.751  30.493  1.00  0.00     0.075 A 
HETATM   20  C16 UNK     1      19.146   5.025  30.004  1.00  0.00     0.039 A 
HETATM   21  C12 UNK     1      18.662   6.152  30.669  1.00  0.00     0.032 A 
BRANCH  19  22
HETATM   22  O2  UNK     1      19.331   2.651  29.846  1.00  0.00    -0.290 OA
BRANCH  22  23
HETATM   23  C17 UNK     1      18.374   1.780  29.254  1.00  0.00     0.505 C 
HETATM   24  F1  UNK     1      17.644   2.511  28.373  1.00  0.00    -0.184 F 
HETATM   25  F2  UNK     1      19.021   0.836  28.528  1.00  0.00    -0.184 F 
ENDBRANCH  22  23
ENDBRANCH  19  22
ENDBRANCH   2  16
TORSDOF 4
ENDMDL
MODEL 7
REMARK VINA RESULT:      -8.3      4.254      9.060
REMARK  4 active torsions:
REMARK  status: ('A' for Active; 'I' for Inactive)
REMARK    1  A    between atoms: C14_21  and  O2_4 
REMARK    2  A    between atoms: C17_24  and  O2_4 
REMARK    3  A    between atoms: C5_12  and  N1_7 
REMARK       I    between atoms: C6_13  and  N1_7 
REMARK    4  A    between atoms: C2_9  and  C6_13 
ROOT
HETATM    1  O3  UNK     1      19.295   5.960  30.854  1.00  0.00    -0.267 OA
HETATM    2  N1  UNK     1      17.889   4.245  31.677  1.00  0.00    -0.323 N 
HETATM    3  C6  UNK     1      18.406   5.527  31.583  1.00  0.00     0.262 C 
HETATM    4  H3  UNK     1      17.132   4.079  32.337  1.00  0.00     0.169 HD
ENDROOT
BRANCH   3   5
HETATM    5  C2  UNK     1      17.771   6.475  32.508  1.00  0.00     0.108 A 
HETATM    6  C4  UNK     1      16.617   7.015  32.101  1.00  0.00     0.037 A 
HETATM    7  C1  UNK     1      15.913   7.966  32.947  1.00  0.00    -0.001 A 
HETATM    8  C3  UNK     1      16.462   8.301  34.182  1.00  0.00     0.089 A 
HETATM    9  C7  UNK     1      14.707   8.555  32.563  1.00  0.00     0.014 A 
HETATM   10  O1  UNK     1      17.677   7.729  34.605  1.00  0.00    -0.274 OA
HETATM   11  C9  UNK     1      15.838   9.205  35.040  1.00  0.00     0.038 A 
HETATM   12  C8  UNK     1      18.372   6.816  33.816  1.00  0.00     0.304 A 
HETATM   13  O4  UNK     1      19.431   6.323  34.193  1.00  0.00    -0.259 OA
HETATM   14  C13 UNK     1      14.635   9.788  34.649  1.00  0.00     0.003 A 
HETATM   15  C10 UNK     1      14.070   9.463  33.414  1.00  0.00     0.001 A 
ENDBRANCH   3   5
BRANCH   2  16
HETATM   16  C5  UNK     1      18.271   3.101  30.939  1.00  0.00     0.035 A 
HETATM   17  C11 UNK     1      18.882   2.044  31.593  1.00  0.00     0.032 A 
HETATM   18  C15 UNK     1      19.260   0.916  30.863  1.00  0.00     0.039 A 
HETATM   19  C14 UNK     1      19.021   0.861  29.491  1.00  0.00     0.075 A 
HETATM   20  C16 UNK     1      18.403   1.933  28.847  1.00  0.00     0.039 A 
HETATM   21  C12 UNK     1      18.027   3.061  29.576  1.00  0.00     0.032 A 
BRANCH  19  22
HETATM   22  O2  UNK     1      19.390  -0.240  28.780  1.00  0.00    -0.290 OA
BRANCH  22  23
HETATM   23  C17 UNK     1      20.436  -1.042  29.314  1.00  0.00     0.505 C 
HETATM   24  F1  UNK     1      20.048  -2.340  29.217  1.00  0.00    -0.184 F 
HETATM   25  F2  UNK     1      21.538  -0.910  28.537  1.00  0.00    -0.184 F 
ENDBRANCH  22  23
ENDBRANCH  19  22
ENDBRANCH   2  16
TORSDOF 4
ENDMDL
MODEL 8
REMARK VINA RESULT:      -8.3     15.279     16.837
REMARK  4 active torsions:
REMARK  status: ('A' for Active; 'I' for Inactive)
REMARK    1  A    between atoms: C14_21  and  O2_4 
REMARK    2  A    between atoms: C17_24  and  O2_4 
REMARK    3  A    between atoms: C5_12  and  N1_7 
REMARK       I    between atoms: C6_13  and  N1_7 
REMARK    4  A    between atoms: C2_9  and  C6_13 
ROOT
HETATM    1  O3  UNK     1      26.362  -9.136  39.028  1.00  0.00    -0.267 OA
HETATM    2  N1  UNK     1      24.881  -7.355  38.547  1.00  0.00    -0.323 N 
HETATM    3  C6  UNK     1      26.105  -7.960  38.780  1.00  0.00     0.262 C 
HETATM    4  H3  UNK     1      24.870  -6.359  38.338  1.00  0.00     0.169 HD
ENDROOT
BRANCH   3   5
HETATM    5  C2  UNK     1      27.235  -7.024  38.712  1.00  0.00     0.108 A 
HETATM    6  C4  UNK     1      28.449  -7.570  38.579  1.00  0.00     0.037 A 
HETATM    7  C1  UNK     1      29.630  -6.725  38.504  1.00  0.00    -0.001 A 
HETATM    8  C3  UNK     1      29.473  -5.343  38.572  1.00  0.00     0.089 A 
HETATM    9  C7  UNK     1      30.916  -7.252  38.365  1.00  0.00     0.014 A 
HETATM   10  O1  UNK     1      28.193  -4.774  38.711  1.00  0.00    -0.274 OA
HETATM   11  C9  UNK     1      30.564  -4.478  38.505  1.00  0.00     0.038 A 
HETATM   12  C8  UNK     1      27.045  -5.558  38.786  1.00  0.00     0.304 A 
HETATM   13  O4  UNK     1      25.934  -5.053  38.908  1.00  0.00    -0.259 OA
HETATM   14  C13 UNK     1      31.843  -5.012  38.367  1.00  0.00     0.003 A 
HETATM   15  C10 UNK     1      32.019  -6.396  38.297  1.00  0.00     0.001 A 
ENDBRANCH   3   5
BRANCH   2  16
HETATM   16  C5  UNK     1      23.603  -7.961  38.540  1.00  0.00     0.035 A 
HETATM   17  C11 UNK     1      23.137  -8.547  37.375  1.00  0.00     0.032 A 
HETATM   18  C15 UNK     1      21.875  -9.144  37.368  1.00  0.00     0.039 A 
HETATM   19  C14 UNK     1      21.099  -9.146  38.527  1.00  0.00     0.075 A 
HETATM   20  C16 UNK     1      21.584  -8.552  39.692  1.00  0.00     0.039 A 
HETATM   21  C12 UNK     1      22.844  -7.955  39.698  1.00  0.00     0.032 A 
BRANCH  19  22
HETATM   22  O2  UNK     1      19.869  -9.729  38.519  1.00  0.00    -0.290 OA
BRANCH  22  23
HETATM   23  C17 UNK     1      19.790 -11.083  38.091  1.00  0.00     0.505 C 
HETATM   24  F1  UNK     1      19.068 -11.765  39.018  1.00  0.00    -0.184 F 
HETATM   25  F2  UNK     1      19.086 -11.143  36.934  1.00  0.00    -0.184 F 
ENDBRANCH  22  23
ENDBRANCH  19  22
ENDBRANCH   2  16
TORSDOF 4
ENDMDL
MODEL 9
REMARK VINA RESULT:      -8.2      7.967     11.184
REMARK  4 active torsions:
REMARK  status: ('A' for Active; 'I' for Inactive)
REMARK    1  A    between atoms: C14_21  and  O2_4 
REMARK    2  A    between atoms: C17_24  and  O2_4 
REMARK    3  A    between atoms: C5_12  and  N1_7 
REMARK       I    between atoms: C6_13  and  N1_7 
REMARK    4  A    between atoms: C2_9  and  C6_13 
ROOT
HETATM    1  O3  UNK     1      18.805  -1.697  36.442  1.00  0.00    -0.267 OA
HETATM    2  N1  UNK     1      19.795  -3.545  35.343  1.00  0.00    -0.323 N 
HETATM    3  C6  UNK     1      19.261  -2.271  35.456  1.00  0.00     0.262 C 
HETATM    4  H3  UNK     1      20.142  -3.841  34.434  1.00  0.00     0.169 HD
ENDROOT
BRANCH   3   5
HETATM    5  C2  UNK     1      19.257  -1.533  34.187  1.00  0.00     0.108 A 
HETATM    6  C4  UNK     1      19.861  -2.130  33.152  1.00  0.00     0.037 A 
HETATM    7  C1  UNK     1      19.910  -1.476  31.854  1.00  0.00    -0.001 A 
HETATM    8  C3  UNK     1      19.319  -0.224  31.709  1.00  0.00     0.089 A 
HETATM    9  C7  UNK     1      20.529  -2.063  30.748  1.00  0.00     0.014 A 
HETATM   10  O1  UNK     1      18.685   0.399  32.800  1.00  0.00    -0.274 OA
HETATM   11  C9  UNK     1      19.331   0.455  30.491  1.00  0.00     0.038 A 
HETATM   12  C8  UNK     1      18.623  -0.202  34.054  1.00  0.00     0.304 A 
HETATM   13  O4  UNK     1      18.069   0.350  35.000  1.00  0.00    -0.259 OA
HETATM   14  C13 UNK     1      19.951  -0.137  29.393  1.00  0.00     0.003 A 
HETATM   15  C10 UNK     1      20.548  -1.393  29.521  1.00  0.00     0.001 A 
ENDBRANCH   3   5
BRANCH   2  16
HETATM   16  C5  UNK     1      19.945  -4.513  36.363  1.00  0.00     0.035 A 
HETATM   17  C11 UNK     1      19.048  -5.566  36.437  1.00  0.00     0.032 A 
HETATM   18  C15 UNK     1      19.197  -6.520  37.444  1.00  0.00     0.039 A 
HETATM   19  C14 UNK     1      20.241  -6.408  38.362  1.00  0.00     0.075 A 
HETATM   20  C16 UNK     1      21.137  -5.343  38.273  1.00  0.00     0.039 A 
HETATM   21  C12 UNK     1      20.987  -4.389  37.268  1.00  0.00     0.032 A 
BRANCH  19  22
HETATM   22  O2  UNK     1      20.385  -7.340  39.344  1.00  0.00    -0.290 OA
BRANCH  22  23
HETATM   23  C17 UNK     1      21.566  -8.132  39.325  1.00  0.00     0.505 C 
HETATM   24  F1  UNK     1      22.376  -7.684  40.320  1.00  0.00    -0.184 F 
HETATM   25  F2  UNK     1      21.249  -9.412  39.634  1.00  0.00    -0.184 F 
ENDBRANCH  22  23
ENDBRANCH  19  22
ENDBRANCH   2  16
TORSDOF 4
ENDMDL
MODEL 10
REMARK VINA RESULT:      -8.2      7.936     10.074
REMARK  4 active torsions:
REMARK  status: ('A' for Active; 'I' for Inactive)
REMARK    1  A    between atoms: C14_21  and  O2_4 
REMARK    2  A    between atoms: C17_24  and  O2_4 
REMARK    3  A    between atoms: C5_12  and  N1_7 
REMARK       I    between atoms: C6_13  and  N1_7 
REMARK    4  A    between atoms: C2_9  and  C6_13 
ROOT
HETATM    1  O3  UNK     1      21.097  -4.096  36.844  1.00  0.00    -0.267 OA
HETATM    2  N1  UNK     1      18.758  -3.816  36.625  1.00  0.00    -0.323 N 
HETATM    3  C6  UNK     1      19.945  -4.517  36.766  1.00  0.00     0.262 C 
HETATM    4  H3  UNK     1      17.889  -4.345  36.596  1.00  0.00     0.169 HD
ENDROOT
BRANCH   3   5
HETATM    5  C2  UNK     1      19.754  -5.971  36.826  1.00  0.00     0.108 A 
HETATM    6  C4  UNK     1      20.865  -6.716  36.790  1.00  0.00     0.037 A 
HETATM    7  C1  UNK     1      20.778  -8.167  36.843  1.00  0.00    -0.001 A 
HETATM    8  C3  UNK     1      19.523  -8.763  36.932  1.00  0.00     0.089 A 
HETATM    9  C7  UNK     1      21.911  -8.983  36.808  1.00  0.00     0.014 A 
HETATM   10  O1  UNK     1      18.357  -7.974  36.970  1.00  0.00    -0.274 OA
HETATM   11  C9  UNK     1      19.371 -10.147  36.986  1.00  0.00     0.038 A 
HETATM   12  C8  UNK     1      18.410  -6.583  36.920  1.00  0.00     0.304 A 
HETATM   13  O4  UNK     1      17.389  -5.904  36.953  1.00  0.00    -0.259 OA
HETATM   14  C13 UNK     1      20.506 -10.953  36.951  1.00  0.00     0.003 A 
HETATM   15  C10 UNK     1      21.773 -10.373  36.862  1.00  0.00     0.001 A 
ENDBRANCH   3   5
BRANCH   2  16
HETATM   16  C5  UNK     1      18.584  -2.416  36.534  1.00  0.00     0.035 A 
HETATM   17  C11 UNK     1      18.995  -1.754  35.389  1.00  0.00     0.032 A 
HETATM   18  C15 UNK     1      18.824  -0.372  35.300  1.00  0.00     0.039 A 
HETATM   19  C14 UNK     1      18.246   0.328  36.359  1.00  0.00     0.075 A 
HETATM   20  C16 UNK     1      17.838  -0.353  37.505  1.00  0.00     0.039 A 
HETATM   21  C12 UNK     1      18.009  -1.734  37.594  1.00  0.00     0.032 A 
BRANCH  19  22
HETATM   22  O2  UNK     1      18.080   1.676  36.271  1.00  0.00    -0.290 OA
BRANCH  22  23
HETATM   23  C17 UNK     1      18.906   2.378  35.349  1.00  0.00     0.505 C 
HETATM   24  F1  UNK     1      18.187   3.426  34.870  1.00  0.00    -0.184 F 
HETATM   25  F2  UNK     1      19.963   2.907  36.012  1.00  0.00    -0.184 F 
ENDBRANCH  22  23
ENDBRANCH  19  22
ENDBRANCH   2  16
TORSDOF 4
ENDMDL
