MODEL 1
REMARK VINA RESULT:      -9.6      0.000      0.000
REMARK  3 active torsions:
REMARK  status: ('A' for Active; 'I' for Inactive)
REMARK       I    between atoms: C11_18  and  N1_6 
REMARK    1  A    between atoms: C4_11  and  N1_6 
REMARK    2  A    between atoms: C11_18  and  C12_19 
REMARK    3  A    between atoms: C13_20  and  C15_22 
ROOT
HETATM    1  O4  UNK     1      19.494   6.097  31.285  1.00  0.00    -0.266 OA
HETATM    2  N1  UNK     1      17.631   4.705  31.421  1.00  0.00    -0.322 N 
HETATM    3  C11 UNK     1      18.289   5.950  31.473  1.00  0.00     0.277 C 
HETATM    4  H5  UNK     1      16.629   4.714  31.601  1.00  0.00     0.169 HD
ENDROOT
BRANCH   2   5
HETATM    5  C4  UNK     1      18.174   3.447  31.163  1.00  0.00     0.037 A 
HETATM    6  C5  UNK     1      18.285   2.509  32.184  1.00  0.00     0.067 A 
HETATM    7  C2  UNK     1      18.831   1.256  31.903  1.00  0.00     0.092 A 
HETATM    8  C1  UNK     1      19.272   0.905  30.627  1.00  0.00     0.004 A 
HETATM    9  O1  UNK     1      18.916   0.349  32.978  1.00  0.00    -0.275 OA
HETATM   10  C3  UNK     1      19.833  -0.438  30.421  1.00  0.00    -0.043 A 
HETATM   11  C6  UNK     1      19.152   1.862  29.610  1.00  0.00     0.017 A 
HETATM   12  C8  UNK     1      19.902  -1.279  31.462  1.00  0.00     0.090 A 
HETATM   13  C9  UNK     1      20.317  -0.845  29.060  1.00  0.00     0.049 C 
HETATM   14  C10 UNK     1      19.440  -0.923  32.815  1.00  0.00     0.288 A 
HETATM   15  O3  UNK     1      19.520  -1.720  33.743  1.00  0.00    -0.260 OA
HETATM   16  C7  UNK     1      18.607   3.123  29.877  1.00  0.00     0.030 A 
ENDBRANCH   2   5
BRANCH   3  17
HETATM   17  C12 UNK     1      17.430   7.098  31.814  1.00  0.00     0.155 A 
HETATM   18  N2  UNK     1      16.750   7.731  30.854  1.00  0.00    -0.122 NA
HETATM   19  O2  UNK     1      16.056   8.741  31.511  1.00  0.00    -0.211 OA
HETATM   20  C13 UNK     1      16.336   8.686  32.838  1.00  0.00     0.120 A 
HETATM   21  C14 UNK     1      17.206   7.658  33.084  1.00  0.00     0.080 A 
BRANCH  20  22
HETATM   22  C15 UNK     1      15.776   9.594  33.772  1.00  0.00     0.041 A 
HETATM   23  S1  UNK     1      16.623  11.009  34.232  1.00  0.00    -0.099 SA
HETATM   24  C18 UNK     1      15.360  11.488  35.284  1.00  0.00     0.050 A 
HETATM   25  C17 UNK     1      14.317  10.589  35.283  1.00  0.00     0.008 A 
HETATM   26  C16 UNK     1      14.557   9.491  34.408  1.00  0.00     0.022 A 
ENDBRANCH  20  22
ENDBRANCH   3  17
TORSDOF 3
ENDMDL
MODEL 2
REMARK VINA RESULT:      -9.6      3.030      9.765
REMARK  3 active torsions:
REMARK  status: ('A' for Active; 'I' for Inactive)
REMARK       I    between atoms: C11_18  and  N1_6 
REMARK    1  A    between atoms: C4_11  and  N1_6 
REMARK    2  A    between atoms: C11_18  and  C12_19 
REMARK    3  A    between atoms: C13_20  and  C15_22 
ROOT
HETATM    1  O4  UNK     1      18.249   6.338  30.888  1.00  0.00    -0.266 OA
HETATM    2  N1  UNK     1      17.176   5.848  32.898  1.00  0.00    -0.322 N 
HETATM    3  C11 UNK     1      17.896   5.518  31.733  1.00  0.00     0.277 C 
HETATM    4  H5  UNK     1      16.938   5.076  33.517  1.00  0.00     0.169 HD
ENDROOT
BRANCH   2   5
HETATM    5  C4  UNK     1      16.734   7.102  33.319  1.00  0.00     0.037 A 
HETATM    6  C5  UNK     1      17.603   8.188  33.310  1.00  0.00     0.067 A 
HETATM    7  C2  UNK     1      17.140   9.435  33.735  1.00  0.00     0.092 A 
HETATM    8  C1  UNK     1      15.829   9.633  34.170  1.00  0.00     0.004 A 
HETATM    9  O1  UNK     1      18.065  10.496  33.704  1.00  0.00    -0.275 OA
HETATM   10  C3  UNK     1      15.426  10.981  34.599  1.00  0.00    -0.043 A 
HETATM   11  C6  UNK     1      14.968   8.527  34.170  1.00  0.00     0.017 A 
HETATM   12  C8  UNK     1      16.329  11.971  34.558  1.00  0.00     0.090 A 
HETATM   13  C9  UNK     1      14.024  11.227  35.072  1.00  0.00     0.049 C 
HETATM   14  C10 UNK     1      17.715  11.776  34.102  1.00  0.00     0.288 A 
HETATM   15  O3  UNK     1      18.512  12.707  34.079  1.00  0.00    -0.260 OA
HETATM   16  C7  UNK     1      15.418   7.272  33.748  1.00  0.00     0.030 A 
ENDBRANCH   2   5
BRANCH   3  17
HETATM   17  C12 UNK     1      18.178   4.082  31.557  1.00  0.00     0.155 A 
HETATM   18  N2  UNK     1      17.923   3.226  32.551  1.00  0.00    -0.122 NA
HETATM   19  O2  UNK     1      18.297   1.981  32.057  1.00  0.00    -0.211 OA
HETATM   20  C13 UNK     1      18.763   2.123  30.791  1.00  0.00     0.120 A 
HETATM   21  C14 UNK     1      18.709   3.441  30.424  1.00  0.00     0.080 A 
BRANCH  20  22
HETATM   22  C15 UNK     1      19.222   1.024  30.022  1.00  0.00     0.041 A 
HETATM   23  S1  UNK     1      20.348  -0.089  30.674  1.00  0.00    -0.099 SA
HETATM   24  C18 UNK     1      20.361  -1.006  29.228  1.00  0.00     0.050 A 
HETATM   25  C17 UNK     1      19.525  -0.475  28.271  1.00  0.00     0.008 A 
HETATM   26  C16 UNK     1      18.866   0.702  28.730  1.00  0.00     0.022 A 
ENDBRANCH  20  22
ENDBRANCH   3  17
TORSDOF 3
ENDMDL
MODEL 3
REMARK VINA RESULT:      -9.5      1.442      2.115
REMARK  3 active torsions:
REMARK  status: ('A' for Active; 'I' for Inactive)
REMARK       I    between atoms: C11_18  and  N1_6 
REMARK    1  A    between atoms: C4_11  and  N1_6 
REMARK    2  A    between atoms: C11_18  and  C12_19 
REMARK    3  A    between atoms: C13_20  and  C15_22 
ROOT
HETATM    1  O4  UNK     1      19.505   5.738  31.967  1.00  0.00    -0.266 OA
HETATM    2  N1  UNK     1      17.575   4.439  31.825  1.00  0.00    -0.322 N 
HETATM    3  C11 UNK     1      18.279   5.657  31.912  1.00  0.00     0.277 C 
HETATM    4  H5  UNK     1      16.559   4.505  31.792  1.00  0.00     0.169 HD
ENDROOT
BRANCH   2   5
HETATM    5  C4  UNK     1      18.086   3.142  31.785  1.00  0.00     0.037 A 
HETATM    6  C5  UNK     1      18.641   2.646  30.610  1.00  0.00     0.067 A 
HETATM    7  C2  UNK     1      19.147   1.345  30.592  1.00  0.00     0.092 A 
HETATM    8  C1  UNK     1      19.118   0.519  31.716  1.00  0.00     0.004 A 
HETATM    9  O1  UNK     1      19.696   0.899  29.374  1.00  0.00    -0.275 OA
HETATM   10  C3  UNK     1      19.675  -0.837  31.607  1.00  0.00    -0.043 A 
HETATM   11  C6  UNK     1      18.557   1.037  32.891  1.00  0.00     0.017 A 
HETATM   12  C8  UNK     1      20.191  -1.234  30.435  1.00  0.00     0.090 A 
HETATM   13  C9  UNK     1      19.659  -1.750  32.798  1.00  0.00     0.049 C 
HETATM   14  C10 UNK     1      20.228  -0.374  29.241  1.00  0.00     0.288 A 
HETATM   15  O3  UNK     1      20.708  -0.773  28.186  1.00  0.00    -0.260 OA
HETATM   16  C7  UNK     1      18.045   2.339  32.924  1.00  0.00     0.030 A 
ENDBRANCH   2   5
BRANCH   3  17
HETATM   17  C12 UNK     1      17.437   6.864  31.977  1.00  0.00     0.155 A 
HETATM   18  N2  UNK     1      17.018   7.445  30.849  1.00  0.00    -0.122 NA
HETATM   19  O2  UNK     1      16.260   8.534  31.266  1.00  0.00    -0.211 OA
HETATM   20  C13 UNK     1      16.245   8.576  32.623  1.00  0.00     0.120 A 
HETATM   21  C14 UNK     1      16.979   7.534  33.125  1.00  0.00     0.080 A 
BRANCH  20  22
HETATM   22  C15 UNK     1      15.551   9.579  33.346  1.00  0.00     0.041 A 
HETATM   23  S1  UNK     1      16.408  10.798  34.190  1.00  0.00    -0.099 SA
HETATM   24  C18 UNK     1      14.953  11.521  34.731  1.00  0.00     0.050 A 
HETATM   25  C17 UNK     1      13.841  10.848  34.276  1.00  0.00     0.008 A 
HETATM   26  C16 UNK     1      14.187   9.723  33.474  1.00  0.00     0.022 A 
ENDBRANCH  20  22
ENDBRANCH   3  17
TORSDOF 3
ENDMDL
MODEL 4
REMARK VINA RESULT:      -9.4      3.026      9.776
REMARK  3 active torsions:
REMARK  status: ('A' for Active; 'I' for Inactive)
REMARK       I    between atoms: C11_18  and  N1_6 
REMARK    1  A    between atoms: C4_11  and  N1_6 
REMARK    2  A    between atoms: C11_18  and  C12_19 
REMARK    3  A    between atoms: C13_20  and  C15_22 
ROOT
HETATM    1  O4  UNK     1      18.556   6.378  30.552  1.00  0.00    -0.266 OA
HETATM    2  N1  UNK     1      17.527   6.052  32.617  1.00  0.00    -0.322 N 
HETATM    3  C11 UNK     1      18.177   5.621  31.443  1.00  0.00     0.277 C 
HETATM    4  H5  UNK     1      17.256   5.325  33.277  1.00  0.00     0.169 HD
ENDROOT
BRANCH   2   5
HETATM    5  C4  UNK     1      17.194   7.352  32.998  1.00  0.00     0.037 A 
HETATM    6  C5  UNK     1      15.894   7.817  32.831  1.00  0.00     0.067 A 
HETATM    7  C2  UNK     1      15.582   9.122  33.219  1.00  0.00     0.092 A 
HETATM    8  C1  UNK     1      16.532   9.981  33.772  1.00  0.00     0.004 A 
HETATM    9  O1  UNK     1      14.250   9.536  33.025  1.00  0.00    -0.275 OA
HETATM   10  C3  UNK     1      16.115  11.338  34.153  1.00  0.00    -0.043 A 
HETATM   11  C6  UNK     1      17.836   9.493  33.933  1.00  0.00     0.017 A 
HETATM   12  C8  UNK     1      14.841  11.705  33.958  1.00  0.00     0.090 A 
HETATM   13  C9  UNK     1      17.113  12.286  34.751  1.00  0.00     0.049 C 
HETATM   14  C10 UNK     1      13.828  10.809  33.374  1.00  0.00     0.288 A 
HETATM   15  O3  UNK     1      12.671  11.180  33.211  1.00  0.00    -0.260 OA
HETATM   16  C7  UNK     1      18.163   8.189  33.549  1.00  0.00     0.030 A 
ENDBRANCH   2   5
BRANCH   3  17
HETATM   17  C12 UNK     1      18.346   4.163  31.321  1.00  0.00     0.155 A 
HETATM   18  N2  UNK     1      17.922   3.358  32.300  1.00  0.00    -0.122 NA
HETATM   19  O2  UNK     1      18.230   2.073  31.867  1.00  0.00    -0.211 OA
HETATM   20  C13 UNK     1      18.825   2.141  30.649  1.00  0.00     0.120 A 
HETATM   21  C14 UNK     1      18.923   3.449  30.256  1.00  0.00     0.080 A 
BRANCH  20  22
HETATM   22  C15 UNK     1      19.257   0.987  29.948  1.00  0.00     0.041 A 
HETATM   23  S1  UNK     1      20.324  -0.133  30.681  1.00  0.00    -0.099 SA
HETATM   24  C18 UNK     1      20.331  -1.124  29.285  1.00  0.00     0.050 A 
HETATM   25  C17 UNK     1      19.536  -0.612  28.284  1.00  0.00     0.008 A 
HETATM   26  C16 UNK     1      18.914   0.611  28.667  1.00  0.00     0.022 A 
ENDBRANCH  20  22
ENDBRANCH   3  17
TORSDOF 3
ENDMDL
MODEL 5
REMARK VINA RESULT:      -9.4      7.460     10.862
REMARK  3 active torsions:
REMARK  status: ('A' for Active; 'I' for Inactive)
REMARK       I    between atoms: C11_18  and  N1_6 
REMARK    1  A    between atoms: C4_11  and  N1_6 
REMARK    2  A    between atoms: C11_18  and  C12_19 
REMARK    3  A    between atoms: C13_20  and  C15_22 
ROOT
HETATM    1  O4  UNK     1      20.897  -3.911  36.872  1.00  0.00    -0.266 OA
HETATM    2  N1  UNK     1      18.846  -4.963  36.534  1.00  0.00    -0.322 N 
HETATM    3  C11 UNK     1      19.700  -3.844  36.604  1.00  0.00     0.277 C 
HETATM    4  H5  UNK     1      17.871  -4.775  36.309  1.00  0.00     0.169 HD
ENDROOT
BRANCH   2   5
HETATM    5  C4  UNK     1      19.157  -6.306  36.742  1.00  0.00     0.037 A 
HETATM    6  C5  UNK     1      20.018  -6.967  35.873  1.00  0.00     0.067 A 
HETATM    7  C2  UNK     1      20.316  -8.312  36.100  1.00  0.00     0.092 A 
HETATM    8  C1  UNK     1      19.780  -9.022  37.174  1.00  0.00     0.004 A 
HETATM    9  O1  UNK     1      21.194  -8.926  35.185  1.00  0.00    -0.275 OA
HETATM   10  C3  UNK     1      20.150 -10.436  37.337  1.00  0.00    -0.043 A 
HETATM   11  C6  UNK     1      18.915  -8.339  38.040  1.00  0.00     0.017 A 
HETATM   12  C8  UNK     1      20.987 -10.994  36.452  1.00  0.00     0.090 A 
HETATM   13  C9  UNK     1      19.590 -11.227  38.482  1.00  0.00     0.049 C 
HETATM   14  C10 UNK     1      21.561 -10.256  35.313  1.00  0.00     0.288 A 
HETATM   15  O3  UNK     1      22.324 -10.802  34.523  1.00  0.00    -0.260 OA
HETATM   16  C7  UNK     1      18.607  -6.992  37.825  1.00  0.00     0.030 A 
ENDBRANCH   2   5
BRANCH   3  17
HETATM   17  C12 UNK     1      19.048  -2.544  36.370  1.00  0.00     0.155 A 
HETATM   18  N2  UNK     1      17.899  -2.253  36.987  1.00  0.00    -0.122 NA
HETATM   19  O2  UNK     1      17.570  -0.975  36.550  1.00  0.00    -0.211 OA
HETATM   20  C13 UNK     1      18.524  -0.536  35.690  1.00  0.00     0.120 A 
HETATM   21  C14 UNK     1      19.488  -1.497  35.540  1.00  0.00     0.080 A 
BRANCH  20  22
HETATM   22  C15 UNK     1      18.464   0.740  35.074  1.00  0.00     0.041 A 
HETATM   23  S1  UNK     1      18.875   2.153  35.951  1.00  0.00    -0.099 SA
HETATM   24  C18 UNK     1      18.561   3.150  34.594  1.00  0.00     0.050 A 
HETATM   25  C17 UNK     1      18.155   2.421  33.499  1.00  0.00     0.008 A 
HETATM   26  C16 UNK     1      18.097   1.025  33.777  1.00  0.00     0.022 A 
ENDBRANCH  20  22
ENDBRANCH   3  17
TORSDOF 3
ENDMDL
MODEL 6
REMARK VINA RESULT:      -9.4      7.243     11.268
REMARK  3 active torsions:
REMARK  status: ('A' for Active; 'I' for Inactive)
REMARK       I    between atoms: C11_18  and  N1_6 
REMARK    1  A    between atoms: C4_11  and  N1_6 
REMARK    2  A    between atoms: C11_18  and  C12_19 
REMARK    3  A    between atoms: C13_20  and  C15_22 
ROOT
HETATM    1  O4  UNK     1      20.901  -3.226  36.341  1.00  0.00    -0.266 OA
HETATM    2  N1  UNK     1      19.836  -4.796  34.988  1.00  0.00    -0.322 N 
HETATM    3  C11 UNK     1      20.305  -3.505  35.303  1.00  0.00     0.277 C 
HETATM    4  H5  UNK     1      19.351  -4.897  34.098  1.00  0.00     0.169 HD
ENDROOT
BRANCH   2   5
HETATM    5  C4  UNK     1      19.940  -5.965  35.741  1.00  0.00     0.037 A 
HETATM    6  C5  UNK     1      20.556  -7.090  35.203  1.00  0.00     0.067 A 
HETATM    7  C2  UNK     1      20.651  -8.250  35.975  1.00  0.00     0.092 A 
HETATM    8  C1  UNK     1      20.148  -8.323  37.274  1.00  0.00     0.004 A 
HETATM    9  O1  UNK     1      21.286  -9.356  35.376  1.00  0.00    -0.275 OA
HETATM   10  C3  UNK     1      20.292  -9.585  38.015  1.00  0.00    -0.043 A 
HETATM   11  C6  UNK     1      19.531  -7.179  37.799  1.00  0.00     0.017 A 
HETATM   12  C8  UNK     1      20.900 -10.620  37.419  1.00  0.00     0.090 A 
HETATM   13  C9  UNK     1      19.761  -9.695  39.414  1.00  0.00     0.049 C 
HETATM   14  C10 UNK     1      21.436 -10.558  36.049  1.00  0.00     0.288 A 
HETATM   15  O3  UNK     1      21.986 -11.527  35.538  1.00  0.00    -0.260 OA
HETATM   16  C7  UNK     1      19.429  -6.010  37.038  1.00  0.00     0.030 A 
ENDBRANCH   2   5
BRANCH   3  17
HETATM   17  C12 UNK     1      19.996  -2.466  34.305  1.00  0.00     0.155 A 
HETATM   18  N2  UNK     1      19.337  -1.364  34.673  1.00  0.00    -0.122 NA
HETATM   19  O2  UNK     1      19.217  -0.612  33.510  1.00  0.00    -0.211 OA
HETATM   20  C13 UNK     1      19.804  -1.278  32.483  1.00  0.00     0.120 A 
HETATM   21  C14 UNK     1      20.316  -2.465  32.936  1.00  0.00     0.080 A 
BRANCH  20  22
HETATM   22  C15 UNK     1      19.843  -0.762  31.164  1.00  0.00     0.041 A 
HETATM   23  S1  UNK     1      19.260   0.813  30.824  1.00  0.00    -0.099 SA
HETATM   24  C18 UNK     1      19.642   0.654  29.162  1.00  0.00     0.050 A 
HETATM   25  C17 UNK     1      20.201  -0.571  28.875  1.00  0.00     0.008 A 
HETATM   26  C16 UNK     1      20.317  -1.392  30.034  1.00  0.00     0.022 A 
ENDBRANCH  20  22
ENDBRANCH   3  17
TORSDOF 3
ENDMDL
MODEL 7
REMARK VINA RESULT:      -9.2      6.419     11.450
REMARK  3 active torsions:
REMARK  status: ('A' for Active; 'I' for Inactive)
REMARK       I    between atoms: C11_18  and  N1_6 
REMARK    1  A    between atoms: C4_11  and  N1_6 
REMARK    2  A    between atoms: C11_18  and  C12_19 
REMARK    3  A    between atoms: C13_20  and  C15_22 
ROOT
HETATM    1  O4  UNK     1      21.519  -1.944  35.261  1.00  0.00    -0.266 OA
HETATM    2  N1  UNK     1      19.358  -2.318  34.474  1.00  0.00    -0.322 N 
HETATM    3  C11 UNK     1      20.462  -2.569  35.313  1.00  0.00     0.277 C 
HETATM    4  H5  UNK     1      18.540  -2.910  34.612  1.00  0.00     0.169 HD
ENDROOT
BRANCH   2   5
HETATM    5  C4  UNK     1      19.234  -1.364  33.464  1.00  0.00     0.037 A 
HETATM    6  C5  UNK     1      18.731  -0.100  33.755  1.00  0.00     0.067 A 
HETATM    7  C2  UNK     1      18.616   0.840  32.729  1.00  0.00     0.092 A 
HETATM    8  C1  UNK     1      18.991   0.558  31.415  1.00  0.00     0.004 A 
HETATM    9  O1  UNK     1      18.100   2.102  33.085  1.00  0.00    -0.275 OA
HETATM   10  C3  UNK     1      18.837   1.609  30.399  1.00  0.00    -0.043 A 
HETATM   11  C6  UNK     1      19.497  -0.720  31.143  1.00  0.00     0.017 A 
HETATM   12  C8  UNK     1      18.343   2.800  30.766  1.00  0.00     0.090 A 
HETATM   13  C9  UNK     1      19.231   1.337  28.977  1.00  0.00     0.049 C 
HETATM   14  C10 UNK     1      17.943   3.111  32.149  1.00  0.00     0.288 A 
HETATM   15  O3  UNK     1      17.495   4.213  32.447  1.00  0.00    -0.260 OA
HETATM   16  C7  UNK     1      19.617  -1.673  32.160  1.00  0.00     0.030 A 
ENDBRANCH   2   5
BRANCH   3  17
HETATM   17  C12 UNK     1      20.287  -3.685  36.260  1.00  0.00     0.155 A 
HETATM   18  N2  UNK     1      20.486  -3.488  37.566  1.00  0.00    -0.122 NA
HETATM   19  O2  UNK     1      20.240  -4.722  38.157  1.00  0.00    -0.211 OA
HETATM   20  C13 UNK     1      19.902  -5.619  37.196  1.00  0.00     0.120 A 
HETATM   21  C14 UNK     1      19.918  -5.010  35.970  1.00  0.00     0.080 A 
BRANCH  20  22
HETATM   22  C15 UNK     1      19.594  -6.971  37.492  1.00  0.00     0.041 A 
HETATM   23  S1  UNK     1      19.041  -8.030  36.264  1.00  0.00    -0.099 SA
HETATM   24  C18 UNK     1      18.918  -9.333  37.368  1.00  0.00     0.050 A 
HETATM   25  C17 UNK     1      19.291  -8.968  38.643  1.00  0.00     0.008 A 
HETATM   26  C16 UNK     1      19.682  -7.600  38.715  1.00  0.00     0.022 A 
ENDBRANCH  20  22
ENDBRANCH   3  17
TORSDOF 3
ENDMDL
MODEL 8
REMARK VINA RESULT:      -9.1      3.934      9.455
REMARK  3 active torsions:
REMARK  status: ('A' for Active; 'I' for Inactive)
REMARK       I    between atoms: C11_18  and  N1_6 
REMARK    1  A    between atoms: C4_11  and  N1_6 
REMARK    2  A    between atoms: C11_18  and  C12_19 
REMARK    3  A    between atoms: C13_20  and  C15_22 
ROOT
HETATM    1  O4  UNK     1      17.750   4.303  32.085  1.00  0.00    -0.266 OA
HETATM    2  N1  UNK     1      18.187   4.938  34.284  1.00  0.00    -0.322 N 
HETATM    3  C11 UNK     1      18.034   4.001  33.242  1.00  0.00     0.277 C 
HETATM    4  H5  UNK     1      18.418   4.561  35.202  1.00  0.00     0.169 HD
ENDROOT
BRANCH   2   5
HETATM    5  C4  UNK     1      18.056   6.325  34.230  1.00  0.00     0.037 A 
HETATM    6  C5  UNK     1      16.808   6.916  34.392  1.00  0.00     0.067 A 
HETATM    7  C2  UNK     1      16.699   8.307  34.335  1.00  0.00     0.092 A 
HETATM    8  C1  UNK     1      17.804   9.132  34.121  1.00  0.00     0.004 A 
HETATM    9  O1  UNK     1      15.409   8.847  34.506  1.00  0.00    -0.275 OA
HETATM   10  C3  UNK     1      17.598  10.587  34.077  1.00  0.00    -0.043 A 
HETATM   11  C6  UNK     1      19.054   8.518  33.961  1.00  0.00     0.017 A 
HETATM   12  C8  UNK     1      16.359  11.071  34.243  1.00  0.00     0.090 A 
HETATM   13  C9  UNK     1      18.766  11.500  33.848  1.00  0.00     0.049 C 
HETATM   14  C10 UNK     1      15.184  10.213  34.469  1.00  0.00     0.288 A 
HETATM   15  O3  UNK     1      14.066  10.694  34.617  1.00  0.00    -0.260 OA
HETATM   16  C7  UNK     1      19.178   7.125  34.015  1.00  0.00     0.030 A 
ENDBRANCH   2   5
BRANCH   3  17
HETATM   17  C12 UNK     1      18.200   2.592  33.638  1.00  0.00     0.155 A 
HETATM   18  N2  UNK     1      18.336   1.648  32.702  1.00  0.00    -0.122 NA
HETATM   19  O2  UNK     1      18.470   0.458  33.409  1.00  0.00    -0.211 OA
HETATM   20  C13 UNK     1      18.411   0.718  34.739  1.00  0.00     0.120 A 
HETATM   21  C14 UNK     1      18.240   2.062  34.940  1.00  0.00     0.080 A 
BRANCH  20  22
HETATM   22  C15 UNK     1      18.517  -0.301  35.719  1.00  0.00     0.041 A 
HETATM   23  S1  UNK     1      19.483  -1.687  35.437  1.00  0.00    -0.099 SA
HETATM   24  C18 UNK     1      19.090  -2.339  36.972  1.00  0.00     0.050 A 
HETATM   25  C17 UNK     1      18.243  -1.517  37.681  1.00  0.00     0.008 A 
HETATM   26  C16 UNK     1      17.910  -0.336  36.956  1.00  0.00     0.022 A 
ENDBRANCH  20  22
ENDBRANCH   3  17
TORSDOF 3
ENDMDL
MODEL 9
REMARK VINA RESULT:      -9.1      7.541     10.832
REMARK  3 active torsions:
REMARK  status: ('A' for Active; 'I' for Inactive)
REMARK       I    between atoms: C11_18  and  N1_6 
REMARK    1  A    between atoms: C4_11  and  N1_6 
REMARK    2  A    between atoms: C11_18  and  C12_19 
REMARK    3  A    between atoms: C13_20  and  C15_22 
ROOT
HETATM    1  O4  UNK     1      20.832  -3.921  37.268  1.00  0.00    -0.266 OA
HETATM    2  N1  UNK     1      19.219  -5.022  35.997  1.00  0.00    -0.322 N 
HETATM    3  C11 UNK     1      19.817  -3.885  36.576  1.00  0.00     0.277 C 
HETATM    4  H5  UNK     1      18.376  -4.860  35.449  1.00  0.00     0.169 HD
ENDROOT
BRANCH   2   5
HETATM    5  C4  UNK     1      19.624  -6.354  36.082  1.00  0.00     0.037 A 
HETATM    6  C5  UNK     1      19.189  -7.151  37.135  1.00  0.00     0.067 A 
HETATM    7  C2  UNK     1      19.606  -8.482  37.200  1.00  0.00     0.092 A 
HETATM    8  C1  UNK     1      20.448  -9.046  36.240  1.00  0.00     0.004 A 
HETATM    9  O1  UNK     1      19.133  -9.239  38.289  1.00  0.00    -0.275 OA
HETATM   10  C3  UNK     1      20.837 -10.456  36.387  1.00  0.00    -0.043 A 
HETATM   11  C6  UNK     1      20.875  -8.227  35.187  1.00  0.00     0.017 A 
HETATM   12  C8  UNK     1      20.371 -11.151  37.434  1.00  0.00     0.090 A 
HETATM   13  C9  UNK     1      21.741 -11.091  35.373  1.00  0.00     0.049 C 
HETATM   14  C10 UNK     1      19.482 -10.570  38.454  1.00  0.00     0.288 A 
HETATM   15  O3  UNK     1      19.076 -11.238  39.398  1.00  0.00    -0.260 OA
HETATM   16  C7  UNK     1      20.466  -6.891  35.108  1.00  0.00     0.030 A 
ENDBRANCH   2   5
BRANCH   3  17
HETATM   17  C12 UNK     1      19.115  -2.614  36.329  1.00  0.00     0.155 A 
HETATM   18  N2  UNK     1      17.910  -2.402  36.868  1.00  0.00    -0.122 NA
HETATM   19  O2  UNK     1      17.545  -1.130  36.443  1.00  0.00    -0.211 OA
HETATM   20  C13 UNK     1      18.532  -0.616  35.666  1.00  0.00     0.120 A 
HETATM   21  C14 UNK     1      19.555  -1.521  35.562  1.00  0.00     0.080 A 
BRANCH  20  22
HETATM   22  C15 UNK     1      18.447   0.672  35.082  1.00  0.00     0.041 A 
HETATM   23  S1  UNK     1      18.841   2.071  35.989  1.00  0.00    -0.099 SA
HETATM   24  C18 UNK     1      18.502   3.095  34.659  1.00  0.00     0.050 A 
HETATM   25  C17 UNK     1      18.099   2.386  33.550  1.00  0.00     0.008 A 
HETATM   26  C16 UNK     1      18.067   0.982  33.794  1.00  0.00     0.022 A 
ENDBRANCH  20  22
ENDBRANCH   3  17
TORSDOF 3
ENDMDL
MODEL 10
REMARK VINA RESULT:      -9.1      7.362     11.244
REMARK  3 active torsions:
REMARK  status: ('A' for Active; 'I' for Inactive)
REMARK       I    between atoms: C11_18  and  N1_6 
REMARK    1  A    between atoms: C4_11  and  N1_6 
REMARK    2  A    between atoms: C11_18  and  C12_19 
REMARK    3  A    between atoms: C13_20  and  C15_22 
ROOT
HETATM    1  O4  UNK     1      20.723  -3.024  36.554  1.00  0.00    -0.266 OA
HETATM    2  N1  UNK     1      19.760  -4.665  35.208  1.00  0.00    -0.322 N 
HETATM    3  C11 UNK     1      20.198  -3.356  35.493  1.00  0.00     0.277 C 
HETATM    4  H5  UNK     1      19.336  -4.811  34.294  1.00  0.00     0.169 HD
ENDROOT
BRANCH   2   5
HETATM    5  C4  UNK     1      19.824  -5.798  36.019  1.00  0.00     0.037 A 
HETATM    6  C5  UNK     1      20.790  -5.890  37.015  1.00  0.00     0.067 A 
HETATM    7  C2  UNK     1      20.836  -7.032  37.817  1.00  0.00     0.092 A 
HETATM    8  C1  UNK     1      19.942  -8.091  37.655  1.00  0.00     0.004 A 
HETATM    9  O1  UNK     1      21.836  -7.068  38.808  1.00  0.00    -0.275 OA
HETATM   10  C3  UNK     1      20.063  -9.256  38.545  1.00  0.00    -0.043 A 
HETATM   11  C6  UNK     1      18.976  -7.979  36.647  1.00  0.00     0.017 A 
HETATM   12  C8  UNK     1      21.024  -9.261  39.479  1.00  0.00     0.090 A 
HETATM   13  C9  UNK     1      19.117 -10.411  38.396  1.00  0.00     0.049 C 
HETATM   14  C10 UNK     1      21.974  -8.151  39.661  1.00  0.00     0.288 A 
HETATM   15  O3  UNK     1      22.840  -8.193  40.527  1.00  0.00    -0.260 OA
HETATM   16  C7  UNK     1      18.918  -6.841  35.836  1.00  0.00     0.030 A 
ENDBRANCH   2   5
BRANCH   3  17
HETATM   17  C12 UNK     1      19.947  -2.367  34.430  1.00  0.00     0.155 A 
HETATM   18  N2  UNK     1      19.353  -1.207  34.726  1.00  0.00    -0.122 NA
HETATM   19  O2  UNK     1      19.274  -0.525  33.517  1.00  0.00    -0.211 OA
HETATM   20  C13 UNK     1      19.820  -1.288  32.536  1.00  0.00     0.120 A 
HETATM   21  C14 UNK     1      20.264  -2.471  33.065  1.00  0.00     0.080 A 
BRANCH  20  22
HETATM   22  C15 UNK     1      19.887  -0.860  31.186  1.00  0.00     0.041 A 
HETATM   23  S1  UNK     1      19.361   0.708  30.741  1.00  0.00    -0.099 SA
HETATM   24  C18 UNK     1      19.749   0.429  29.096  1.00  0.00     0.050 A 
HETATM   25  C17 UNK     1      20.268  -0.830  28.893  1.00  0.00     0.008 A 
HETATM   26  C16 UNK     1      20.347  -1.577  30.104  1.00  0.00     0.022 A 
ENDBRANCH  20  22
ENDBRANCH   3  17
TORSDOF 3
ENDMDL
