MODEL 1
REMARK VINA RESULT:      -6.9      0.000      0.000
REMARK  2 active torsions:
REMARK  status: ('A' for Active; 'I' for Inactive)
REMARK    1  A    between atoms: C10_15  and  O3_4 
REMARK    2  A    between atoms: C10_15  and  C4_9 
ROOT
HETATM    1 Cl1  UNK     1      21.479   6.201  32.567  1.00  0.00    -0.084 Cl
HETATM    2  O1  UNK     1      16.590   8.904  34.458  1.00  0.00    -0.274 OA
HETATM    3  O2  UNK     1      14.320   9.162  34.408  1.00  0.00    -0.259 OA
HETATM    4  C1  UNK     1      17.639   7.235  33.035  1.00  0.00     0.001 A 
HETATM    5  C2  UNK     1      17.742   8.242  33.989  1.00  0.00     0.089 A 
HETATM    6  C3  UNK     1      16.323   6.875  32.530  1.00  0.00     0.039 A 
HETATM    7  C4  UNK     1      15.233   7.507  32.979  1.00  0.00     0.114 A 
HETATM    8  C5  UNK     1      18.804   6.602  32.595  1.00  0.00     0.038 A 
HETATM    9  C6  UNK     1      18.971   8.632  34.515  1.00  0.00     0.040 A 
HETATM   10  C7  UNK     1      15.317   8.581  33.994  1.00  0.00     0.305 A 
HETATM   11  C8  UNK     1      20.045   6.984  33.113  1.00  0.00     0.035 A 
HETATM   12  C9  UNK     1      20.129   7.997  34.071  1.00  0.00     0.026 A 
ENDROOT
BRANCH   7  13
HETATM   13  C10 UNK     1      13.951   7.074  32.409  1.00  0.00     0.182 C 
HETATM   14  O4  UNK     1      13.767   6.949  31.207  1.00  0.00    -0.646 OA
BRANCH  13  15
HETATM   15  O3  UNK     1      13.066   6.849  33.395  1.00  0.00    -0.772 OA
HETATM   16  H5  UNK     1      13.506   6.636  34.247  1.00  0.00     0.167 HD
ENDBRANCH  13  15
ENDBRANCH   7  13
TORSDOF 2
ENDMDL
MODEL 2
REMARK VINA RESULT:      -6.9     17.396     18.845
REMARK  2 active torsions:
REMARK  status: ('A' for Active; 'I' for Inactive)
REMARK    1  A    between atoms: C10_15  and  O3_4 
REMARK    2  A    between atoms: C10_15  and  C4_9 
ROOT
HETATM    1 Cl1  UNK     1      18.897   2.069  21.006  1.00  0.00    -0.084 Cl
HETATM    2  O1  UNK     1      19.241   0.894  15.237  1.00  0.00    -0.274 OA
HETATM    3  O2  UNK     1      19.234  -0.607  13.513  1.00  0.00    -0.259 OA
HETATM    4  C1  UNK     1      18.986   0.100  17.520  1.00  0.00     0.001 A 
HETATM    5  C2  UNK     1      19.156   1.147  16.620  1.00  0.00     0.089 A 
HETATM    6  C3  UNK     1      18.897  -1.260  17.011  1.00  0.00     0.039 A 
HETATM    7  C4  UNK     1      18.978  -1.494  15.696  1.00  0.00     0.114 A 
HETATM    8  C5  UNK     1      18.905   0.391  18.884  1.00  0.00     0.038 A 
HETATM    9  C6  UNK     1      19.247   2.471  17.042  1.00  0.00     0.040 A 
HETATM   10  C7  UNK     1      19.159  -0.396  14.719  1.00  0.00     0.305 A 
HETATM   11  C8  UNK     1      18.996   1.715  19.323  1.00  0.00     0.035 A 
HETATM   12  C9  UNK     1      19.166   2.753  18.404  1.00  0.00     0.026 A 
ENDROOT
BRANCH   7  13
HETATM   13  C10 UNK     1      18.878  -2.898  15.279  1.00  0.00     0.182 C 
HETATM   14  O4  UNK     1      19.623  -3.770  15.700  1.00  0.00    -0.646 OA
BRANCH  13  15
HETATM   15  O3  UNK     1      17.869  -3.043  14.403  1.00  0.00    -0.772 OA
HETATM   16  H5  UNK     1      17.008  -2.761  14.780  1.00  0.00     0.167 HD
ENDBRANCH  13  15
ENDBRANCH   7  13
TORSDOF 2
ENDMDL
MODEL 3
REMARK VINA RESULT:      -6.8     23.725     25.321
REMARK  2 active torsions:
REMARK  status: ('A' for Active; 'I' for Inactive)
REMARK    1  A    between atoms: C10_15  and  O3_4 
REMARK    2  A    between atoms: C10_15  and  C4_9 
ROOT
HETATM    1 Cl1  UNK     1       9.527   6.022   5.644  1.00  0.00    -0.084 Cl
HETATM    2  O1  UNK     1      13.174   7.471  10.046  1.00  0.00    -0.274 OA
HETATM    3  O2  UNK     1      15.098   7.117  11.227  1.00  0.00    -0.259 OA
HETATM    4  C1  UNK     1      12.642   6.035   8.158  1.00  0.00     0.001 A 
HETATM    5  C2  UNK     1      12.320   7.104   8.988  1.00  0.00     0.089 A 
HETATM    6  C3  UNK     1      13.876   5.302   8.401  1.00  0.00     0.039 A 
HETATM    7  C4  UNK     1      14.683   5.656   9.408  1.00  0.00     0.114 A 
HETATM    8  C5  UNK     1      11.771   5.701   7.119  1.00  0.00     0.038 A 
HETATM    9  C6  UNK     1      11.156   7.847   8.808  1.00  0.00     0.040 A 
HETATM   10  C7  UNK     1      14.361   6.790  10.304  1.00  0.00     0.305 A 
HETATM   11  C8  UNK     1      10.598   6.437   6.926  1.00  0.00     0.035 A 
HETATM   12  C9  UNK     1      10.291   7.508   7.769  1.00  0.00     0.026 A 
ENDROOT
BRANCH   7  13
HETATM   13  C10 UNK     1      15.903   4.856   9.574  1.00  0.00     0.182 C 
HETATM   14  O4  UNK     1      15.885   3.668   9.858  1.00  0.00    -0.646 OA
BRANCH  13  15
HETATM   15  O3  UNK     1      16.985   5.626   9.361  1.00  0.00    -0.772 OA
HETATM   16  H5  UNK     1      17.658   5.174   8.809  1.00  0.00     0.167 HD
ENDBRANCH  13  15
ENDBRANCH   7  13
TORSDOF 2
ENDMDL
MODEL 4
REMARK VINA RESULT:      -6.8      7.150      8.591
REMARK  2 active torsions:
REMARK  status: ('A' for Active; 'I' for Inactive)
REMARK    1  A    between atoms: C10_15  and  O3_4 
REMARK    2  A    between atoms: C10_15  and  C4_9 
ROOT
HETATM    1 Cl1  UNK     1      21.237  -3.258  32.267  1.00  0.00    -0.084 Cl
HETATM    2  O1  UNK     1      19.058   0.815  28.600  1.00  0.00    -0.274 OA
HETATM    3  O2  UNK     1      18.158   2.885  28.243  1.00  0.00    -0.259 OA
HETATM    4  C1  UNK     1      19.646   0.135  30.859  1.00  0.00     0.001 A 
HETATM    5  C2  UNK     1      19.575  -0.140  29.497  1.00  0.00     0.089 A 
HETATM    6  C3  UNK     1      19.180   1.427  31.341  1.00  0.00     0.039 A 
HETATM    7  C4  UNK     1      18.691   2.330  30.484  1.00  0.00     0.114 A 
HETATM    8  C5  UNK     1      20.164  -0.837  31.718  1.00  0.00     0.038 A 
HETATM    9  C6  UNK     1      20.005  -1.356  28.972  1.00  0.00     0.040 A 
HETATM   10  C7  UNK     1      18.606   2.059  29.031  1.00  0.00     0.305 A 
HETATM   11  C8  UNK     1      20.599  -2.062  31.204  1.00  0.00     0.035 A 
HETATM   12  C9  UNK     1      20.520  -2.321  29.834  1.00  0.00     0.026 A 
ENDROOT
BRANCH   7  13
HETATM   13  C10 UNK     1      18.246   3.603  31.065  1.00  0.00     0.182 C 
HETATM   14  O4  UNK     1      17.515   3.667  32.043  1.00  0.00    -0.646 OA
BRANCH  13  15
HETATM   15  O3  UNK     1      18.766   4.629  30.370  1.00  0.00    -0.772 OA
HETATM   16  H5  UNK     1      19.262   5.251  30.943  1.00  0.00     0.167 HD
ENDBRANCH  13  15
ENDBRANCH   7  13
TORSDOF 2
ENDMDL
MODEL 5
REMARK VINA RESULT:      -6.8      6.601      7.889
REMARK  2 active torsions:
REMARK  status: ('A' for Active; 'I' for Inactive)
REMARK    1  A    between atoms: C10_15  and  O3_4 
REMARK    2  A    between atoms: C10_15  and  C4_9 
ROOT
HETATM    1 Cl1  UNK     1      17.996   6.566  31.287  1.00  0.00    -0.084 Cl
HETATM    2  O1  UNK     1      18.852   0.815  32.274  1.00  0.00    -0.274 OA
HETATM    3  O2  UNK     1      19.410  -1.267  31.515  1.00  0.00    -0.259 OA
HETATM    4  C1  UNK     1      18.842   2.692  30.730  1.00  0.00     0.001 A 
HETATM    5  C2  UNK     1      18.655   2.184  32.011  1.00  0.00     0.089 A 
HETATM    6  C3  UNK     1      19.247   1.786  29.666  1.00  0.00     0.039 A 
HETATM    7  C4  UNK     1      19.434   0.486  29.922  1.00  0.00     0.114 A 
HETATM    8  C5  UNK     1      18.637   4.056  30.508  1.00  0.00     0.038 A 
HETATM    9  C6  UNK     1      18.269   2.998  33.074  1.00  0.00     0.040 A 
HETATM   10  C7  UNK     1      19.240  -0.077  31.277  1.00  0.00     0.305 A 
HETATM   11  C8  UNK     1      18.249   4.885  31.565  1.00  0.00     0.035 A 
HETATM   12  C9  UNK     1      18.065   4.357  32.845  1.00  0.00     0.026 A 
ENDROOT
BRANCH   7  13
HETATM   13  C10 UNK     1      19.840  -0.348  28.784  1.00  0.00     0.182 C 
HETATM   14  O4  UNK     1      19.168  -0.461  27.770  1.00  0.00    -0.646 OA
BRANCH  13  15
HETATM   15  O3  UNK     1      21.025  -0.927  29.044  1.00  0.00    -0.772 OA
HETATM   16  H5  UNK     1      21.016  -1.426  29.889  1.00  0.00     0.167 HD
ENDBRANCH  13  15
ENDBRANCH   7  13
TORSDOF 2
ENDMDL
MODEL 6
REMARK VINA RESULT:      -6.7      9.410     10.757
REMARK  2 active torsions:
REMARK  status: ('A' for Active; 'I' for Inactive)
REMARK    1  A    between atoms: C10_15  and  O3_4 
REMARK    2  A    between atoms: C10_15  and  C4_9 
ROOT
HETATM    1 Cl1  UNK     1      18.287   2.356  29.103  1.00  0.00    -0.084 Cl
HETATM    2  O1  UNK     1      20.854  -2.689  30.759  1.00  0.00    -0.274 OA
HETATM    3  O2  UNK     1      21.467  -4.159  32.398  1.00  0.00    -0.259 OA
HETATM    4  C1  UNK     1      19.671  -0.651  31.356  1.00  0.00     0.001 A 
HETATM    5  C2  UNK     1      20.235  -1.479  30.391  1.00  0.00     0.089 A 
HETATM    6  C3  UNK     1      19.731  -1.055  32.753  1.00  0.00     0.039 A 
HETATM    7  C4  UNK     1      20.320  -2.206  33.096  1.00  0.00     0.114 A 
HETATM    8  C5  UNK     1      19.066   0.542  30.952  1.00  0.00     0.038 A 
HETATM    9  C6  UNK     1      20.210  -1.150  29.037  1.00  0.00     0.040 A 
HETATM   10  C7  UNK     1      20.927  -3.103  32.087  1.00  0.00     0.305 A 
HETATM   11  C8  UNK     1      19.034   0.885  29.597  1.00  0.00     0.035 A 
HETATM   12  C9  UNK     1      19.604   0.040  28.642  1.00  0.00     0.026 A 
ENDROOT
BRANCH   7  13
HETATM   13  C10 UNK     1      20.331  -2.527  34.529  1.00  0.00     0.182 C 
HETATM   14  O4  UNK     1      20.572  -1.698  35.394  1.00  0.00    -0.646 OA
BRANCH  13  15
HETATM   15  O3  UNK     1      20.038  -3.827  34.707  1.00  0.00    -0.772 OA
HETATM   16  H5  UNK     1      19.426  -4.166  34.019  1.00  0.00     0.167 HD
ENDBRANCH  13  15
ENDBRANCH   7  13
TORSDOF 2
ENDMDL
MODEL 7
REMARK VINA RESULT:      -6.6      9.268     10.307
REMARK  2 active torsions:
REMARK  status: ('A' for Active; 'I' for Inactive)
REMARK    1  A    between atoms: C10_15  and  O3_4 
REMARK    2  A    between atoms: C10_15  and  C4_9 
ROOT
HETATM    1 Cl1  UNK     1      15.957   0.869  36.799  1.00  0.00    -0.084 Cl
HETATM    2  O1  UNK     1      20.168  -2.543  34.474  1.00  0.00    -0.274 OA
HETATM    3  O2  UNK     1      21.410  -3.215  32.678  1.00  0.00    -0.259 OA
HETATM    4  C1  UNK     1      18.482  -0.814  34.189  1.00  0.00     0.001 A 
HETATM    5  C2  UNK     1      19.158  -1.716  35.004  1.00  0.00     0.089 A 
HETATM    6  C3  UNK     1      18.836  -0.738  32.779  1.00  0.00     0.039 A 
HETATM    7  C4  UNK     1      19.797  -1.525  32.282  1.00  0.00     0.114 A 
HETATM    8  C5  UNK     1      17.487  -0.011  34.751  1.00  0.00     0.038 A 
HETATM    9  C6  UNK     1      18.868  -1.838  36.361  1.00  0.00     0.040 A 
HETATM   10  C7  UNK     1      20.529  -2.492  33.130  1.00  0.00     0.305 A 
HETATM   11  C8  UNK     1      17.185  -0.122  36.111  1.00  0.00     0.035 A 
HETATM   12  C9  UNK     1      17.874  -1.034  36.915  1.00  0.00     0.026 A 
ENDROOT
BRANCH   7  13
HETATM   13  C10 UNK     1      20.082  -1.375  30.849  1.00  0.00     0.182 C 
HETATM   14  O4  UNK     1      20.544  -0.351  30.368  1.00  0.00    -0.646 OA
BRANCH  13  15
HETATM   15  O3  UNK     1      19.767  -2.509  30.201  1.00  0.00    -0.772 OA
HETATM   16  H5  UNK     1      19.269  -2.336  29.373  1.00  0.00     0.167 HD
ENDBRANCH  13  15
ENDBRANCH   7  13
TORSDOF 2
ENDMDL
MODEL 8
REMARK VINA RESULT:      -6.6     23.722     25.108
REMARK  2 active torsions:
REMARK  status: ('A' for Active; 'I' for Inactive)
REMARK    1  A    between atoms: C10_15  and  O3_4 
REMARK    2  A    between atoms: C10_15  and  C4_9 
ROOT
HETATM    1 Cl1  UNK     1      16.438  10.338  10.118  1.00  0.00    -0.084 Cl
HETATM    2  O1  UNK     1      13.798   5.118   9.366  1.00  0.00    -0.274 OA
HETATM    3  O2  UNK     1      12.263   3.807   8.295  1.00  0.00    -0.259 OA
HETATM    4  C1  UNK     1      14.025   7.456   8.739  1.00  0.00     0.001 A 
HETATM    5  C2  UNK     1      14.412   6.376   9.524  1.00  0.00     0.089 A 
HETATM    6  C3  UNK     1      12.976   7.266   7.749  1.00  0.00     0.039 A 
HETATM    7  C4  UNK     1      12.396   6.069   7.602  1.00  0.00     0.114 A 
HETATM    8  C5  UNK     1      14.658   8.687   8.926  1.00  0.00     0.038 A 
HETATM    9  C6  UNK     1      15.411   6.491  10.489  1.00  0.00     0.040 A 
HETATM   10  C7  UNK     1      12.792   4.905   8.427  1.00  0.00     0.305 A 
HETATM   11  C8  UNK     1      15.661   8.818   9.890  1.00  0.00     0.035 A 
HETATM   12  C9  UNK     1      16.037   7.722  10.670  1.00  0.00     0.026 A 
ENDROOT
BRANCH   7  13
HETATM   13  C10 UNK     1      11.348   5.977   6.578  1.00  0.00     0.182 C 
HETATM   14  O4  UNK     1      10.176   5.754   6.846  1.00  0.00    -0.646 OA
BRANCH  13  15
HETATM   15  O3  UNK     1      11.880   6.176   5.360  1.00  0.00    -0.772 OA
HETATM   16  H5  UNK     1      11.859   5.364   4.809  1.00  0.00     0.167 HD
ENDBRANCH  13  15
ENDBRANCH   7  13
TORSDOF 2
ENDMDL
MODEL 9
REMARK VINA RESULT:      -6.6      7.672      8.848
REMARK  2 active torsions:
REMARK  status: ('A' for Active; 'I' for Inactive)
REMARK    1  A    between atoms: C10_15  and  O3_4 
REMARK    2  A    between atoms: C10_15  and  C4_9 
ROOT
HETATM    1 Cl1  UNK     1      18.613  -1.933  36.361  1.00  0.00    -0.084 Cl
HETATM    2  O1  UNK     1      18.486   1.779  31.780  1.00  0.00    -0.274 OA
HETATM    3  O2  UNK     1      18.907   2.231  29.580  1.00  0.00    -0.259 OA
HETATM    4  C1  UNK     1      19.040  -0.409  32.683  1.00  0.00     0.001 A 
HETATM    5  C2  UNK     1      18.528   0.873  32.857  1.00  0.00     0.089 A 
HETATM    6  C3  UNK     1      19.532  -0.798  31.370  1.00  0.00     0.039 A 
HETATM    7  C4  UNK     1      19.489   0.067  30.351  1.00  0.00     0.114 A 
HETATM    8  C5  UNK     1      19.065  -1.279  33.776  1.00  0.00     0.038 A 
HETATM    9  C6  UNK     1      18.040   1.307  34.088  1.00  0.00     0.040 A 
HETATM   10  C7  UNK     1      18.948   1.435  30.512  1.00  0.00     0.305 A 
HETATM   11  C8  UNK     1      18.580  -0.857  35.017  1.00  0.00     0.035 A 
HETATM   12  C9  UNK     1      18.069   0.434  35.173  1.00  0.00     0.026 A 
ENDROOT
BRANCH   7  13
HETATM   13  C10 UNK     1      20.008  -0.418  29.066  1.00  0.00     0.182 C 
HETATM   14  O4  UNK     1      21.158  -0.802  28.916  1.00  0.00    -0.646 OA
BRANCH  13  15
HETATM   15  O3  UNK     1      19.039  -0.371  28.135  1.00  0.00    -0.772 OA
HETATM   16  H5  UNK     1      18.290   0.203  28.409  1.00  0.00     0.167 HD
ENDBRANCH  13  15
ENDBRANCH   7  13
TORSDOF 2
ENDMDL
MODEL 10
REMARK VINA RESULT:      -6.5      8.520      9.308
REMARK  2 active torsions:
REMARK  status: ('A' for Active; 'I' for Inactive)
REMARK    1  A    between atoms: C10_15  and  O3_4 
REMARK    2  A    between atoms: C10_15  and  C4_9 
ROOT
HETATM    1 Cl1  UNK     1      20.200  -1.715  30.241  1.00  0.00    -0.084 Cl
HETATM    2  O1  UNK     1      19.215  -1.831  36.054  1.00  0.00    -0.274 OA
HETATM    3  O2  UNK     1      18.019  -1.148  37.878  1.00  0.00    -0.259 OA
HETATM    4  C1  UNK     1      18.620  -0.998  33.849  1.00  0.00     0.001 A 
HETATM    5  C2  UNK     1      19.428  -1.785  34.663  1.00  0.00     0.089 A 
HETATM    6  C3  UNK     1      17.549  -0.223  34.458  1.00  0.00     0.039 A 
HETATM    7  C4  UNK     1      17.351  -0.271  35.780  1.00  0.00     0.114 A 
HETATM    8  C5  UNK     1      18.863  -0.979  32.473  1.00  0.00     0.038 A 
HETATM    9  C6  UNK     1      20.469  -2.551  34.142  1.00  0.00     0.040 A 
HETATM   10  C7  UNK     1      18.198  -1.102  36.666  1.00  0.00     0.305 A 
HETATM   11  C8  UNK     1      19.904  -1.742  31.937  1.00  0.00     0.035 A 
HETATM   12  C9  UNK     1      20.705  -2.527  32.770  1.00  0.00     0.026 A 
ENDROOT
BRANCH   7  13
HETATM   13  C10 UNK     1      16.247   0.545  36.301  1.00  0.00     0.182 C 
HETATM   14  O4  UNK     1      15.117   0.507  35.838  1.00  0.00    -0.646 OA
BRANCH  13  15
HETATM   15  O3  UNK     1      16.680   1.296  37.328  1.00  0.00    -0.772 OA
HETATM   16  H5  UNK     1      17.343   0.824  37.878  1.00  0.00     0.167 HD
ENDBRANCH  13  15
ENDBRANCH   7  13
TORSDOF 2
ENDMDL
