MODEL 1
REMARK VINA RESULT:      -9.7      0.000      0.000
REMARK  5 active torsions:
REMARK  status: ('A' for Active; 'I' for Inactive)
REMARK    1  A    between atoms: C12_18  and  O2_2 
REMARK    2  A    between atoms: C6_12  and  O2_2 
REMARK       I    between atoms: C10_16  and  N1_6 
REMARK    3  A    between atoms: C10_16  and  C7_13 
REMARK    4  A    between atoms: C11_17  and  C13_19 
REMARK    5  A    between atoms: C12_18  and  C14_20 
ROOT
HETATM    1  O1  UNK     1      18.754  -0.290  33.820  1.00  0.00    -0.274 OA
HETATM    2  O3  UNK     1      18.372  -0.740  36.028  1.00  0.00    -0.259 OA
HETATM    3  C1  UNK     1      20.117  -1.813  32.503  1.00  0.00    -0.001 A 
HETATM    4  C2  UNK     1      19.354  -0.654  32.598  1.00  0.00     0.092 A 
HETATM    5  C3  UNK     1      20.284  -2.644  33.685  1.00  0.00     0.037 A 
HETATM    6  C4  UNK     1      20.695  -2.140  31.275  1.00  0.00     0.017 A 
HETATM    7  C5  UNK     1      19.153   0.185  31.503  1.00  0.00     0.075 A 
HETATM    8  C6  UNK     1      19.735  -0.148  30.282  1.00  0.00     0.082 A 
HETATM    9  C7  UNK     1      19.713  -2.294  34.843  1.00  0.00     0.108 A 
HETATM   10  C8  UNK     1      20.503  -1.308  30.167  1.00  0.00     0.038 A 
HETATM   11  C9  UNK     1      18.897  -1.064  34.968  1.00  0.00     0.304 A 
ENDROOT
BRANCH   8  12
HETATM   12  O2  UNK     1      19.552   0.656  29.200  1.00  0.00    -0.276 OA
BRANCH  12  13
HETATM   13  C12 UNK     1      18.492   1.563  29.335  1.00  0.00     0.288 C 
HETATM   14  O5  UNK     1      17.350   1.400  28.935  1.00  0.00    -0.260 OA
BRANCH  13  15
HETATM   15  C14 UNK     1      18.992   2.761  30.048  1.00  0.00     0.083 C 
HETATM   16  C13 UNK     1      18.209   3.367  30.951  1.00  0.00     0.017 C 
BRANCH  16  17
HETATM   17  C11 UNK     1      18.588   4.567  31.716  1.00  0.00    -0.036 A 
HETATM   18  C15 UNK     1      17.904   4.875  32.880  1.00  0.00     0.011 A 
HETATM   19  C17 UNK     1      18.263   6.012  33.605  1.00  0.00     0.001 A 
HETATM   20  C19 UNK     1      19.303   6.825  33.155  1.00  0.00     0.000 A 
HETATM   21  C18 UNK     1      19.983   6.503  31.980  1.00  0.00     0.001 A 
HETATM   22  C16 UNK     1      19.624   5.365  31.256  1.00  0.00     0.011 A 
ENDBRANCH  16  17
ENDBRANCH  13  15
ENDBRANCH  12  13
ENDBRANCH   8  12
BRANCH   9  23
HETATM   23  C10 UNK     1      19.941  -3.196  35.978  1.00  0.00     0.255 C 
HETATM   24  O4  UNK     1      21.072  -3.521  36.324  1.00  0.00    -0.268 OA
HETATM   25  N1  UNK     1      18.780  -3.615  36.581  1.00  0.00    -0.366 N 
HETATM   26  H12 UNK     1      18.806  -4.243  37.379  1.00  0.00     0.159 HD
HETATM   27  H13 UNK     1      17.861  -3.324  36.264  1.00  0.00     0.159 HD
ENDBRANCH   9  23
TORSDOF 5
ENDMDL
MODEL 2
REMARK VINA RESULT:      -9.3      3.369      9.025
REMARK  5 active torsions:
REMARK  status: ('A' for Active; 'I' for Inactive)
REMARK    1  A    between atoms: C12_18  and  O2_2 
REMARK    2  A    between atoms: C6_12  and  O2_2 
REMARK       I    between atoms: C10_16  and  N1_6 
REMARK    3  A    between atoms: C10_16  and  C7_13 
REMARK    4  A    between atoms: C11_17  and  C13_19 
REMARK    5  A    between atoms: C12_18  and  C14_20 
ROOT
HETATM    1  O1  UNK     1      17.961   2.210  33.116  1.00  0.00    -0.274 OA
HETATM    2  O3  UNK     1      17.555   4.156  31.990  1.00  0.00    -0.259 OA
HETATM    3  C1  UNK     1      18.961   0.330  31.941  1.00  0.00    -0.001 A 
HETATM    4  C2  UNK     1      18.445   0.886  33.107  1.00  0.00     0.092 A 
HETATM    5  C3  UNK     1      18.994   1.137  30.731  1.00  0.00     0.037 A 
HETATM    6  C4  UNK     1      19.430  -0.985  31.973  1.00  0.00     0.017 A 
HETATM    7  C5  UNK     1      18.385   0.167  34.300  1.00  0.00     0.075 A 
HETATM    8  C6  UNK     1      18.855  -1.144  34.322  1.00  0.00     0.082 A 
HETATM    9  C7  UNK     1      18.533   2.393  30.745  1.00  0.00     0.108 A 
HETATM   10  C8  UNK     1      19.378  -1.719  33.162  1.00  0.00     0.038 A 
HETATM   11  C9  UNK     1      17.979   3.005  31.974  1.00  0.00     0.304 A 
ENDROOT
BRANCH   8  12
HETATM   12  O2  UNK     1      18.808  -1.864  35.475  1.00  0.00    -0.276 OA
BRANCH  12  13
HETATM   13  C12 UNK     1      20.066  -2.167  36.012  1.00  0.00     0.288 C 
HETATM   14  O5  UNK     1      21.119  -1.615  35.735  1.00  0.00    -0.260 OA
BRANCH  13  15
HETATM   15  C14 UNK     1      19.904  -3.279  36.978  1.00  0.00     0.083 C 
HETATM   16  C13 UNK     1      20.158  -4.536  36.587  1.00  0.00     0.017 C 
BRANCH  16  17
HETATM   17  C11 UNK     1      20.025  -5.723  37.449  1.00  0.00    -0.036 A 
HETATM   18  C15 UNK     1      20.937  -5.924  38.471  1.00  0.00     0.011 A 
HETATM   19  C17 UNK     1      20.811  -7.049  39.289  1.00  0.00     0.001 A 
HETATM   20  C19 UNK     1      19.774  -7.955  39.072  1.00  0.00     0.000 A 
HETATM   21  C18 UNK     1      18.863  -7.739  38.038  1.00  0.00     0.001 A 
HETATM   22  C16 UNK     1      18.989  -6.614  37.221  1.00  0.00     0.011 A 
ENDBRANCH  16  17
ENDBRANCH  13  15
ENDBRANCH  12  13
ENDBRANCH   8  12
BRANCH   9  23
HETATM   23  C10 UNK     1      18.608   3.126  29.476  1.00  0.00     0.255 C 
HETATM   24  O4  UNK     1      18.163   2.654  28.434  1.00  0.00    -0.268 OA
HETATM   25  N1  UNK     1      19.214   4.353  29.591  1.00  0.00    -0.366 N 
HETATM   26  H12 UNK     1      19.326   4.956  28.782  1.00  0.00     0.159 HD
HETATM   27  H13 UNK     1      19.571   4.708  30.473  1.00  0.00     0.159 HD
ENDBRANCH   9  23
TORSDOF 5
ENDMDL
MODEL 3
REMARK VINA RESULT:      -9.3      5.494      9.592
REMARK  5 active torsions:
REMARK  status: ('A' for Active; 'I' for Inactive)
REMARK    1  A    between atoms: C12_18  and  O2_2 
REMARK    2  A    between atoms: C6_12  and  O2_2 
REMARK       I    between atoms: C10_16  and  N1_6 
REMARK    3  A    between atoms: C10_16  and  C7_13 
REMARK    4  A    between atoms: C11_17  and  C13_19 
REMARK    5  A    between atoms: C12_18  and  C14_20 
ROOT
HETATM    1  O1  UNK     1      15.854   8.743  32.239  1.00  0.00    -0.274 OA
HETATM    2  O3  UNK     1      14.465  10.457  32.836  1.00  0.00    -0.259 OA
HETATM    3  C1  UNK     1      18.026   8.528  33.313  1.00  0.00    -0.001 A 
HETATM    4  C2  UNK     1      17.083   8.071  32.398  1.00  0.00     0.092 A 
HETATM    5  C3  UNK     1      17.723   9.711  34.104  1.00  0.00     0.037 A 
HETATM    6  C4  UNK     1      19.231   7.835  33.441  1.00  0.00     0.017 A 
HETATM    7  C5  UNK     1      17.310   6.944  31.611  1.00  0.00     0.075 A 
HETATM    8  C6  UNK     1      18.516   6.259  31.745  1.00  0.00     0.082 A 
HETATM    9  C7  UNK     1      16.555  10.346  33.949  1.00  0.00     0.108 A 
HETATM   10  C8  UNK     1      19.474   6.702  32.658  1.00  0.00     0.038 A 
HETATM   11  C9  UNK     1      15.536   9.877  32.981  1.00  0.00     0.304 A 
ENDROOT
BRANCH   8  12
HETATM   12  O2  UNK     1      18.759   5.155  30.987  1.00  0.00    -0.276 OA
BRANCH  12  13
HETATM   13  C12 UNK     1      18.313   3.958  31.561  1.00  0.00     0.288 C 
HETATM   14  O5  UNK     1      17.567   3.854  32.522  1.00  0.00    -0.260 OA
BRANCH  13  15
HETATM   15  C14 UNK     1      18.903   2.830  30.803  1.00  0.00     0.083 C 
HETATM   16  C13 UNK     1      18.885   1.598  31.332  1.00  0.00     0.017 C 
BRANCH  16  17
HETATM   17  C11 UNK     1      19.446   0.401  30.683  1.00  0.00    -0.036 A 
HETATM   18  C15 UNK     1      19.607  -0.759  31.422  1.00  0.00     0.011 A 
HETATM   19  C17 UNK     1      20.139  -1.894  30.806  1.00  0.00     0.001 A 
HETATM   20  C19 UNK     1      20.501  -1.851  29.461  1.00  0.00     0.000 A 
HETATM   21  C18 UNK     1      20.334  -0.675  28.729  1.00  0.00     0.001 A 
HETATM   22  C16 UNK     1      19.802   0.459  29.345  1.00  0.00     0.011 A 
ENDBRANCH  16  17
ENDBRANCH  13  15
ENDBRANCH  12  13
ENDBRANCH   8  12
BRANCH   9  23
HETATM   23  C10 UNK     1      16.343  11.529  34.791  1.00  0.00     0.255 C 
HETATM   24  O4  UNK     1      15.580  11.506  35.752  1.00  0.00    -0.268 OA
HETATM   25  N1  UNK     1      17.072  12.621  34.388  1.00  0.00    -0.366 N 
HETATM   26  H12 UNK     1      17.012  13.501  34.891  1.00  0.00     0.159 HD
HETATM   27  H13 UNK     1      17.693  12.599  33.585  1.00  0.00     0.159 HD
ENDBRANCH   9  23
TORSDOF 5
ENDMDL
MODEL 4
REMARK VINA RESULT:      -9.1      5.442      9.508
REMARK  5 active torsions:
REMARK  status: ('A' for Active; 'I' for Inactive)
REMARK    1  A    between atoms: C12_18  and  O2_2 
REMARK    2  A    between atoms: C6_12  and  O2_2 
REMARK       I    between atoms: C10_16  and  N1_6 
REMARK    3  A    between atoms: C10_16  and  C7_13 
REMARK    4  A    between atoms: C11_17  and  C13_19 
REMARK    5  A    between atoms: C12_18  and  C14_20 
ROOT
HETATM    1  O1  UNK     1      19.622   8.272  33.983  1.00  0.00    -0.274 OA
HETATM    2  O3  UNK     1      20.584  10.187  34.776  1.00  0.00    -0.259 OA
HETATM    3  C1  UNK     1      17.354   8.343  33.106  1.00  0.00    -0.001 A 
HETATM    4  C2  UNK     1      18.509   7.628  33.406  1.00  0.00     0.092 A 
HETATM    5  C3  UNK     1      17.314   9.768  33.397  1.00  0.00     0.037 A 
HETATM    6  C4  UNK     1      16.273   7.668  32.536  1.00  0.00     0.017 A 
HETATM    7  C5  UNK     1      18.613   6.262  33.151  1.00  0.00     0.075 A 
HETATM    8  C6  UNK     1      17.530   5.597  32.582  1.00  0.00     0.082 A 
HETATM    9  C7  UNK     1      18.373  10.375  33.945  1.00  0.00     0.108 A 
HETATM   10  C8  UNK     1      16.362   6.298  32.274  1.00  0.00     0.038 A 
HETATM   11  C9  UNK     1      19.612   9.634  34.273  1.00  0.00     0.304 A 
ENDROOT
BRANCH   8  12
HETATM   12  O2  UNK     1      17.609   4.263  32.324  1.00  0.00    -0.276 OA
BRANCH  12  13
HETATM   13  C12 UNK     1      18.398   3.942  31.212  1.00  0.00     0.288 C 
HETATM   14  O5  UNK     1      18.625   4.668  30.257  1.00  0.00    -0.260 OA
BRANCH  13  15
HETATM   15  C14 UNK     1      18.913   2.564  31.387  1.00  0.00     0.083 C 
HETATM   16  C13 UNK     1      19.018   1.758  30.321  1.00  0.00     0.017 C 
BRANCH  16  17
HETATM   17  C11 UNK     1      19.504   0.368  30.369  1.00  0.00    -0.036 A 
HETATM   18  C15 UNK     1      20.127  -0.171  29.256  1.00  0.00     0.011 A 
HETATM   19  C17 UNK     1      20.589  -1.488  29.301  1.00  0.00     0.001 A 
HETATM   20  C19 UNK     1      20.421  -2.245  30.459  1.00  0.00     0.000 A 
HETATM   21  C18 UNK     1      19.792  -1.689  31.573  1.00  0.00     0.001 A 
HETATM   22  C16 UNK     1      19.331  -0.373  31.527  1.00  0.00     0.011 A 
ENDBRANCH  16  17
ENDBRANCH  13  15
ENDBRANCH  12  13
ENDBRANCH   8  12
BRANCH   9  23
HETATM   23  C10 UNK     1      18.235  11.813  34.202  1.00  0.00     0.255 C 
HETATM   24  O4  UNK     1      17.416  12.248  35.006  1.00  0.00    -0.268 OA
HETATM   25  N1  UNK     1      19.099  12.584  33.462  1.00  0.00    -0.366 N 
HETATM   26  H12 UNK     1      19.101  13.595  33.551  1.00  0.00     0.159 HD
HETATM   27  H13 UNK     1      19.763  12.185  32.805  1.00  0.00     0.159 HD
ENDBRANCH   9  23
TORSDOF 5
ENDMDL
MODEL 5
REMARK VINA RESULT:      -9.1     23.760     26.575
REMARK  5 active torsions:
REMARK  status: ('A' for Active; 'I' for Inactive)
REMARK    1  A    between atoms: C12_18  and  O2_2 
REMARK    2  A    between atoms: C6_12  and  O2_2 
REMARK       I    between atoms: C10_16  and  N1_6 
REMARK    3  A    between atoms: C10_16  and  C7_13 
REMARK    4  A    between atoms: C11_17  and  C13_19 
REMARK    5  A    between atoms: C12_18  and  C14_20 
ROOT
HETATM    1  O1  UNK     1      15.044  10.490   8.305  1.00  0.00    -0.274 OA
HETATM    2  O3  UNK     1      15.277  12.494   7.233  1.00  0.00    -0.259 OA
HETATM    3  C1  UNK     1      16.963   9.494   9.418  1.00  0.00    -0.001 A 
HETATM    4  C2  UNK     1      15.620   9.449   9.060  1.00  0.00     0.092 A 
HETATM    5  C3  UNK     1      17.764  10.635   9.001  1.00  0.00     0.037 A 
HETATM    6  C4  UNK     1      17.497   8.443  10.167  1.00  0.00     0.017 A 
HETATM    7  C5  UNK     1      14.797   8.386   9.429  1.00  0.00     0.075 A 
HETATM    8  C6  UNK     1      15.338   7.341  10.176  1.00  0.00     0.082 A 
HETATM    9  C7  UNK     1      17.213  11.621   8.283  1.00  0.00     0.108 A 
HETATM   10  C8  UNK     1      16.685   7.370  10.545  1.00  0.00     0.038 A 
HETATM   11  C9  UNK     1      15.785  11.593   7.891  1.00  0.00     0.304 A 
ENDROOT
BRANCH   8  12
HETATM   12  O2  UNK     1      14.554   6.294  10.547  1.00  0.00    -0.276 OA
BRANCH  12  13
HETATM   13  C12 UNK     1      14.607   5.201   9.672  1.00  0.00     0.288 C 
HETATM   14  O5  UNK     1      15.372   4.253   9.750  1.00  0.00    -0.260 OA
BRANCH  13  15
HETATM   15  C14 UNK     1      13.573   5.389   8.628  1.00  0.00     0.083 C 
HETATM   16  C13 UNK     1      12.306   5.638   8.991  1.00  0.00     0.017 C 
BRANCH  16  17
HETATM   17  C11 UNK     1      11.190   5.833   8.049  1.00  0.00    -0.036 A 
HETATM   18  C15 UNK     1      11.456   5.938   6.694  1.00  0.00     0.011 A 
HETATM   19  C17 UNK     1      10.399   6.123   5.802  1.00  0.00     0.001 A 
HETATM   20  C19 UNK     1       9.091   6.199   6.278  1.00  0.00     0.000 A 
HETATM   21  C18 UNK     1       8.838   6.092   7.646  1.00  0.00     0.001 A 
HETATM   22  C16 UNK     1       9.895   5.907   8.537  1.00  0.00     0.011 A 
ENDBRANCH  16  17
ENDBRANCH  13  15
ENDBRANCH  12  13
ENDBRANCH   8  12
BRANCH   9  23
HETATM   23  C10 UNK     1      18.102  12.726   7.909  1.00  0.00     0.255 C 
HETATM   24  O4  UNK     1      18.703  13.382   8.755  1.00  0.00    -0.268 OA
HETATM   25  N1  UNK     1      18.177  12.930   6.553  1.00  0.00    -0.366 N 
HETATM   26  H12 UNK     1      18.761  13.666   6.168  1.00  0.00     0.159 HD
HETATM   27  H13 UNK     1      17.662  12.364   5.885  1.00  0.00     0.159 HD
ENDBRANCH   9  23
TORSDOF 5
ENDMDL
MODEL 6
REMARK VINA RESULT:      -9.0      3.625      9.309
REMARK  5 active torsions:
REMARK  status: ('A' for Active; 'I' for Inactive)
REMARK    1  A    between atoms: C12_18  and  O2_2 
REMARK    2  A    between atoms: C6_12  and  O2_2 
REMARK       I    between atoms: C10_16  and  N1_6 
REMARK    3  A    between atoms: C10_16  and  C7_13 
REMARK    4  A    between atoms: C11_17  and  C13_19 
REMARK    5  A    between atoms: C12_18  and  C14_20 
ROOT
HETATM    1  O1  UNK     1      18.306   1.504  32.185  1.00  0.00    -0.274 OA
HETATM    2  O3  UNK     1      18.180   3.045  30.503  1.00  0.00    -0.259 OA
HETATM    3  C1  UNK     1      18.302   2.251  34.500  1.00  0.00    -0.001 A 
HETATM    4  C2  UNK     1      18.348   1.222  33.565  1.00  0.00     0.092 A 
HETATM    5  C3  UNK     1      18.208   3.624  34.030  1.00  0.00     0.037 A 
HETATM    6  C4  UNK     1      18.348   1.930  35.858  1.00  0.00     0.017 A 
HETATM    7  C5  UNK     1      18.437  -0.115  33.950  1.00  0.00     0.075 A 
HETATM    8  C6  UNK     1      18.483  -0.426  35.307  1.00  0.00     0.082 A 
HETATM    9  C7  UNK     1      18.168   3.887  32.718  1.00  0.00     0.108 A 
HETATM   10  C8  UNK     1      18.437   0.594  36.260  1.00  0.00     0.038 A 
HETATM   11  C9  UNK     1      18.216   2.807  31.706  1.00  0.00     0.304 A 
ENDROOT
BRANCH   8  12
HETATM   12  O2  UNK     1      18.569  -1.724  35.705  1.00  0.00    -0.276 OA
BRANCH  12  13
HETATM   13  C12 UNK     1      19.871  -2.142  36.011  1.00  0.00     0.288 C 
HETATM   14  O5  UNK     1      20.903  -1.679  35.551  1.00  0.00    -0.260 OA
BRANCH  13  15
HETATM   15  C14 UNK     1      19.786  -3.249  36.992  1.00  0.00     0.083 C 
HETATM   16  C13 UNK     1      20.154  -4.485  36.627  1.00  0.00     0.017 C 
BRANCH  16  17
HETATM   17  C11 UNK     1      20.106  -5.666  37.506  1.00  0.00    -0.036 A 
HETATM   18  C15 UNK     1      19.054  -6.558  37.388  1.00  0.00     0.011 A 
HETATM   19  C17 UNK     1      19.009  -7.678  38.221  1.00  0.00     0.001 A 
HETATM   20  C19 UNK     1      20.017  -7.888  39.160  1.00  0.00     0.000 A 
HETATM   21  C18 UNK     1      21.071  -6.980  39.268  1.00  0.00     0.001 A 
HETATM   22  C16 UNK     1      21.116  -5.862  38.435  1.00  0.00     0.011 A 
ENDBRANCH  16  17
ENDBRANCH  13  15
ENDBRANCH  12  13
ENDBRANCH   8  12
BRANCH   9  23
HETATM   23  C10 UNK     1      18.074   5.303  32.343  1.00  0.00     0.255 C 
HETATM   24  O4  UNK     1      17.104   5.988  32.655  1.00  0.00    -0.268 OA
HETATM   25  N1  UNK     1      19.159   5.750  31.628  1.00  0.00    -0.366 N 
HETATM   26  H12 UNK     1      19.212   6.713  31.311  1.00  0.00     0.159 HD
HETATM   27  H13 UNK     1      19.942   5.150  31.389  1.00  0.00     0.159 HD
ENDBRANCH   9  23
TORSDOF 5
ENDMDL
MODEL 7
REMARK VINA RESULT:      -9.0      3.340      9.174
REMARK  5 active torsions:
REMARK  status: ('A' for Active; 'I' for Inactive)
REMARK    1  A    between atoms: C12_18  and  O2_2 
REMARK    2  A    between atoms: C6_12  and  O2_2 
REMARK       I    between atoms: C10_16  and  N1_6 
REMARK    3  A    between atoms: C10_16  and  C7_13 
REMARK    4  A    between atoms: C11_17  and  C13_19 
REMARK    5  A    between atoms: C12_18  and  C14_20 
ROOT
HETATM    1  O1  UNK     1      19.546  -0.581  31.098  1.00  0.00    -0.274 OA
HETATM    2  O3  UNK     1      19.736   0.222  28.967  1.00  0.00    -0.259 OA
HETATM    3  C1  UNK     1      18.609   0.839  32.836  1.00  0.00    -0.001 A 
HETATM    4  C2  UNK     1      19.159  -0.375  32.437  1.00  0.00     0.092 A 
HETATM    5  C3  UNK     1      18.438   1.892  31.847  1.00  0.00     0.037 A 
HETATM    6  C4  UNK     1      18.238   1.004  34.172  1.00  0.00     0.017 A 
HETATM    7  C5  UNK     1      19.348  -1.425  33.333  1.00  0.00     0.075 A 
HETATM    8  C6  UNK     1      18.976  -1.251  34.665  1.00  0.00     0.082 A 
HETATM    9  C7  UNK     1      18.808   1.692  30.577  1.00  0.00     0.108 A 
HETATM   10  C8  UNK     1      18.421  -0.041  35.084  1.00  0.00     0.038 A 
HETATM   11  C9  UNK     1      19.396   0.409  30.130  1.00  0.00     0.304 A 
ENDROOT
BRANCH   8  12
HETATM   12  O2  UNK     1      19.151  -2.264  35.557  1.00  0.00    -0.276 OA
BRANCH  12  13
HETATM   13  C12 UNK     1      20.474  -2.420  35.992  1.00  0.00     0.288 C 
HETATM   14  O5  UNK     1      21.435  -1.765  35.621  1.00  0.00    -0.260 OA
BRANCH  13  15
HETATM   15  C14 UNK     1      20.511  -3.519  36.984  1.00  0.00     0.083 C 
HETATM   16  C13 UNK     1      20.026  -4.724  36.653  1.00  0.00     0.017 C 
BRANCH  16  17
HETATM   17  C11 UNK     1      19.998  -5.890  37.552  1.00  0.00    -0.036 A 
HETATM   18  C15 UNK     1      18.983  -6.823  37.423  1.00  0.00     0.011 A 
HETATM   19  C17 UNK     1      18.957  -7.929  38.275  1.00  0.00     0.001 A 
HETATM   20  C19 UNK     1      19.948  -8.085  39.244  1.00  0.00     0.000 A 
HETATM   21  C18 UNK     1      20.964  -7.137  39.362  1.00  0.00     0.001 A 
HETATM   22  C16 UNK     1      20.990  -6.032  38.510  1.00  0.00     0.011 A 
ENDBRANCH  16  17
ENDBRANCH  13  15
ENDBRANCH  12  13
ENDBRANCH   8  12
BRANCH   9  23
HETATM   23  C10 UNK     1      18.597   2.815  29.655  1.00  0.00     0.255 C 
HETATM   24  O4  UNK     1      18.974   3.950  29.928  1.00  0.00    -0.268 OA
HETATM   25  N1  UNK     1      17.951   2.455  28.497  1.00  0.00    -0.366 N 
HETATM   26  H12 UNK     1      17.748   3.143  27.779  1.00  0.00     0.159 HD
HETATM   27  H13 UNK     1      17.654   1.502  28.309  1.00  0.00     0.159 HD
ENDBRANCH   9  23
TORSDOF 5
ENDMDL
MODEL 8
REMARK VINA RESULT:      -8.9      4.687      7.456
REMARK  5 active torsions:
REMARK  status: ('A' for Active; 'I' for Inactive)
REMARK    1  A    between atoms: C12_18  and  O2_2 
REMARK    2  A    between atoms: C6_12  and  O2_2 
REMARK       I    between atoms: C10_16  and  N1_6 
REMARK    3  A    between atoms: C10_16  and  C7_13 
REMARK    4  A    between atoms: C11_17  and  C13_19 
REMARK    5  A    between atoms: C12_18  and  C14_20 
ROOT
HETATM    1  O1  UNK     1      18.190   2.674  32.814  1.00  0.00    -0.274 OA
HETATM    2  O3  UNK     1      18.446   0.539  32.041  1.00  0.00    -0.259 OA
HETATM    3  C1  UNK     1      18.489   4.547  31.290  1.00  0.00    -0.001 A 
HETATM    4  C2  UNK     1      18.203   4.061  32.562  1.00  0.00     0.092 A 
HETATM    5  C3  UNK     1      18.774   3.600  30.224  1.00  0.00     0.037 A 
HETATM    6  C4  UNK     1      18.493   5.927  31.081  1.00  0.00     0.017 A 
HETATM    7  C5  UNK     1      17.920   4.914  33.627  1.00  0.00     0.075 A 
HETATM    8  C6  UNK     1      17.927   6.290  33.410  1.00  0.00     0.082 A 
HETATM    9  C7  UNK     1      18.760   2.283  30.468  1.00  0.00     0.108 A 
HETATM   10  C8  UNK     1      18.211   6.796  32.140  1.00  0.00     0.038 A 
HETATM   11  C9  UNK     1      18.459   1.745  31.814  1.00  0.00     0.304 A 
ENDROOT
BRANCH   8  12
HETATM   12  O2  UNK     1      17.653   7.142  34.435  1.00  0.00    -0.276 OA
BRANCH  12  13
HETATM   13  C12 UNK     1      18.266   8.396  34.315  1.00  0.00     0.288 C 
HETATM   14  O5  UNK     1      19.464   8.622  34.388  1.00  0.00    -0.260 OA
BRANCH  13  15
HETATM   15  C14 UNK     1      17.211   9.410  34.084  1.00  0.00     0.083 C 
HETATM   16  C13 UNK     1      15.982   9.209  34.579  1.00  0.00     0.017 C 
BRANCH  16  17
HETATM   17  C11 UNK     1      14.850  10.136  34.408  1.00  0.00    -0.036 A 
HETATM   18  C15 UNK     1      14.274  10.280  33.157  1.00  0.00     0.011 A 
HETATM   19  C17 UNK     1      13.200  11.158  32.995  1.00  0.00     0.001 A 
HETATM   20  C19 UNK     1      12.719  11.878  34.087  1.00  0.00     0.000 A 
HETATM   21  C18 UNK     1      13.310  11.722  35.341  1.00  0.00     0.001 A 
HETATM   22  C16 UNK     1      14.382  10.845  35.503  1.00  0.00     0.011 A 
ENDBRANCH  16  17
ENDBRANCH  13  15
ENDBRANCH  12  13
ENDBRANCH   8  12
BRANCH   9  23
HETATM   23  C10 UNK     1      19.061   1.409  29.328  1.00  0.00     0.255 C 
HETATM   24  O4  UNK     1      18.372   1.417  28.312  1.00  0.00    -0.268 OA
HETATM   25  N1  UNK     1      20.163   0.613  29.528  1.00  0.00    -0.366 N 
HETATM   26  H12 UNK     1      20.473  -0.035  28.812  1.00  0.00     0.159 HD
HETATM   27  H13 UNK     1      20.707   0.637  30.385  1.00  0.00     0.159 HD
ENDBRANCH   9  23
TORSDOF 5
ENDMDL
MODEL 9
REMARK VINA RESULT:      -8.8      3.574      6.035
REMARK  5 active torsions:
REMARK  status: ('A' for Active; 'I' for Inactive)
REMARK    1  A    between atoms: C12_18  and  O2_2 
REMARK    2  A    between atoms: C6_12  and  O2_2 
REMARK       I    between atoms: C10_16  and  N1_6 
REMARK    3  A    between atoms: C10_16  and  C7_13 
REMARK    4  A    between atoms: C11_17  and  C13_19 
REMARK    5  A    between atoms: C12_18  and  C14_20 
ROOT
HETATM    1  O1  UNK     1      18.846   0.746  32.346  1.00  0.00    -0.274 OA
HETATM    2  O3  UNK     1      19.400  -1.384  31.734  1.00  0.00    -0.259 OA
HETATM    3  C1  UNK     1      18.885   2.521  30.684  1.00  0.00    -0.001 A 
HETATM    4  C2  UNK     1      18.666   2.098  31.991  1.00  0.00     0.092 A 
HETATM    5  C3  UNK     1      19.301   1.545  29.689  1.00  0.00     0.037 A 
HETATM    6  C4  UNK     1      18.696   3.869  30.371  1.00  0.00     0.017 A 
HETATM    7  C5  UNK     1      18.264   2.982  32.991  1.00  0.00     0.075 A 
HETATM    8  C6  UNK     1      18.079   4.325  32.670  1.00  0.00     0.082 A 
HETATM    9  C7  UNK     1      19.472   0.262  30.032  1.00  0.00     0.108 A 
HETATM   10  C8  UNK     1      18.293   4.768  31.363  1.00  0.00     0.038 A 
HETATM   11  C9  UNK     1      19.245  -0.210  31.417  1.00  0.00     0.304 A 
ENDROOT
BRANCH   8  12
HETATM   12  O2  UNK     1      17.687   5.206  33.630  1.00  0.00    -0.276 OA
BRANCH  12  13
HETATM   13  C12 UNK     1      18.636   6.193  33.922  1.00  0.00     0.288 C 
HETATM   14  O5  UNK     1      19.841   6.025  34.030  1.00  0.00    -0.260 OA
BRANCH  13  15
HETATM   15  C14 UNK     1      17.931   7.486  34.081  1.00  0.00     0.083 C 
HETATM   16  C13 UNK     1      18.583   8.630  33.827  1.00  0.00     0.017 C 
BRANCH  16  17
HETATM   17  C11 UNK     1      17.994   9.974  33.957  1.00  0.00    -0.036 A 
HETATM   18  C15 UNK     1      18.827  11.081  33.969  1.00  0.00     0.011 A 
HETATM   19  C17 UNK     1      18.269  12.355  34.092  1.00  0.00     0.001 A 
HETATM   20  C19 UNK     1      16.887  12.502  34.201  1.00  0.00     0.000 A 
HETATM   21  C18 UNK     1      16.061  11.378  34.188  1.00  0.00     0.001 A 
HETATM   22  C16 UNK     1      16.619  10.105  34.065  1.00  0.00     0.011 A 
ENDBRANCH  16  17
ENDBRANCH  13  15
ENDBRANCH  12  13
ENDBRANCH   8  12
BRANCH   9  23
HETATM   23  C10 UNK     1      19.894  -0.645  28.959  1.00  0.00     0.255 C 
HETATM   24  O4  UNK     1      19.390  -0.599  27.841  1.00  0.00    -0.268 OA
HETATM   25  N1  UNK     1      20.883  -1.518  29.342  1.00  0.00    -0.366 N 
HETATM   26  H12 UNK     1      21.261  -2.197  28.688  1.00  0.00     0.159 HD
HETATM   27  H13 UNK     1      21.275  -1.525  30.279  1.00  0.00     0.159 HD
ENDBRANCH   9  23
TORSDOF 5
ENDMDL
MODEL 10
REMARK VINA RESULT:      -8.8     23.264     25.514
REMARK  5 active torsions:
REMARK  status: ('A' for Active; 'I' for Inactive)
REMARK    1  A    between atoms: C12_18  and  O2_2 
REMARK    2  A    between atoms: C6_12  and  O2_2 
REMARK       I    between atoms: C10_16  and  N1_6 
REMARK    3  A    between atoms: C10_16  and  C7_13 
REMARK    4  A    between atoms: C11_17  and  C13_19 
REMARK    5  A    between atoms: C12_18  and  C14_20 
ROOT
HETATM    1  O1  UNK     1      13.822   4.869   8.914  1.00  0.00    -0.274 OA
HETATM    2  O3  UNK     1      15.974   4.526   9.601  1.00  0.00    -0.259 OA
HETATM    3  C1  UNK     1      12.780   7.038   9.269  1.00  0.00    -0.001 A 
HETATM    4  C2  UNK     1      12.714   5.732   8.796  1.00  0.00     0.092 A 
HETATM    5  C3  UNK     1      14.013   7.500   9.887  1.00  0.00     0.037 A 
HETATM    6  C4  UNK     1      11.660   7.862   9.133  1.00  0.00     0.017 A 
HETATM    7  C5  UNK     1      11.563   5.227   8.192  1.00  0.00     0.075 A 
HETATM    8  C6  UNK     1      10.450   6.056   8.062  1.00  0.00     0.082 A 
HETATM    9  C7  UNK     1      15.063   6.677   9.997  1.00  0.00     0.108 A 
HETATM   10  C8  UNK     1      10.498   7.370   8.530  1.00  0.00     0.038 A 
HETATM   11  C9  UNK     1      15.014   5.283   9.501  1.00  0.00     0.304 A 
ENDROOT
BRANCH   8  12
HETATM   12  O2  UNK     1       9.316   5.584   7.476  1.00  0.00    -0.276 OA
BRANCH  12  13
HETATM   13  C12 UNK     1       8.133   6.026   8.082  1.00  0.00     0.288 C 
HETATM   14  O5  UNK     1       7.531   7.056   7.819  1.00  0.00    -0.260 OA
BRANCH  13  15
HETATM   15  C14 UNK     1       7.732   5.030   9.102  1.00  0.00     0.083 C 
HETATM   16  C13 UNK     1       6.717   5.308   9.933  1.00  0.00     0.017 C 
BRANCH  16  17
HETATM   17  C11 UNK     1       6.232   4.406  10.991  1.00  0.00    -0.036 A 
HETATM   18  C15 UNK     1       5.936   3.090  10.679  1.00  0.00     0.011 A 
HETATM   19  C17 UNK     1       5.477   2.235  11.682  1.00  0.00     0.001 A 
HETATM   20  C19 UNK     1       5.322   2.709  12.984  1.00  0.00     0.000 A 
HETATM   21  C18 UNK     1       5.624   4.037  13.284  1.00  0.00     0.001 A 
HETATM   22  C16 UNK     1       6.083   4.891  12.281  1.00  0.00     0.011 A 
ENDBRANCH  16  17
ENDBRANCH  13  15
ENDBRANCH  12  13
ENDBRANCH   8  12
BRANCH   9  23
HETATM   23  C10 UNK     1      16.260   7.235  10.636  1.00  0.00     0.255 C 
HETATM   24  O4  UNK     1      16.185   7.941  11.638  1.00  0.00    -0.268 OA
HETATM   25  N1  UNK     1      17.428   6.887  10.002  1.00  0.00    -0.366 N 
HETATM   26  H12 UNK     1      18.325   7.211  10.349  1.00  0.00     0.159 HD
HETATM   27  H13 UNK     1      17.447   6.300   9.173  1.00  0.00     0.159 HD
ENDBRANCH   9  23
TORSDOF 5
ENDMDL
