MODEL 1
REMARK VINA RESULT:      -8.5      0.000      0.000
REMARK  1 active torsions:
REMARK  status: ('A' for Active; 'I' for Inactive)
REMARK    1  A    between atoms: C1_7  and  C5_11 
ROOT
HETATM    1  O1  UNK     1      28.342  -8.410  34.691  1.00  0.00    -0.289 OA
HETATM    2  O2  UNK     1      28.994  -6.405  38.307  1.00  0.00    -0.274 OA
HETATM    3  O3  UNK     1      30.076  -4.736  37.191  1.00  0.00    -0.259 OA
HETATM    4  O4  UNK     1      30.168  -5.032  31.878  1.00  0.00    -0.267 OA
HETATM    5  N1  UNK     1      29.082  -6.855  30.986  1.00  0.00    -0.311 N 
HETATM    6  N2  UNK     1      28.162  -8.535  32.361  1.00  0.00    -0.210 NA
HETATM    7  C1  UNK     1      29.877  -5.977  34.602  1.00  0.00     0.103 C 
HETATM    8  C2  UNK     1      29.299  -6.560  35.880  1.00  0.00     0.066 A 
HETATM    9  C3  UNK     1      29.345  -6.694  33.375  1.00  0.00     0.076 A 
HETATM   10  C4  UNK     1      28.602  -7.708  35.856  1.00  0.00     0.104 A 
HETATM   11  C6  UNK     1      28.638  -7.842  33.452  1.00  0.00     0.184 A 
HETATM   12  C7  UNK     1      28.073  -8.296  37.085  1.00  0.00     0.033 A 
HETATM   13  C8  UNK     1      29.497  -5.816  37.151  1.00  0.00     0.298 A 
HETATM   14  C9  UNK     1      29.582  -6.099  32.027  1.00  0.00     0.258 A 
HETATM   15  C10 UNK     1      28.292  -7.625  38.283  1.00  0.00     0.092 A 
HETATM   16  C13 UNK     1      28.399  -8.031  31.193  1.00  0.00     0.105 A 
HETATM   17  C14 UNK     1      27.362  -9.501  37.123  1.00  0.00     0.017 A 
HETATM   18  C15 UNK     1      27.829  -8.115  39.504  1.00  0.00     0.038 A 
HETATM   19  C18 UNK     1      26.890 -10.007  38.339  1.00  0.00     0.001 A 
HETATM   20  C20 UNK     1      27.123  -9.315  39.528  1.00  0.00     0.003 A 
HETATM   21  C21 UNK     1      27.914  -8.728  29.955  1.00  0.00     0.091 C 
HETATM   22  H4  UNK     1      29.220  -6.512  30.039  1.00  0.00     0.170 HD
ENDROOT
BRANCH   7  23
HETATM   23  C5  UNK     1      31.375  -6.040  34.630  1.00  0.00    -0.045 A 
HETATM   24  C11 UNK     1      32.114  -4.862  34.618  1.00  0.00     0.008 A 
HETATM   25  C16 UNK     1      33.507  -4.920  34.644  1.00  0.00     0.001 A 
HETATM   26  C19 UNK     1      34.153  -6.156  34.683  1.00  0.00     0.000 A 
HETATM   27  C17 UNK     1      33.406  -7.333  34.695  1.00  0.00     0.001 A 
HETATM   28  C12 UNK     1      32.013  -7.275  34.668  1.00  0.00     0.008 A 
ENDBRANCH   7  23
TORSDOF 1
ENDMDL
MODEL 2
REMARK VINA RESULT:      -8.4     18.432     22.571
REMARK  1 active torsions:
REMARK  status: ('A' for Active; 'I' for Inactive)
REMARK    1  A    between atoms: C1_7  and  C5_11 
ROOT
HETATM    1  O1  UNK     1      22.041  -5.717  15.150  1.00  0.00    -0.289 OA
HETATM    2  O2  UNK     1      21.268  -2.351  17.515  1.00  0.00    -0.274 OA
HETATM    3  O3  UNK     1      19.294  -2.029  16.418  1.00  0.00    -0.259 OA
HETATM    4  O4  UNK     1      17.884  -5.699  12.832  1.00  0.00    -0.267 OA
HETATM    5  N1  UNK     1      19.366  -7.444  12.591  1.00  0.00    -0.311 N 
HETATM    6  N2  UNK     1      21.426  -7.478  13.738  1.00  0.00    -0.210 NA
HETATM    7  C1  UNK     1      19.655  -4.213  14.579  1.00  0.00     0.103 C 
HETATM    8  C2  UNK     1      20.633  -3.850  15.683  1.00  0.00     0.066 A 
HETATM    9  C3  UNK     1      19.963  -5.578  13.992  1.00  0.00     0.076 A 
HETATM   10  C4  UNK     1      21.737  -4.586  15.890  1.00  0.00     0.104 A 
HETATM   11  C6  UNK     1      21.099  -6.251  14.272  1.00  0.00     0.184 A 
HETATM   12  C7  UNK     1      22.703  -4.225  16.925  1.00  0.00     0.033 A 
HETATM   13  C8  UNK     1      20.325  -2.680  16.547  1.00  0.00     0.298 A 
HETATM   14  C9  UNK     1      18.963  -6.223  13.091  1.00  0.00     0.258 A 
HETATM   15  C10 UNK     1      22.440  -3.106  17.709  1.00  0.00     0.092 A 
HETATM   16  C13 UNK     1      20.569  -8.017  12.931  1.00  0.00     0.105 A 
HETATM   17  C14 UNK     1      23.881  -4.940  17.169  1.00  0.00     0.017 A 
HETATM   18  C15 UNK     1      23.308  -2.684  18.716  1.00  0.00     0.038 A 
HETATM   19  C18 UNK     1      24.764  -4.530  18.175  1.00  0.00     0.001 A 
HETATM   20  C20 UNK     1      24.477  -3.404  18.947  1.00  0.00     0.003 A 
HETATM   21  C21 UNK     1      20.853  -9.353  12.307  1.00  0.00     0.091 C 
HETATM   22  H4  UNK     1      18.735  -7.932  11.961  1.00  0.00     0.170 HD
ENDROOT
BRANCH   7  23
HETATM   23  C5  UNK     1      19.672  -3.169  13.502  1.00  0.00    -0.045 A 
HETATM   24  C11 UNK     1      18.679  -2.195  13.471  1.00  0.00     0.008 A 
HETATM   25  C16 UNK     1      18.695  -1.225  12.470  1.00  0.00     0.001 A 
HETATM   26  C19 UNK     1      19.704  -1.233  11.506  1.00  0.00     0.000 A 
HETATM   27  C17 UNK     1      20.696  -2.212  11.544  1.00  0.00     0.001 A 
HETATM   28  C12 UNK     1      20.680  -3.183  12.544  1.00  0.00     0.008 A 
ENDBRANCH   7  23
TORSDOF 1
ENDMDL
MODEL 3
REMARK VINA RESULT:      -8.3      2.434      4.894
REMARK  1 active torsions:
REMARK  status: ('A' for Active; 'I' for Inactive)
REMARK    1  A    between atoms: C1_7  and  C5_11 
ROOT
HETATM    1  O1  UNK     1      31.718  -6.044  34.935  1.00  0.00    -0.289 OA
HETATM    2  O2  UNK     1      28.104  -7.218  36.690  1.00  0.00    -0.274 OA
HETATM    3  O3  UNK     1      27.851  -8.832  35.098  1.00  0.00    -0.259 OA
HETATM    4  O4  UNK     1      31.844  -9.475  31.639  1.00  0.00    -0.267 OA
HETATM    5  N1  UNK     1      33.640  -8.071  31.954  1.00  0.00    -0.311 N 
HETATM    6  N2  UNK     1      33.603  -6.371  33.588  1.00  0.00    -0.210 NA
HETATM    7  C1  UNK     1      30.225  -8.129  33.631  1.00  0.00     0.103 C 
HETATM    8  C2  UNK     1      29.772  -7.444  34.909  1.00  0.00     0.066 A 
HETATM    9  C3  UNK     1      31.651  -7.753  33.275  1.00  0.00     0.076 A 
HETATM   10  C4  UNK     1      30.509  -6.467  35.461  1.00  0.00     0.104 A 
HETATM   11  C6  UNK     1      32.320  -6.759  33.900  1.00  0.00     0.184 A 
HETATM   12  C7  UNK     1      30.064  -5.777  36.670  1.00  0.00     0.033 A 
HETATM   13  C8  UNK     1      28.510  -7.901  35.548  1.00  0.00     0.298 A 
HETATM   14  C9  UNK     1      32.363  -8.524  32.214  1.00  0.00     0.258 A 
HETATM   15  C10 UNK     1      28.862  -6.172  37.249  1.00  0.00     0.092 A 
HETATM   16  C13 UNK     1      34.203  -7.023  32.644  1.00  0.00     0.105 A 
HETATM   17  C14 UNK     1      30.778  -4.736  37.274  1.00  0.00     0.017 A 
HETATM   18  C15 UNK     1      28.358  -5.566  38.399  1.00  0.00     0.038 A 
HETATM   19  C18 UNK     1      30.286  -4.116  38.429  1.00  0.00     0.001 A 
HETATM   20  C20 UNK     1      29.079  -4.531  38.990  1.00  0.00     0.003 A 
HETATM   21  C21 UNK     1      35.604  -6.659  32.245  1.00  0.00     0.091 C 
HETATM   22  H4  UNK     1      34.176  -8.546  31.233  1.00  0.00     0.170 HD
ENDROOT
BRANCH   7  23
HETATM   23  C5  UNK     1      29.302  -7.789  32.499  1.00  0.00    -0.045 A 
HETATM   24  C11 UNK     1      28.625  -8.805  31.833  1.00  0.00     0.008 A 
HETATM   25  C16 UNK     1      27.766  -8.488  30.781  1.00  0.00     0.001 A 
HETATM   26  C19 UNK     1      27.588  -7.157  30.402  1.00  0.00     0.000 A 
HETATM   27  C17 UNK     1      28.269  -6.144  31.075  1.00  0.00     0.001 A 
HETATM   28  C12 UNK     1      29.129  -6.460  32.127  1.00  0.00     0.008 A 
ENDBRANCH   7  23
TORSDOF 1
ENDMDL
MODEL 4
REMARK VINA RESULT:      -8.2      2.448      5.720
REMARK  1 active torsions:
REMARK  status: ('A' for Active; 'I' for Inactive)
REMARK    1  A    between atoms: C1_7  and  C5_11 
ROOT
HETATM    1  O1  UNK     1      28.925  -6.679  34.749  1.00  0.00    -0.289 OA
HETATM    2  O2  UNK     1      30.937  -7.848  31.270  1.00  0.00    -0.274 OA
HETATM    3  O3  UNK     1      32.808  -8.293  32.497  1.00  0.00    -0.259 OA
HETATM    4  O4  UNK     1      32.417  -7.806  37.782  1.00  0.00    -0.267 OA
HETATM    5  N1  UNK     1      30.342  -7.172  38.550  1.00  0.00    -0.311 N 
HETATM    6  N2  UNK     1      28.595  -6.619  37.065  1.00  0.00    -0.210 NA
HETATM    7  C1  UNK     1      31.695  -7.417  35.002  1.00  0.00     0.103 C 
HETATM    8  C2  UNK     1      30.938  -7.432  33.685  1.00  0.00     0.066 A 
HETATM    9  C3  UNK     1      30.759  -7.205  36.177  1.00  0.00     0.076 A 
HETATM   10  C4  UNK     1      29.648  -7.063  33.632  1.00  0.00     0.104 A 
HETATM   11  C6  UNK     1      29.466  -6.847  36.024  1.00  0.00     0.184 A 
HETATM   12  C7  UNK     1      28.921  -7.039  32.365  1.00  0.00     0.033 A 
HETATM   13  C8  UNK     1      31.649  -7.893  32.464  1.00  0.00     0.298 A 
HETATM   14  C9  UNK     1      31.271  -7.427  37.562  1.00  0.00     0.258 A 
HETATM   15  C10 UNK     1      29.594  -7.429  31.212  1.00  0.00     0.092 A 
HETATM   16  C13 UNK     1      29.054  -6.782  38.265  1.00  0.00     0.105 A 
HETATM   17  C14 UNK     1      27.585  -6.640  32.246  1.00  0.00     0.017 A 
HETATM   18  C15 UNK     1      28.981  -7.432  29.959  1.00  0.00     0.038 A 
HETATM   19  C18 UNK     1      26.954  -6.637  30.997  1.00  0.00     0.001 A 
HETATM   20  C20 UNK     1      27.651  -7.033  29.855  1.00  0.00     0.003 A 
HETATM   21  C21 UNK     1      28.166  -6.551  39.452  1.00  0.00     0.091 C 
HETATM   22  H4  UNK     1      30.630  -7.293  39.517  1.00  0.00     0.170 HD
ENDROOT
BRANCH   7  23
HETATM   23  C5  UNK     1      32.754  -6.355  34.984  1.00  0.00    -0.045 A 
HETATM   24  C11 UNK     1      34.093  -6.716  35.084  1.00  0.00     0.008 A 
HETATM   25  C16 UNK     1      35.078  -5.728  35.067  1.00  0.00     0.001 A 
HETATM   26  C19 UNK     1      34.717  -4.386  34.949  1.00  0.00     0.000 A 
HETATM   27  C17 UNK     1      33.372  -4.032  34.848  1.00  0.00     0.001 A 
HETATM   28  C12 UNK     1      32.388  -5.019  34.866  1.00  0.00     0.008 A 
ENDBRANCH   7  23
TORSDOF 1
ENDMDL
MODEL 5
REMARK VINA RESULT:      -8.1      2.096      3.079
REMARK  1 active torsions:
REMARK  status: ('A' for Active; 'I' for Inactive)
REMARK    1  A    between atoms: C1_7  and  C5_11 
ROOT
HETATM    1  O1  UNK     1      29.337  -6.944  34.395  1.00  0.00    -0.289 OA
HETATM    2  O2  UNK     1      32.055  -4.712  36.663  1.00  0.00    -0.274 OA
HETATM    3  O3  UNK     1      33.510  -4.690  34.907  1.00  0.00    -0.259 OA
HETATM    4  O4  UNK     1      31.840  -6.866  30.346  1.00  0.00    -0.267 OA
HETATM    5  N1  UNK     1      29.700  -7.713  30.398  1.00  0.00    -0.311 N 
HETATM    6  N2  UNK     1      28.439  -7.753  32.391  1.00  0.00    -0.210 NA
HETATM    7  C1  UNK     1      31.880  -6.331  33.195  1.00  0.00     0.103 C 
HETATM    8  C2  UNK     1      31.481  -5.888  34.592  1.00  0.00     0.066 A 
HETATM    9  C3  UNK     1      30.699  -6.912  32.439  1.00  0.00     0.076 A 
HETATM   10  C4  UNK     1      30.284  -6.219  35.100  1.00  0.00     0.104 A 
HETATM   11  C6  UNK     1      29.523  -7.200  33.036  1.00  0.00     0.184 A 
HETATM   12  C7  UNK     1      29.904  -5.830  36.456  1.00  0.00     0.033 A 
HETATM   13  C8  UNK     1      32.436  -5.057  35.371  1.00  0.00     0.298 A 
HETATM   14  C9  UNK     1      30.823  -7.152  30.971  1.00  0.00     0.258 A 
HETATM   15  C10 UNK     1      30.812  -5.087  37.206  1.00  0.00     0.092 A 
HETATM   16  C13 UNK     1      28.565  -7.988  31.124  1.00  0.00     0.105 A 
HETATM   17  C14 UNK     1      28.681  -6.167  37.046  1.00  0.00     0.017 A 
HETATM   18  C15 UNK     1      30.537  -4.677  38.510  1.00  0.00     0.038 A 
HETATM   19  C18 UNK     1      28.389  -5.764  38.354  1.00  0.00     0.001 A 
HETATM   20  C20 UNK     1      29.316  -5.020  39.085  1.00  0.00     0.003 A 
HETATM   21  C21 UNK     1      27.428  -8.591  30.350  1.00  0.00     0.091 C 
HETATM   22  H4  UNK     1      29.723  -7.913  29.402  1.00  0.00     0.170 HD
ENDROOT
BRANCH   7  23
HETATM   23  C5  UNK     1      32.996  -7.331  33.261  1.00  0.00    -0.045 A 
HETATM   24  C11 UNK     1      32.789  -8.554  33.888  1.00  0.00     0.008 A 
HETATM   25  C16 UNK     1      33.826  -9.484  33.949  1.00  0.00     0.001 A 
HETATM   26  C19 UNK     1      35.065  -9.184  33.382  1.00  0.00     0.000 A 
HETATM   27  C17 UNK     1      35.266  -7.956  32.754  1.00  0.00     0.001 A 
HETATM   28  C12 UNK     1      34.228  -7.026  32.693  1.00  0.00     0.008 A 
ENDBRANCH   7  23
TORSDOF 1
ENDMDL
MODEL 6
REMARK VINA RESULT:      -8.1      2.992      5.751
REMARK  1 active torsions:
REMARK  status: ('A' for Active; 'I' for Inactive)
REMARK    1  A    between atoms: C1_7  and  C5_11 
ROOT
HETATM    1  O1  UNK     1      29.415  -6.332  34.677  1.00  0.00    -0.289 OA
HETATM    2  O2  UNK     1      30.049  -9.249  31.743  1.00  0.00    -0.274 OA
HETATM    3  O3  UNK     1      31.826 -10.056  32.923  1.00  0.00    -0.259 OA
HETATM    4  O4  UNK     1      32.777  -7.865  37.679  1.00  0.00    -0.267 OA
HETATM    5  N1  UNK     1      31.310  -6.202  38.295  1.00  0.00    -0.311 N 
HETATM    6  N2  UNK     1      29.631  -5.434  36.827  1.00  0.00    -0.210 NA
HETATM    7  C1  UNK     1      31.685  -8.071  35.002  1.00  0.00     0.103 C 
HETATM    8  C2  UNK     1      30.719  -8.160  33.834  1.00  0.00     0.066 A 
HETATM    9  C3  UNK     1      31.172  -7.131  36.077  1.00  0.00     0.076 A 
HETATM   10  C4  UNK     1      29.685  -7.309  33.733  1.00  0.00     0.104 A 
HETATM   11  C6  UNK     1      30.110  -6.319  35.887  1.00  0.00     0.184 A 
HETATM   12  C7  UNK     1      28.770  -7.363  32.595  1.00  0.00     0.033 A 
HETATM   13  C8  UNK     1      30.926  -9.229  32.822  1.00  0.00     0.298 A 
HETATM   14  C9  UNK     1      31.841  -7.118  37.410  1.00  0.00     0.258 A 
HETATM   15  C10 UNK     1      28.985  -8.335  31.623  1.00  0.00     0.092 A 
HETATM   16  C13 UNK     1      30.237  -5.404  37.971  1.00  0.00     0.105 A 
HETATM   17  C14 UNK     1      27.692  -6.487  32.425  1.00  0.00     0.017 A 
HETATM   18  C15 UNK     1      28.166  -8.456  30.500  1.00  0.00     0.038 A 
HETATM   19  C18 UNK     1      26.861  -6.594  31.305  1.00  0.00     0.001 A 
HETATM   20  C20 UNK     1      27.097  -7.577  30.344  1.00  0.00     0.003 A 
HETATM   21  C21 UNK     1      29.775  -4.465  39.047  1.00  0.00     0.091 C 
HETATM   22  H4  UNK     1      31.729  -6.133  39.218  1.00  0.00     0.170 HD
ENDROOT
BRANCH   7  23
HETATM   23  C5  UNK     1      33.038  -7.627  34.529  1.00  0.00    -0.045 A 
HETATM   24  C11 UNK     1      34.094  -8.532  34.515  1.00  0.00     0.008 A 
HETATM   25  C16 UNK     1      35.351  -8.119  34.074  1.00  0.00     0.001 A 
HETATM   26  C19 UNK     1      35.544  -6.805  33.649  1.00  0.00     0.000 A 
HETATM   27  C17 UNK     1      34.481  -5.903  33.665  1.00  0.00     0.001 A 
HETATM   28  C12 UNK     1      33.224  -6.315  34.106  1.00  0.00     0.008 A 
ENDBRANCH   7  23
TORSDOF 1
ENDMDL
MODEL 7
REMARK VINA RESULT:      -8.1      3.106      6.224
REMARK  1 active torsions:
REMARK  status: ('A' for Active; 'I' for Inactive)
REMARK    1  A    between atoms: C1_7  and  C5_11 
ROOT
HETATM    1  O1  UNK     1      32.870  -7.086  33.109  1.00  0.00    -0.289 OA
HETATM    2  O2  UNK     1      28.897  -6.070  33.947  1.00  0.00    -0.274 OA
HETATM    3  O3  UNK     1      29.381  -5.998  36.175  1.00  0.00    -0.259 OA
HETATM    4  O4  UNK     1      34.467  -6.700  37.576  1.00  0.00    -0.267 OA
HETATM    5  N1  UNK     1      35.922  -7.033  35.825  1.00  0.00    -0.311 N 
HETATM    6  N2  UNK     1      35.154  -7.218  33.603  1.00  0.00    -0.210 NA
HETATM    7  C1  UNK     1      32.124  -6.817  35.875  1.00  0.00     0.103 C 
HETATM    8  C2  UNK     1      31.159  -6.610  34.720  1.00  0.00     0.066 A 
HETATM    9  C3  UNK     1      33.555  -6.939  35.387  1.00  0.00     0.076 A 
HETATM   10  C4  UNK     1      31.567  -6.764  33.451  1.00  0.00     0.104 A 
HETATM   11  C6  UNK     1      33.870  -7.077  34.081  1.00  0.00     0.184 A 
HETATM   12  C7  UNK     1      30.639  -6.602  32.334  1.00  0.00     0.033 A 
HETATM   13  C8  UNK     1      29.763  -6.205  35.028  1.00  0.00     0.298 A 
HETATM   14  C9  UNK     1      34.669  -6.877  36.379  1.00  0.00     0.258 A 
HETATM   15  C10 UNK     1      29.320  -6.264  32.618  1.00  0.00     0.092 A 
HETATM   16  C13 UNK     1      36.113  -7.195  34.472  1.00  0.00     0.105 A 
HETATM   17  C14 UNK     1      31.002  -6.775  30.993  1.00  0.00     0.017 A 
HETATM   18  C15 UNK     1      28.364  -6.095  31.616  1.00  0.00     0.038 A 
HETATM   19  C18 UNK     1      30.056  -6.609  29.976  1.00  0.00     0.001 A 
HETATM   20  C20 UNK     1      28.739  -6.270  30.287  1.00  0.00     0.003 A 
HETATM   21  C21 UNK     1      37.539  -7.344  34.029  1.00  0.00     0.091 C 
HETATM   22  H4  UNK     1      36.724  -7.012  36.448  1.00  0.00     0.170 HD
ENDROOT
BRANCH   7  23
HETATM   23  C5  UNK     1      31.740  -8.033  36.665  1.00  0.00    -0.045 A 
HETATM   24  C11 UNK     1      31.397  -7.903  38.007  1.00  0.00     0.008 A 
HETATM   25  C16 UNK     1      31.040  -9.034  38.741  1.00  0.00     0.001 A 
HETATM   26  C19 UNK     1      31.026 -10.287  38.129  1.00  0.00     0.000 A 
HETATM   27  C17 UNK     1      31.370 -10.410  36.784  1.00  0.00     0.001 A 
HETATM   28  C12 UNK     1      31.728  -9.280  36.049  1.00  0.00     0.008 A 
ENDBRANCH   7  23
TORSDOF 1
ENDMDL
MODEL 8
REMARK VINA RESULT:      -8.0      2.322      5.667
REMARK  1 active torsions:
REMARK  status: ('A' for Active; 'I' for Inactive)
REMARK    1  A    between atoms: C1_7  and  C5_11 
ROOT
HETATM    1  O1  UNK     1      31.882  -6.481  33.390  1.00  0.00    -0.289 OA
HETATM    2  O2  UNK     1      34.469  -7.658  36.462  1.00  0.00    -0.274 OA
HETATM    3  O3  UNK     1      32.682  -8.040  37.827  1.00  0.00    -0.259 OA
HETATM    4  O4  UNK     1      27.839  -7.480  35.695  1.00  0.00    -0.267 OA
HETATM    5  N1  UNK     1      27.817  -6.882  33.472  1.00  0.00    -0.311 N 
HETATM    6  N2  UNK     1      29.809  -6.392  32.308  1.00  0.00    -0.210 NA
HETATM    7  C1  UNK     1      30.708  -7.151  35.930  1.00  0.00     0.103 C 
HETATM    8  C2  UNK     1      32.201  -7.205  35.654  1.00  0.00     0.066 A 
HETATM    9  C3  UNK     1      29.915  -6.943  34.654  1.00  0.00     0.076 A 
HETATM   10  C4  UNK     1      32.687  -6.866  34.449  1.00  0.00     0.104 A 
HETATM   11  C6  UNK     1      30.497  -6.616  33.480  1.00  0.00     0.184 A 
HETATM   12  C7  UNK     1      34.124  -6.879  34.183  1.00  0.00     0.033 A 
HETATM   13  C8  UNK     1      33.106  -7.668  36.738  1.00  0.00     0.298 A 
HETATM   14  C9  UNK     1      28.434  -7.131  34.681  1.00  0.00     0.258 A 
HETATM   15  C10 UNK     1      34.979  -7.272  35.208  1.00  0.00     0.092 A 
HETATM   16  C13 UNK     1      28.521  -6.526  32.346  1.00  0.00     0.105 A 
HETATM   17  C14 UNK     1      34.688  -6.513  32.956  1.00  0.00     0.017 A 
HETATM   18  C15 UNK     1      36.364  -7.308  35.046  1.00  0.00     0.038 A 
HETATM   19  C18 UNK     1      36.076  -6.544  32.776  1.00  0.00     0.001 A 
HETATM   20  C20 UNK     1      36.912  -6.941  33.819  1.00  0.00     0.003 A 
HETATM   21  C21 UNK     1      27.701  -6.297  31.110  1.00  0.00     0.091 C 
HETATM   22  H4  UNK     1      26.806  -6.980  33.425  1.00  0.00     0.170 HD
ENDROOT
BRANCH   7  23
HETATM   23  C5  UNK     1      30.398  -6.065  36.918  1.00  0.00    -0.045 A 
HETATM   24  C11 UNK     1      29.707  -6.372  38.085  1.00  0.00     0.008 A 
HETATM   25  C16 UNK     1      29.418  -5.363  39.003  1.00  0.00     0.001 A 
HETATM   26  C19 UNK     1      29.824  -4.052  38.748  1.00  0.00     0.000 A 
HETATM   27  C17 UNK     1      30.518  -3.752  37.577  1.00  0.00     0.001 A 
HETATM   28  C12 UNK     1      30.805  -4.761  36.658  1.00  0.00     0.008 A 
ENDBRANCH   7  23
TORSDOF 1
ENDMDL
MODEL 9
REMARK VINA RESULT:      -8.0      2.093      4.514
REMARK  1 active torsions:
REMARK  status: ('A' for Active; 'I' for Inactive)
REMARK    1  A    between atoms: C1_7  and  C5_11 
ROOT
HETATM    1  O1  UNK     1      30.427  -6.782  36.446  1.00  0.00    -0.289 OA
HETATM    2  O2  UNK     1      27.705  -9.932  36.013  1.00  0.00    -0.274 OA
HETATM    3  O3  UNK     1      28.479 -10.316  33.902  1.00  0.00    -0.259 OA
HETATM    4  O4  UNK     1      32.632  -7.413  32.275  1.00  0.00    -0.267 OA
HETATM    5  N1  UNK     1      33.437  -5.912  33.823  1.00  0.00    -0.311 N 
HETATM    6  N2  UNK     1      32.365  -5.591  35.900  1.00  0.00    -0.210 NA
HETATM    7  C1  UNK     1      30.338  -8.119  33.899  1.00  0.00     0.103 C 
HETATM    8  C2  UNK     1      29.458  -8.497  35.078  1.00  0.00     0.066 A 
HETATM    9  C3  UNK     1      31.416  -7.132  34.306  1.00  0.00     0.076 A 
HETATM   10  C4  UNK     1      29.538  -7.823  36.237  1.00  0.00     0.104 A 
HETATM   11  C6  UNK     1      31.421  -6.512  35.506  1.00  0.00     0.184 A 
HETATM   12  C7  UNK     1      28.671  -8.155  37.365  1.00  0.00     0.033 A 
HETATM   13  C8  UNK     1      28.528  -9.647  34.928  1.00  0.00     0.298 A 
HETATM   14  C9  UNK     1      32.536  -6.849  33.361  1.00  0.00     0.258 A 
HETATM   15  C10 UNK     1      27.769  -9.204  37.216  1.00  0.00     0.092 A 
HETATM   16  C13 UNK     1      33.316  -5.326  35.062  1.00  0.00     0.105 A 
HETATM   17  C14 UNK     1      28.693  -7.473  38.586  1.00  0.00     0.017 A 
HETATM   18  C15 UNK     1      26.899  -9.586  38.237  1.00  0.00     0.038 A 
HETATM   19  C18 UNK     1      27.827  -7.842  39.622  1.00  0.00     0.001 A 
HETATM   20  C20 UNK     1      26.932  -8.898  39.447  1.00  0.00     0.003 A 
HETATM   21  C21 UNK     1      34.383  -4.332  35.418  1.00  0.00     0.091 C 
HETATM   22  H4  UNK     1      34.218  -5.665  33.222  1.00  0.00     0.170 HD
ENDROOT
BRANCH   7  23
HETATM   23  C5  UNK     1      29.507  -7.551  32.787  1.00  0.00    -0.045 A 
HETATM   24  C11 UNK     1      28.801  -6.370  32.989  1.00  0.00     0.008 A 
HETATM   25  C16 UNK     1      28.029  -5.842  31.955  1.00  0.00     0.001 A 
HETATM   26  C19 UNK     1      27.969  -6.497  30.724  1.00  0.00     0.000 A 
HETATM   27  C17 UNK     1      28.680  -7.680  30.529  1.00  0.00     0.001 A 
HETATM   28  C12 UNK     1      29.451  -8.209  31.563  1.00  0.00     0.008 A 
ENDBRANCH   7  23
TORSDOF 1
ENDMDL
MODEL 10
REMARK VINA RESULT:      -8.0      2.604      5.714
REMARK  1 active torsions:
REMARK  status: ('A' for Active; 'I' for Inactive)
REMARK    1  A    between atoms: C1_7  and  C5_11 
ROOT
HETATM    1  O1  UNK     1      28.389  -7.744  35.053  1.00  0.00    -0.289 OA
HETATM    2  O2  UNK     1      31.284  -7.893  32.034  1.00  0.00    -0.274 OA
HETATM    3  O3  UNK     1      32.796  -8.737  33.520  1.00  0.00    -0.259 OA
HETATM    4  O4  UNK     1      31.032  -9.821  38.422  1.00  0.00    -0.267 OA
HETATM    5  N1  UNK     1      28.801  -9.380  38.774  1.00  0.00    -0.311 N 
HETATM    6  N2  UNK     1      27.470  -8.361  37.115  1.00  0.00    -0.210 NA
HETATM    7  C1  UNK     1      31.033  -8.607  35.791  1.00  0.00     0.103 C 
HETATM    8  C2  UNK     1      30.642  -8.209  34.378  1.00  0.00     0.066 A 
HETATM    9  C3  UNK     1      29.817  -8.724  36.691  1.00  0.00     0.076 A 
HETATM   10  C4  UNK     1      29.393  -7.802  34.101  1.00  0.00     0.104 A 
HETATM   11  C6  UNK     1      28.591  -8.297  36.317  1.00  0.00     0.184 A 
HETATM   12  C7  UNK     1      29.017  -7.384  32.753  1.00  0.00     0.033 A 
HETATM   13  C8  UNK     1      31.666  -8.310  33.305  1.00  0.00     0.298 A 
HETATM   14  C9  UNK     1      29.964  -9.360  38.033  1.00  0.00     0.258 A 
HETATM   15  C10 UNK     1      29.983  -7.436  31.753  1.00  0.00     0.092 A 
HETATM   16  C13 UNK     1      27.612  -8.885  38.290  1.00  0.00     0.105 A 
HETATM   17  C14 UNK     1      27.738  -6.927  32.412  1.00  0.00     0.017 A 
HETATM   18  C15 UNK     1      29.714  -7.050  30.440  1.00  0.00     0.038 A 
HETATM   19  C18 UNK     1      27.452  -6.536  31.099  1.00  0.00     0.001 A 
HETATM   20  C20 UNK     1      28.438  -6.598  30.115  1.00  0.00     0.003 A 
HETATM   21  C21 UNK     1      26.437  -8.988  39.219  1.00  0.00     0.091 C 
HETATM   22  H4  UNK     1      28.835  -9.789  39.703  1.00  0.00     0.170 HD
ENDROOT
BRANCH   7  23
HETATM   23  C5  UNK     1      32.007  -7.619  36.362  1.00  0.00    -0.045 A 
HETATM   24  C11 UNK     1      31.639  -6.284  36.491  1.00  0.00     0.008 A 
HETATM   25  C16 UNK     1      32.545  -5.367  37.022  1.00  0.00     0.001 A 
HETATM   26  C19 UNK     1      33.813  -5.789  37.421  1.00  0.00     0.000 A 
HETATM   27  C17 UNK     1      34.175  -7.129  37.289  1.00  0.00     0.001 A 
HETATM   28  C12 UNK     1      33.269  -8.047  36.758  1.00  0.00     0.008 A 
ENDBRANCH   7  23
TORSDOF 1
ENDMDL
