MODEL 1
REMARK VINA RESULT:      -8.7      0.000      0.000
REMARK  6 active torsions:
REMARK  status: ('A' for Active; 'I' for Inactive)
REMARK    1  A    between atoms: C12_19  and  O2_2 
REMARK    2  A    between atoms: C6_13  and  O2_2 
REMARK    3  A    between atoms: C1_8  and  N1_6 
REMARK    4  A    between atoms: C3_10  and  N1_6 
REMARK    5  A    between atoms: C5_12  and  N2_7 
REMARK    6  A    between atoms: C3_10  and  C6_13 
ROOT
HETATM    1  O1  UNK     1      18.706   1.380  31.454  1.00  0.00    -0.273 OA
HETATM    2  O3  UNK     1      17.800   2.397  33.284  1.00  0.00    -0.257 OA
HETATM    3  C1  UNK     1      19.102  -0.969  33.050  1.00  0.00     0.081 A 
HETATM    4  C2  UNK     1      19.515  -0.930  31.623  1.00  0.00     0.027 A 
HETATM    5  C4  UNK     1      19.302   0.238  30.881  1.00  0.00     0.092 A 
HETATM    6  C5  UNK     1      18.546   0.158  33.526  1.00  0.00     0.205 A 
HETATM    7  C7  UNK     1      20.121  -2.003  30.948  1.00  0.00     0.017 A 
HETATM    8  C8  UNK     1      18.310   1.403  32.780  1.00  0.00     0.324 A 
HETATM    9  C9  UNK     1      19.660   0.355  29.534  1.00  0.00     0.038 A 
HETATM   10  C10 UNK     1      20.487  -1.900  29.599  1.00  0.00     0.001 A 
HETATM   11  C11 UNK     1      20.256  -0.724  28.892  1.00  0.00     0.003 A 
ENDROOT
BRANCH   3  12
HETATM   12  N1  UNK     1      19.317  -2.126  33.752  1.00  0.00    -0.385 N 
HETATM   13  H3  UNK     1      18.688  -2.907  33.612  1.00  0.00     0.159 HD
BRANCH  12  14
HETATM   14  C3  UNK     1      20.495  -2.361  34.541  1.00  0.00     0.146 C 
BRANCH  14  15
HETATM   15  C6  UNK     1      20.131  -3.127  35.802  1.00  0.00     0.195 C 
BRANCH  15  16
HETATM   16  O2  UNK     1      20.148  -4.522  35.530  1.00  0.00    -0.350 OA
BRANCH  16  17
HETATM   17  C12 UNK     1      20.000  -5.362  36.602  1.00  0.00     0.068 A 
HETATM   18  C13 UNK     1      18.940  -6.261  36.631  1.00  0.00     0.037 A 
HETATM   19  C15 UNK     1      18.789  -7.116  37.723  1.00  0.00     0.003 A 
HETATM   20  C17 UNK     1      19.699  -7.065  38.780  1.00  0.00     0.000 A 
HETATM   21  C16 UNK     1      20.760  -6.161  38.743  1.00  0.00     0.003 A 
HETATM   22  C14 UNK     1      20.911  -5.306  37.650  1.00  0.00     0.037 A 
ENDBRANCH  16  17
ENDBRANCH  15  16
ENDBRANCH  14  15
ENDBRANCH  12  14
ENDBRANCH   3  12
BRANCH   6  23
HETATM   23  N2  UNK     1      18.137   0.159  34.895  1.00  0.00    -0.107 N 
HETATM   24  O4  UNK     1      18.968   0.534  35.729  1.00  0.00    -0.531 OA
HETATM   25  O5  UNK     1      16.984  -0.215  35.136  1.00  0.00    -0.531 OA
ENDBRANCH   6  23
TORSDOF 6
ENDMDL
MODEL 2
REMARK VINA RESULT:      -8.5      3.815      8.210
REMARK  6 active torsions:
REMARK  status: ('A' for Active; 'I' for Inactive)
REMARK    1  A    between atoms: C12_19  and  O2_2 
REMARK    2  A    between atoms: C6_13  and  O2_2 
REMARK    3  A    between atoms: C1_8  and  N1_6 
REMARK    4  A    between atoms: C3_10  and  N1_6 
REMARK    5  A    between atoms: C5_12  and  N2_7 
REMARK    6  A    between atoms: C3_10  and  C6_13 
ROOT
HETATM    1  O1  UNK     1      19.612  -1.452  32.805  1.00  0.00    -0.273 OA
HETATM    2  O3  UNK     1      18.738  -1.340  34.909  1.00  0.00    -0.257 OA
HETATM    3  C1  UNK     1      18.402   1.088  32.251  1.00  0.00     0.081 A 
HETATM    4  C2  UNK     1      19.191   0.370  31.217  1.00  0.00     0.027 A 
HETATM    5  C4  UNK     1      19.765  -0.867  31.531  1.00  0.00     0.092 A 
HETATM    6  C5  UNK     1      18.297   0.468  33.438  1.00  0.00     0.205 A 
HETATM    7  C7  UNK     1      19.406   0.851  29.914  1.00  0.00     0.017 A 
HETATM    8  C8  UNK     1      18.881  -0.832  33.804  1.00  0.00     0.324 A 
HETATM    9  C9  UNK     1      20.522  -1.605  30.615  1.00  0.00     0.038 A 
HETATM   10  C10 UNK     1      20.162   0.123  28.985  1.00  0.00     0.001 A 
HETATM   11  C11 UNK     1      20.719  -1.103  29.335  1.00  0.00     0.003 A 
ENDROOT
BRANCH   3  12
HETATM   12  N1  UNK     1      17.856   2.301  31.919  1.00  0.00    -0.385 N 
HETATM   13  H3  UNK     1      16.912   2.330  31.557  1.00  0.00     0.159 HD
BRANCH  12  14
HETATM   14  C3  UNK     1      18.483   3.556  32.228  1.00  0.00     0.146 C 
BRANCH  14  15
HETATM   15  C6  UNK     1      18.669   4.370  30.958  1.00  0.00     0.195 C 
BRANCH  15  16
HETATM   16  O2  UNK     1      19.617   5.404  31.192  1.00  0.00    -0.350 OA
BRANCH  16  17
HETATM   17  C12 UNK     1      19.241   6.403  32.051  1.00  0.00     0.068 A 
HETATM   18  C13 UNK     1      18.008   7.025  31.886  1.00  0.00     0.037 A 
HETATM   19  C15 UNK     1      17.626   8.043  32.761  1.00  0.00     0.003 A 
HETATM   20  C17 UNK     1      18.479   8.431  33.794  1.00  0.00     0.000 A 
HETATM   21  C16 UNK     1      19.713   7.802  33.953  1.00  0.00     0.003 A 
HETATM   22  C14 UNK     1      20.096   6.784  33.078  1.00  0.00     0.037 A 
ENDBRANCH  16  17
ENDBRANCH  15  16
ENDBRANCH  14  15
ENDBRANCH  12  14
ENDBRANCH   3  12
BRANCH   6  23
HETATM   23  N2  UNK     1      17.545   1.128  34.458  1.00  0.00    -0.107 N 
HETATM   24  O4  UNK     1      16.328   0.914  34.485  1.00  0.00    -0.531 OA
HETATM   25  O5  UNK     1      18.172   1.859  35.233  1.00  0.00    -0.531 OA
ENDBRANCH   6  23
TORSDOF 6
ENDMDL
MODEL 3
REMARK VINA RESULT:      -8.4      3.210      7.565
REMARK  6 active torsions:
REMARK  status: ('A' for Active; 'I' for Inactive)
REMARK    1  A    between atoms: C12_19  and  O2_2 
REMARK    2  A    between atoms: C6_13  and  O2_2 
REMARK    3  A    between atoms: C1_8  and  N1_6 
REMARK    4  A    between atoms: C3_10  and  N1_6 
REMARK    5  A    between atoms: C5_12  and  N2_7 
REMARK    6  A    between atoms: C3_10  and  C6_13 
ROOT
HETATM    1  O1  UNK     1      20.610  -2.404  32.006  1.00  0.00    -0.273 OA
HETATM    2  O3  UNK     1      20.528  -3.294  34.105  1.00  0.00    -0.257 OA
HETATM    3  C1  UNK     1      18.919  -0.278  32.926  1.00  0.00     0.081 A 
HETATM    4  C2  UNK     1      19.390  -0.332  31.518  1.00  0.00     0.027 A 
HETATM    5  C4  UNK     1      20.216  -1.387  31.112  1.00  0.00     0.092 A 
HETATM    6  C5  UNK     1      19.333  -1.282  33.717  1.00  0.00     0.205 A 
HETATM    7  C7  UNK     1      19.059   0.620  30.539  1.00  0.00     0.017 A 
HETATM    8  C8  UNK     1      20.194  -2.409  33.327  1.00  0.00     0.324 A 
HETATM    9  C9  UNK     1      20.702  -1.509  29.807  1.00  0.00     0.038 A 
HETATM   10  C10 UNK     1      19.538   0.511  29.226  1.00  0.00     0.001 A 
HETATM   11  C11 UNK     1      20.358  -0.552  28.860  1.00  0.00     0.003 A 
ENDROOT
BRANCH   3  12
HETATM   12  N1  UNK     1      18.118   0.770  33.298  1.00  0.00    -0.385 N 
HETATM   13  H3  UNK     1      17.191   0.843  32.898  1.00  0.00     0.159 HD
BRANCH  12  14
HETATM   14  C3  UNK     1      18.449   1.673  34.365  1.00  0.00     0.146 C 
BRANCH  14  15
HETATM   15  C6  UNK     1      18.185   3.106  33.934  1.00  0.00     0.195 C 
BRANCH  15  16
HETATM   16  O2  UNK     1      17.798   3.125  32.566  1.00  0.00    -0.350 OA
BRANCH  16  17
HETATM   17  C12 UNK     1      18.119   4.248  31.850  1.00  0.00     0.068 A 
HETATM   18  C13 UNK     1      17.626   5.485  32.251  1.00  0.00     0.037 A 
HETATM   19  C15 UNK     1      17.953   6.628  31.520  1.00  0.00     0.003 A 
HETATM   20  C17 UNK     1      18.769   6.526  30.394  1.00  0.00     0.000 A 
HETATM   21  C16 UNK     1      19.260   5.282  29.998  1.00  0.00     0.003 A 
HETATM   22  C14 UNK     1      18.933   4.139  30.729  1.00  0.00     0.037 A 
ENDBRANCH  16  17
ENDBRANCH  15  16
ENDBRANCH  14  15
ENDBRANCH  12  14
ENDBRANCH   3  12
BRANCH   6  23
HETATM   23  N2  UNK     1      18.899  -1.265  35.078  1.00  0.00    -0.107 N 
HETATM   24  O4  UNK     1      19.755  -1.030  35.937  1.00  0.00    -0.531 OA
HETATM   25  O5  UNK     1      17.701  -1.488  35.288  1.00  0.00    -0.531 OA
ENDBRANCH   6  23
TORSDOF 6
ENDMDL
MODEL 4
REMARK VINA RESULT:      -8.2     11.213     12.867
REMARK  6 active torsions:
REMARK  status: ('A' for Active; 'I' for Inactive)
REMARK    1  A    between atoms: C12_19  and  O2_2 
REMARK    2  A    between atoms: C6_13  and  O2_2 
REMARK    3  A    between atoms: C1_8  and  N1_6 
REMARK    4  A    between atoms: C3_10  and  N1_6 
REMARK    5  A    between atoms: C5_12  and  N2_7 
REMARK    6  A    between atoms: C3_10  and  C6_13 
ROOT
HETATM    1  O1  UNK     1      30.793  -3.898  38.080  1.00  0.00    -0.273 OA
HETATM    2  O3  UNK     1      29.512  -3.797  39.965  1.00  0.00    -0.257 OA
HETATM    3  C1  UNK     1      29.072  -5.979  37.115  1.00  0.00     0.081 A 
HETATM    4  C2  UNK     1      30.234  -5.509  36.316  1.00  0.00     0.027 A 
HETATM    5  C4  UNK     1      31.047  -4.489  36.826  1.00  0.00     0.092 A 
HETATM    6  C5  UNK     1      28.897  -5.371  38.300  1.00  0.00     0.205 A 
HETATM    7  C7  UNK     1      30.586  -6.026  35.058  1.00  0.00     0.017 A 
HETATM    8  C8  UNK     1      29.731  -4.303  38.871  1.00  0.00     0.324 A 
HETATM    9  C9  UNK     1      32.157  -3.991  36.136  1.00  0.00     0.038 A 
HETATM   10  C10 UNK     1      31.696  -5.537  34.355  1.00  0.00     0.001 A 
HETATM   11  C11 UNK     1      32.480  -4.521  34.893  1.00  0.00     0.003 A 
ENDROOT
BRANCH   3  12
HETATM   12  N1  UNK     1      28.289  -6.973  36.590  1.00  0.00    -0.385 N 
HETATM   13  H3  UNK     1      27.387  -6.731  36.199  1.00  0.00     0.159 HD
BRANCH  12  14
HETATM   14  C3  UNK     1      28.752  -8.319  36.394  1.00  0.00     0.146 C 
BRANCH  14  15
HETATM   15  C6  UNK     1      29.280  -8.882  37.703  1.00  0.00     0.195 C 
BRANCH  15  16
HETATM   16  O2  UNK     1      30.479  -9.606  37.458  1.00  0.00    -0.350 OA
BRANCH  16  17
HETATM   17  C12 UNK     1      31.616  -8.869  37.262  1.00  0.00     0.068 A 
HETATM   18  C13 UNK     1      32.340  -9.020  36.085  1.00  0.00     0.037 A 
HETATM   19  C15 UNK     1      33.500  -8.269  35.885  1.00  0.00     0.003 A 
HETATM   20  C17 UNK     1      33.927  -7.373  36.865  1.00  0.00     0.000 A 
HETATM   21  C16 UNK     1      33.195  -7.227  38.043  1.00  0.00     0.003 A 
HETATM   22  C14 UNK     1      32.036  -7.977  38.243  1.00  0.00     0.037 A 
ENDBRANCH  16  17
ENDBRANCH  15  16
ENDBRANCH  14  15
ENDBRANCH  12  14
ENDBRANCH   3  12
BRANCH   6  23
HETATM   23  N2  UNK     1      27.791  -5.797  39.098  1.00  0.00    -0.107 N 
HETATM   24  O4  UNK     1      28.006  -6.687  39.927  1.00  0.00    -0.531 OA
HETATM   25  O5  UNK     1      26.705  -5.241  38.894  1.00  0.00    -0.531 OA
ENDBRANCH   6  23
TORSDOF 6
ENDMDL
MODEL 5
REMARK VINA RESULT:      -8.2      2.350      4.269
REMARK  6 active torsions:
REMARK  status: ('A' for Active; 'I' for Inactive)
REMARK    1  A    between atoms: C12_19  and  O2_2 
REMARK    2  A    between atoms: C6_13  and  O2_2 
REMARK    3  A    between atoms: C1_8  and  N1_6 
REMARK    4  A    between atoms: C3_10  and  N1_6 
REMARK    5  A    between atoms: C5_12  and  N2_7 
REMARK    6  A    between atoms: C3_10  and  C6_13 
ROOT
HETATM    1  O1  UNK     1      17.890  -0.502  33.337  1.00  0.00    -0.273 OA
HETATM    2  O3  UNK     1      19.247  -1.423  31.752  1.00  0.00    -0.257 OA
HETATM    3  C1  UNK     1      19.476  -1.804  35.340  1.00  0.00     0.081 A 
HETATM    4  C2  UNK     1      18.306  -0.965  35.710  1.00  0.00     0.027 A 
HETATM    5  C4  UNK     1      17.561  -0.346  34.699  1.00  0.00     0.092 A 
HETATM    6  C5  UNK     1      19.725  -1.908  34.024  1.00  0.00     0.205 A 
HETATM    7  C7  UNK     1      17.882  -0.743  37.031  1.00  0.00     0.017 A 
HETATM    8  C8  UNK     1      18.963  -1.279  32.934  1.00  0.00     0.324 A 
HETATM    9  C9  UNK     1      16.449   0.459  34.964  1.00  0.00     0.038 A 
HETATM   10  C10 UNK     1      16.769   0.062  37.312  1.00  0.00     0.001 A 
HETATM   11  C11 UNK     1      16.054   0.662  36.281  1.00  0.00     0.003 A 
ENDROOT
BRANCH   3  12
HETATM   12  N1  UNK     1      20.192  -2.393  36.350  1.00  0.00    -0.385 N 
HETATM   13  H3  UNK     1      20.946  -1.874  36.781  1.00  0.00     0.159 HD
BRANCH  12  14
HETATM   14  C3  UNK     1      19.815  -3.638  36.958  1.00  0.00     0.146 C 
BRANCH  14  15
HETATM   15  C6  UNK     1      21.037  -4.313  37.560  1.00  0.00     0.195 C 
BRANCH  15  16
HETATM   16  O2  UNK     1      21.231  -5.579  36.942  1.00  0.00    -0.350 OA
BRANCH  16  17
HETATM   17  C12 UNK     1      20.583  -6.646  37.506  1.00  0.00     0.068 A 
HETATM   18  C13 UNK     1      19.897  -7.542  36.694  1.00  0.00     0.037 A 
HETATM   19  C15 UNK     1      19.237  -8.630  37.268  1.00  0.00     0.003 A 
HETATM   20  C17 UNK     1      19.268  -8.813  38.650  1.00  0.00     0.000 A 
HETATM   21  C16 UNK     1      19.959  -7.910  39.458  1.00  0.00     0.003 A 
HETATM   22  C14 UNK     1      20.619  -6.823  38.884  1.00  0.00     0.037 A 
ENDBRANCH  16  17
ENDBRANCH  15  16
ENDBRANCH  14  15
ENDBRANCH  12  14
ENDBRANCH   3  12
BRANCH   6  23
HETATM   23  N2  UNK     1      20.841  -2.708  33.629  1.00  0.00    -0.107 N 
HETATM   24  O4  UNK     1      20.645  -3.922  33.505  1.00  0.00    -0.531 OA
HETATM   25  O5  UNK     1      21.913  -2.122  33.443  1.00  0.00    -0.531 OA
ENDBRANCH   6  23
TORSDOF 6
ENDMDL
MODEL 6
REMARK VINA RESULT:      -8.1      2.728      7.514
REMARK  6 active torsions:
REMARK  status: ('A' for Active; 'I' for Inactive)
REMARK    1  A    between atoms: C12_19  and  O2_2 
REMARK    2  A    between atoms: C6_13  and  O2_2 
REMARK    3  A    between atoms: C1_8  and  N1_6 
REMARK    4  A    between atoms: C3_10  and  N1_6 
REMARK    5  A    between atoms: C5_12  and  N2_7 
REMARK    6  A    between atoms: C3_10  and  C6_13 
ROOT
HETATM    1  O1  UNK     1      20.686  -2.698  34.898  1.00  0.00    -0.273 OA
HETATM    2  O3  UNK     1      20.308  -2.560  37.143  1.00  0.00    -0.257 OA
HETATM    3  C1  UNK     1      18.472  -0.920  34.495  1.00  0.00     0.081 A 
HETATM    4  C2  UNK     1      19.244  -1.461  33.346  1.00  0.00     0.027 A 
HETATM    5  C4  UNK     1      20.318  -2.325  33.589  1.00  0.00     0.092 A 
HETATM    6  C5  UNK     1      18.879  -1.323  35.710  1.00  0.00     0.205 A 
HETATM    7  C7  UNK     1      18.967  -1.164  32.001  1.00  0.00     0.017 A 
HETATM    8  C8  UNK     1      19.997  -2.232  36.005  1.00  0.00     0.324 A 
HETATM    9  C9  UNK     1      21.094  -2.875  32.564  1.00  0.00     0.038 A 
HETATM   10  C10 UNK     1      19.735  -1.708  30.962  1.00  0.00     0.001 A 
HETATM   11  C11 UNK     1      20.797  -2.562  31.243  1.00  0.00     0.003 A 
ENDROOT
BRANCH   3  12
HETATM   12  N1  UNK     1      17.430  -0.071  34.229  1.00  0.00    -0.385 N 
HETATM   13  H3  UNK     1      16.536  -0.463  33.962  1.00  0.00     0.159 HD
BRANCH  12  14
HETATM   14  C3  UNK     1      17.481   1.341  34.486  1.00  0.00     0.146 C 
BRANCH  14  15
HETATM   15  C6  UNK     1      18.219   2.048  33.361  1.00  0.00     0.195 C 
BRANCH  15  16
HETATM   16  O2  UNK     1      17.830   3.415  33.324  1.00  0.00    -0.350 OA
BRANCH  16  17
HETATM   17  C12 UNK     1      18.374   4.184  32.329  1.00  0.00     0.068 A 
HETATM   18  C13 UNK     1      18.477   3.671  31.041  1.00  0.00     0.037 A 
HETATM   19  C15 UNK     1      19.031   4.455  30.028  1.00  0.00     0.003 A 
HETATM   20  C17 UNK     1      19.478   5.746  30.311  1.00  0.00     0.000 A 
HETATM   21  C16 UNK     1      19.370   6.253  31.605  1.00  0.00     0.003 A 
HETATM   22  C14 UNK     1      18.816   5.470  32.618  1.00  0.00     0.037 A 
ENDBRANCH  16  17
ENDBRANCH  15  16
ENDBRANCH  14  15
ENDBRANCH  12  14
ENDBRANCH   3  12
BRANCH   6  23
HETATM   23  N2  UNK     1      18.160  -0.825  36.840  1.00  0.00    -0.107 N 
HETATM   24  O4  UNK     1      17.201  -1.496  37.235  1.00  0.00    -0.531 OA
HETATM   25  O5  UNK     1      18.556   0.237  37.333  1.00  0.00    -0.531 OA
ENDBRANCH   6  23
TORSDOF 6
ENDMDL
MODEL 7
REMARK VINA RESULT:      -7.9      2.976      8.321
REMARK  6 active torsions:
REMARK  status: ('A' for Active; 'I' for Inactive)
REMARK    1  A    between atoms: C12_19  and  O2_2 
REMARK    2  A    between atoms: C6_13  and  O2_2 
REMARK    3  A    between atoms: C1_8  and  N1_6 
REMARK    4  A    between atoms: C3_10  and  N1_6 
REMARK    5  A    between atoms: C5_12  and  N2_7 
REMARK    6  A    between atoms: C3_10  and  C6_13 
ROOT
HETATM    1  O1  UNK     1      20.510  -2.952  34.764  1.00  0.00    -0.273 OA
HETATM    2  O3  UNK     1      21.636  -3.274  32.806  1.00  0.00    -0.257 OA
HETATM    3  C1  UNK     1      18.986  -0.902  33.461  1.00  0.00     0.081 A 
HETATM    4  C2  UNK     1      18.756  -1.241  34.889  1.00  0.00     0.027 A 
HETATM    5  C4  UNK     1      19.522  -2.250  35.485  1.00  0.00     0.092 A 
HETATM    6  C5  UNK     1      19.945  -1.610  32.841  1.00  0.00     0.205 A 
HETATM    7  C7  UNK     1      17.805  -0.607  35.706  1.00  0.00     0.017 A 
HETATM    8  C8  UNK     1      20.773  -2.672  33.434  1.00  0.00     0.324 A 
HETATM    9  C9  UNK     1      19.366  -2.629  36.822  1.00  0.00     0.038 A 
HETATM   10  C10 UNK     1      17.638  -0.976  37.049  1.00  0.00     0.001 A 
HETATM   11  C11 UNK     1      18.417  -1.985  37.605  1.00  0.00     0.003 A 
ENDROOT
BRANCH   3  12
HETATM   12  N1  UNK     1      18.217   0.085  32.901  1.00  0.00    -0.385 N 
HETATM   13  H3  UNK     1      17.366  -0.173  32.417  1.00  0.00     0.159 HD
BRANCH  12  14
HETATM   14  C3  UNK     1      18.454   1.485  33.118  1.00  0.00     0.146 C 
BRANCH  14  15
HETATM   15  C6  UNK     1      18.291   2.248  31.815  1.00  0.00     0.195 C 
BRANCH  15  16
HETATM   16  O2  UNK     1      17.614   3.473  32.064  1.00  0.00    -0.350 OA
BRANCH  16  17
HETATM   17  C12 UNK     1      18.396   4.572  32.308  1.00  0.00     0.068 A 
HETATM   18  C13 UNK     1      19.191   5.090  31.292  1.00  0.00     0.037 A 
HETATM   19  C15 UNK     1      19.988   6.208  31.541  1.00  0.00     0.003 A 
HETATM   20  C17 UNK     1      19.983   6.801  32.804  1.00  0.00     0.000 A 
HETATM   21  C16 UNK     1      19.182   6.276  33.817  1.00  0.00     0.003 A 
HETATM   22  C14 UNK     1      18.385   5.157  33.569  1.00  0.00     0.037 A 
ENDBRANCH  16  17
ENDBRANCH  15  16
ENDBRANCH  14  15
ENDBRANCH  12  14
ENDBRANCH   3  12
BRANCH   6  23
HETATM   23  N2  UNK     1      20.196  -1.312  31.467  1.00  0.00    -0.107 N 
HETATM   24  O4  UNK     1      19.688  -2.063  30.628  1.00  0.00    -0.531 OA
HETATM   25  O5  UNK     1      20.901  -0.326  31.227  1.00  0.00    -0.531 OA
ENDBRANCH   6  23
TORSDOF 6
ENDMDL
MODEL 8
REMARK VINA RESULT:      -7.9      1.790      2.534
REMARK  6 active torsions:
REMARK  status: ('A' for Active; 'I' for Inactive)
REMARK    1  A    between atoms: C12_19  and  O2_2 
REMARK    2  A    between atoms: C6_13  and  O2_2 
REMARK    3  A    between atoms: C1_8  and  N1_6 
REMARK    4  A    between atoms: C3_10  and  N1_6 
REMARK    5  A    between atoms: C5_12  and  N2_7 
REMARK    6  A    between atoms: C3_10  and  C6_13 
ROOT
HETATM    1  O1  UNK     1      17.738  -0.233  33.444  1.00  0.00    -0.273 OA
HETATM    2  O3  UNK     1      16.439   0.627  35.110  1.00  0.00    -0.257 OA
HETATM    3  C1  UNK     1      19.249  -1.623  35.446  1.00  0.00     0.081 A 
HETATM    4  C2  UNK     1      19.592  -1.739  34.005  1.00  0.00     0.027 A 
HETATM    5  C4  UNK     1      18.826  -1.044  33.062  1.00  0.00     0.092 A 
HETATM    6  C5  UNK     1      18.203  -0.831  35.734  1.00  0.00     0.205 A 
HETATM    7  C7  UNK     1      20.656  -2.511  33.507  1.00  0.00     0.017 A 
HETATM    8  C8  UNK     1      17.379  -0.082  34.772  1.00  0.00     0.324 A 
HETATM    9  C9  UNK     1      19.084  -1.101  31.688  1.00  0.00     0.038 A 
HETATM   10  C10 UNK     1      20.926  -2.577  32.134  1.00  0.00     0.001 A 
HETATM   11  C11 UNK     1      20.141  -1.874  31.225  1.00  0.00     0.003 A 
ENDROOT
BRANCH   3  12
HETATM   12  N1  UNK     1      20.011  -2.320  36.348  1.00  0.00    -0.385 N 
HETATM   13  H3  UNK     1      20.758  -1.839  36.832  1.00  0.00     0.159 HD
BRANCH  12  14
HETATM   14  C3  UNK     1      19.692  -3.651  36.784  1.00  0.00     0.146 C 
BRANCH  14  15
HETATM   15  C6  UNK     1      20.870  -4.247  37.537  1.00  0.00     0.195 C 
BRANCH  15  16
HETATM   16  O2  UNK     1      21.182  -5.523  36.993  1.00  0.00    -0.350 OA
BRANCH  16  17
HETATM   17  C12 UNK     1      20.533  -6.601  37.535  1.00  0.00     0.068 A 
HETATM   18  C13 UNK     1      20.593  -6.823  38.906  1.00  0.00     0.037 A 
HETATM   19  C15 UNK     1      19.931  -7.921  39.458  1.00  0.00     0.003 A 
HETATM   20  C17 UNK     1      19.214  -8.789  38.634  1.00  0.00     0.000 A 
HETATM   21  C16 UNK     1      19.158  -8.559  37.259  1.00  0.00     0.003 A 
HETATM   22  C14 UNK     1      19.819  -7.461  36.708  1.00  0.00     0.037 A 
ENDBRANCH  16  17
ENDBRANCH  15  16
ENDBRANCH  14  15
ENDBRANCH  12  14
ENDBRANCH   3  12
BRANCH   6  23
HETATM   23  N2  UNK     1      17.843  -0.694  37.110  1.00  0.00    -0.107 N 
HETATM   24  O4  UNK     1      18.275   0.297  37.707  1.00  0.00    -0.531 OA
HETATM   25  O5  UNK     1      17.127  -1.579  37.593  1.00  0.00    -0.531 OA
ENDBRANCH   6  23
TORSDOF 6
ENDMDL
MODEL 9
REMARK VINA RESULT:      -7.8     15.307     19.465
REMARK  6 active torsions:
REMARK  status: ('A' for Active; 'I' for Inactive)
REMARK    1  A    between atoms: C12_19  and  O2_2 
REMARK    2  A    between atoms: C6_13  and  O2_2 
REMARK    3  A    between atoms: C1_8  and  N1_6 
REMARK    4  A    between atoms: C3_10  and  N1_6 
REMARK    5  A    between atoms: C5_12  and  N2_7 
REMARK    6  A    between atoms: C3_10  and  C6_13 
ROOT
HETATM    1  O1  UNK     1      18.596  -4.722  11.858  1.00  0.00    -0.273 OA
HETATM    2  O3  UNK     1      19.468  -2.887  10.822  1.00  0.00    -0.257 OA
HETATM    3  C1  UNK     1      19.098  -3.445  14.376  1.00  0.00     0.081 A 
HETATM    4  C2  UNK     1      18.493  -4.800  14.308  1.00  0.00     0.027 A 
HETATM    5  C4  UNK     1      18.263  -5.385  13.057  1.00  0.00     0.092 A 
HETATM    6  C5  UNK     1      19.391  -2.879  13.193  1.00  0.00     0.205 A 
HETATM    7  C7  UNK     1      18.126  -5.557  15.434  1.00  0.00     0.017 A 
HETATM    8  C8  UNK     1      19.170  -3.463  11.862  1.00  0.00     0.324 A 
HETATM    9  C9  UNK     1      17.697  -6.656  12.908  1.00  0.00     0.038 A 
HETATM   10  C10 UNK     1      17.558  -6.832  15.300  1.00  0.00     0.001 A 
HETATM   11  C11 UNK     1      17.343  -7.380  14.040  1.00  0.00     0.003 A 
ENDROOT
BRANCH   3  12
HETATM   12  N1  UNK     1      19.306  -2.893  15.613  1.00  0.00    -0.385 N 
HETATM   13  H3  UNK     1      20.205  -3.018  16.060  1.00  0.00     0.159 HD
BRANCH  12  14
HETATM   14  C3  UNK     1      18.379  -1.988  16.235  1.00  0.00     0.146 C 
BRANCH  14  15
HETATM   15  C6  UNK     1      19.043  -1.293  17.412  1.00  0.00     0.195 C 
BRANCH  15  16
HETATM   16  O2  UNK     1      18.191  -0.264  17.897  1.00  0.00    -0.350 OA
BRANCH  16  17
HETATM   17  C12 UNK     1      18.727   0.601  18.814  1.00  0.00     0.068 A 
HETATM   18  C13 UNK     1      19.019   1.908  18.440  1.00  0.00     0.037 A 
HETATM   19  C15 UNK     1      19.566   2.789  19.374  1.00  0.00     0.003 A 
HETATM   20  C17 UNK     1      19.817   2.356  20.676  1.00  0.00     0.000 A 
HETATM   21  C16 UNK     1      19.521   1.044  21.044  1.00  0.00     0.003 A 
HETATM   22  C14 UNK     1      18.974   0.163  20.110  1.00  0.00     0.037 A 
ENDBRANCH  16  17
ENDBRANCH  15  16
ENDBRANCH  14  15
ENDBRANCH  12  14
ENDBRANCH   3  12
BRANCH   6  23
HETATM   23  N2  UNK     1      19.976  -1.575  13.218  1.00  0.00    -0.107 N 
HETATM   24  O4  UNK     1      21.206  -1.514  13.319  1.00  0.00    -0.531 OA
HETATM   25  O5  UNK     1      19.205  -0.613  13.135  1.00  0.00    -0.531 OA
ENDBRANCH   6  23
TORSDOF 6
ENDMDL
MODEL 10
REMARK VINA RESULT:      -7.7     11.159     12.915
REMARK  6 active torsions:
REMARK  status: ('A' for Active; 'I' for Inactive)
REMARK    1  A    between atoms: C12_19  and  O2_2 
REMARK    2  A    between atoms: C6_13  and  O2_2 
REMARK    3  A    between atoms: C1_8  and  N1_6 
REMARK    4  A    between atoms: C3_10  and  N1_6 
REMARK    5  A    between atoms: C5_12  and  N2_7 
REMARK    6  A    between atoms: C3_10  and  C6_13 
ROOT
HETATM    1  O1  UNK     1      30.573  -4.064  37.981  1.00  0.00    -0.273 OA
HETATM    2  O3  UNK     1      29.180  -4.136  39.786  1.00  0.00    -0.257 OA
HETATM    3  C1  UNK     1      29.078  -6.227  36.838  1.00  0.00     0.081 A 
HETATM    4  C2  UNK     1      30.244  -5.639  36.130  1.00  0.00     0.027 A 
HETATM    5  C4  UNK     1      30.944  -4.583  36.724  1.00  0.00     0.092 A 
HETATM    6  C5  UNK     1      28.787  -5.683  38.031  1.00  0.00     0.205 A 
HETATM    7  C7  UNK     1      30.709  -6.077  34.878  1.00  0.00     0.017 A 
HETATM    8  C8  UNK     1      29.501  -4.579  38.690  1.00  0.00     0.324 A 
HETATM    9  C9  UNK     1      32.051  -3.975  36.122  1.00  0.00     0.038 A 
HETATM   10  C10 UNK     1      31.817  -5.477  34.263  1.00  0.00     0.001 A 
HETATM   11  C11 UNK     1      32.486  -4.428  34.883  1.00  0.00     0.003 A 
ENDROOT
BRANCH   3  12
HETATM   12  N1  UNK     1      28.407  -7.256  36.230  1.00  0.00    -0.385 N 
HETATM   13  H3  UNK     1      27.889  -7.068  35.381  1.00  0.00     0.159 HD
BRANCH  12  14
HETATM   14  C3  UNK     1      28.545  -8.630  36.628  1.00  0.00     0.146 C 
BRANCH  14  15
HETATM   15  C6  UNK     1      29.651  -9.294  35.824  1.00  0.00     0.195 C 
BRANCH  15  16
HETATM   16  O2  UNK     1      30.677  -9.734  36.704  1.00  0.00    -0.350 OA
BRANCH  16  17
HETATM   17  C12 UNK     1      31.779  -8.927  36.820  1.00  0.00     0.068 A 
HETATM   18  C13 UNK     1      31.983  -8.205  37.990  1.00  0.00     0.037 A 
HETATM   19  C15 UNK     1      33.105  -7.383  38.108  1.00  0.00     0.003 A 
HETATM   20  C17 UNK     1      34.014  -7.289  37.054  1.00  0.00     0.000 A 
HETATM   21  C16 UNK     1      33.802  -8.017  35.883  1.00  0.00     0.003 A 
HETATM   22  C14 UNK     1      32.681  -8.839  35.766  1.00  0.00     0.037 A 
ENDBRANCH  16  17
ENDBRANCH  15  16
ENDBRANCH  14  15
ENDBRANCH  12  14
ENDBRANCH   3  12
BRANCH   6  23
HETATM   23  N2  UNK     1      27.673  -6.224  38.744  1.00  0.00    -0.107 N 
HETATM   24  O4  UNK     1      26.555  -5.783  38.456  1.00  0.00    -0.531 OA
HETATM   25  O5  UNK     1      27.916  -7.089  39.592  1.00  0.00    -0.531 OA
ENDBRANCH   6  23
TORSDOF 6
ENDMDL
