MODEL 1
REMARK VINA RESULT:      -8.5      0.000      0.000
REMARK  6 active torsions:
REMARK  status: ('A' for Active; 'I' for Inactive)
REMARK    1  A    between atoms: C1_6  and  P1_2 
REMARK    2  A    between atoms: C2_7  and  P1_2 
REMARK    3  A    between atoms: C3_8  and  P1_2 
REMARK    4  A    between atoms: C4_9  and  P1_2 
REMARK    5  A    between atoms: C11_16  and  C4_9 
REMARK    6  A    between atoms: C11_16  and  C12_17 
ROOT
HETATM    1  P1  UNK     1      30.763  -6.476  35.551  1.00  0.00    -0.025 P 
ENDROOT
BRANCH   1   2
HETATM    2  C1  UNK     1      32.387  -5.783  35.594  1.00  0.00    -0.023 A 
HETATM    3  C5  UNK     1      33.348  -6.311  36.456  1.00  0.00     0.013 A 
HETATM    4  C13 UNK     1      34.631  -5.765  36.488  1.00  0.00     0.001 A 
HETATM    5  C19 UNK     1      34.952  -4.690  35.660  1.00  0.00     0.000 A 
HETATM    6  C16 UNK     1      33.991  -4.162  34.798  1.00  0.00     0.001 A 
HETATM    7  C8  UNK     1      32.709  -4.709  34.764  1.00  0.00     0.013 A 
ENDBRANCH   1   2
BRANCH   1   8
HETATM    8  C2  UNK     1      29.889  -6.164  34.052  1.00  0.00    -0.023 A 
HETATM    9  C6  UNK     1      28.555  -6.556  33.924  1.00  0.00     0.013 A 
HETATM   10  C14 UNK     1      27.864  -6.309  32.738  1.00  0.00     0.001 A 
HETATM   11  C20 UNK     1      28.505  -5.669  31.678  1.00  0.00     0.000 A 
HETATM   12  C17 UNK     1      29.837  -5.275  31.803  1.00  0.00     0.001 A 
HETATM   13  C9  UNK     1      30.529  -5.523  32.990  1.00  0.00     0.013 A 
ENDBRANCH   1   8
BRANCH   1  14
HETATM   14  C3  UNK     1      29.857  -6.120  37.023  1.00  0.00    -0.023 A 
HETATM   15  C10 UNK     1      29.150  -7.134  37.671  1.00  0.00     0.013 A 
HETATM   16  C18 UNK     1      28.433  -6.853  38.834  1.00  0.00     0.001 A 
HETATM   17  C21 UNK     1      28.421  -5.557  39.350  1.00  0.00     0.000 A 
HETATM   18  C15 UNK     1      29.128  -4.542  38.704  1.00  0.00     0.001 A 
HETATM   19  C7  UNK     1      29.845  -4.824  37.541  1.00  0.00     0.013 A 
ENDBRANCH   1  14
BRANCH   1  20
HETATM   20  C4  UNK     1      31.011  -8.225  35.581  1.00  0.00     0.071 C 
BRANCH  20  21
HETATM   21  C11 UNK     1      32.071  -8.900  34.792  1.00  0.00     0.189 C 
HETATM   22  O1  UNK     1      32.910  -9.565  35.368  1.00  0.00    -0.287 OA
BRANCH  21  23
HETATM   23  C12 UNK     1      32.026  -8.697  33.339  1.00  0.00     0.090 A 
HETATM   24  C22 UNK     1      30.963  -9.203  32.703  1.00  0.00     0.036 A 
HETATM   25  C23 UNK     1      30.829  -9.053  31.263  1.00  0.00     0.000 A 
HETATM   26  C25 UNK     1      31.823  -8.377  30.561  1.00  0.00     0.089 A 
HETATM   27  C26 UNK     1      29.736  -9.566  30.559  1.00  0.00     0.033 A 
HETATM   28  O2  UNK     1      32.939  -7.845  31.236  1.00  0.00    -0.274 OA
HETATM   29  C27 UNK     1      31.755  -8.200  29.181  1.00  0.00     0.039 A 
HETATM   30  C24 UNK     1      33.095  -7.973  32.614  1.00  0.00     0.302 A 
HETATM   31  O3  UNK     1      34.070  -7.508  33.192  1.00  0.00    -0.259 OA
HETATM   32  C29 UNK     1      30.662  -8.713  28.487  1.00  0.00     0.022 A 
HETATM   33  C28 UNK     1      29.656  -9.395  29.174  1.00  0.00     0.011 A 
HETATM   34 Br1  UNK     1      28.175 -10.090  28.225  1.00  0.00    -0.051 Br
ENDBRANCH  21  23
ENDBRANCH  20  21
ENDBRANCH   1  20
TORSDOF 6
ENDMDL
MODEL 2
REMARK VINA RESULT:      -8.5      0.111      4.095
REMARK  6 active torsions:
REMARK  status: ('A' for Active; 'I' for Inactive)
REMARK    1  A    between atoms: C1_6  and  P1_2 
REMARK    2  A    between atoms: C2_7  and  P1_2 
REMARK    3  A    between atoms: C3_8  and  P1_2 
REMARK    4  A    between atoms: C4_9  and  P1_2 
REMARK    5  A    between atoms: C11_16  and  C4_9 
REMARK    6  A    between atoms: C11_16  and  C12_17 
ROOT
HETATM    1  P1  UNK     1      30.837  -6.511  35.615  1.00  0.00    -0.025 P 
ENDROOT
BRANCH   1   2
HETATM    2  C1  UNK     1      29.887  -6.135  37.056  1.00  0.00    -0.023 A 
HETATM    3  C5  UNK     1      29.181  -7.145  37.708  1.00  0.00     0.013 A 
HETATM    4  C13 UNK     1      28.433  -6.849  38.848  1.00  0.00     0.001 A 
HETATM    5  C19 UNK     1      28.389  -5.542  39.333  1.00  0.00     0.000 A 
HETATM    6  C16 UNK     1      29.096  -4.532  38.680  1.00  0.00     0.001 A 
HETATM    7  C8  UNK     1      29.845  -4.829  37.542  1.00  0.00     0.013 A 
ENDBRANCH   1   2
BRANCH   1   8
HETATM    8  C2  UNK     1      32.479  -5.870  35.651  1.00  0.00    -0.023 A 
HETATM    9  C6  UNK     1      33.427  -6.421  36.515  1.00  0.00     0.013 A 
HETATM   10  C14 UNK     1      34.726  -5.915  36.543  1.00  0.00     0.001 A 
HETATM   11  C20 UNK     1      35.080  -4.857  35.706  1.00  0.00     0.000 A 
HETATM   12  C17 UNK     1      34.136  -4.305  34.841  1.00  0.00     0.001 A 
HETATM   13  C9  UNK     1      32.836  -4.812  34.813  1.00  0.00     0.013 A 
ENDBRANCH   1   8
BRANCH   1  14
HETATM   14  C3  UNK     1      29.943  -6.171  34.131  1.00  0.00    -0.023 A 
HETATM   15  C10 UNK     1      28.595  -6.521  34.032  1.00  0.00     0.013 A 
HETATM   16  C18 UNK     1      27.889  -6.254  32.860  1.00  0.00     0.001 A 
HETATM   17  C21 UNK     1      28.529  -5.636  31.784  1.00  0.00     0.000 A 
HETATM   18  C15 UNK     1      29.876  -5.285  31.883  1.00  0.00     0.001 A 
HETATM   19  C7  UNK     1      30.582  -5.553  33.055  1.00  0.00     0.013 A 
ENDBRANCH   1  14
BRANCH   1  20
HETATM   20  C4  UNK     1      31.030  -8.266  35.639  1.00  0.00     0.071 C 
BRANCH  20  21
HETATM   21  C11 UNK     1      32.063  -8.972  34.840  1.00  0.00     0.189 C 
HETATM   22  O1  UNK     1      32.885  -9.665  35.410  1.00  0.00    -0.287 OA
BRANCH  21  23
HETATM   23  C12 UNK     1      32.015  -8.764  33.388  1.00  0.00     0.090 A 
HETATM   24  C22 UNK     1      30.932  -9.235  32.759  1.00  0.00     0.036 A 
HETATM   25  C23 UNK     1      30.792  -9.076  31.320  1.00  0.00     0.000 A 
HETATM   26  C25 UNK     1      31.802  -8.430  30.613  1.00  0.00     0.089 A 
HETATM   27  C26 UNK     1      29.679  -9.552  30.622  1.00  0.00     0.033 A 
HETATM   28  O2  UNK     1      32.939  -7.936  31.281  1.00  0.00    -0.274 OA
HETATM   29  C27 UNK     1      31.730  -8.247  29.234  1.00  0.00     0.039 A 
HETATM   30  C24 UNK     1      33.100  -8.072  32.658  1.00  0.00     0.302 A 
HETATM   31  O3  UNK     1      34.094  -7.640  33.230  1.00  0.00    -0.259 OA
HETATM   32  C29 UNK     1      30.617  -8.724  28.546  1.00  0.00     0.022 A 
HETATM   33  C28 UNK     1      29.594  -9.375  29.239  1.00  0.00     0.011 A 
HETATM   34 Br1  UNK     1      28.085 -10.021  28.298  1.00  0.00    -0.051 Br
ENDBRANCH  21  23
ENDBRANCH  20  21
ENDBRANCH   1  20
TORSDOF 6
ENDMDL
MODEL 3
REMARK VINA RESULT:      -8.4      0.177      4.221
REMARK  6 active torsions:
REMARK  status: ('A' for Active; 'I' for Inactive)
REMARK    1  A    between atoms: C1_6  and  P1_2 
REMARK    2  A    between atoms: C2_7  and  P1_2 
REMARK    3  A    between atoms: C3_8  and  P1_2 
REMARK    4  A    between atoms: C4_9  and  P1_2 
REMARK    5  A    between atoms: C11_16  and  C4_9 
REMARK    6  A    between atoms: C11_16  and  C12_17 
ROOT
HETATM    1  P1  UNK     1      30.746  -6.588  35.578  1.00  0.00    -0.025 P 
ENDROOT
BRANCH   1   2
HETATM    2  C1  UNK     1      29.859  -6.239  34.091  1.00  0.00    -0.023 A 
HETATM    3  C5  UNK     1      30.492  -5.576  33.041  1.00  0.00     0.013 A 
HETATM    4  C13 UNK     1      29.792  -5.301  31.866  1.00  0.00     0.001 A 
HETATM    5  C19 UNK     1      28.458  -5.688  31.743  1.00  0.00     0.000 A 
HETATM    6  C16 UNK     1      27.825  -6.352  32.793  1.00  0.00     0.001 A 
HETATM    7  C8  UNK     1      28.525  -6.628  33.968  1.00  0.00     0.013 A 
ENDBRANCH   1   2
BRANCH   1   8
HETATM    8  C2  UNK     1      29.803  -6.351  37.049  1.00  0.00    -0.023 A 
HETATM    9  C6  UNK     1      29.799  -5.108  37.686  1.00  0.00     0.013 A 
HETATM   10  C14 UNK     1      29.052  -4.920  38.849  1.00  0.00     0.001 A 
HETATM   11  C20 UNK     1      28.307  -5.973  39.377  1.00  0.00     0.000 A 
HETATM   12  C17 UNK     1      28.308  -7.216  38.742  1.00  0.00     0.001 A 
HETATM   13  C9  UNK     1      29.055  -7.404  37.578  1.00  0.00     0.013 A 
ENDBRANCH   1   8
BRANCH   1  14
HETATM   14  C3  UNK     1      32.337  -5.826  35.589  1.00  0.00    -0.023 A 
HETATM   15  C10 UNK     1      32.594  -4.731  34.762  1.00  0.00     0.013 A 
HETATM   16  C18 UNK     1      33.851  -4.129  34.770  1.00  0.00     0.001 A 
HETATM   17  C21 UNK     1      34.855  -4.620  35.605  1.00  0.00     0.000 A 
HETATM   18  C15 UNK     1      34.600  -5.713  36.434  1.00  0.00     0.001 A 
HETATM   19  C7  UNK     1      33.342  -6.316  36.425  1.00  0.00     0.013 A 
ENDBRANCH   1  14
BRANCH   1  20
HETATM   20  C4  UNK     1      31.072  -8.324  35.520  1.00  0.00     0.071 C 
BRANCH  20  21
HETATM   21  C11 UNK     1      32.164  -8.909  34.703  1.00  0.00     0.189 C 
HETATM   22  O1  UNK     1      33.056  -9.525  35.255  1.00  0.00    -0.287 OA
BRANCH  21  23
HETATM   23  C12 UNK     1      32.084  -8.682  33.255  1.00  0.00     0.090 A 
HETATM   24  C22 UNK     1      31.028  -9.217  32.630  1.00  0.00     0.036 A 
HETATM   25  C23 UNK     1      30.861  -9.046  31.196  1.00  0.00     0.000 A 
HETATM   26  C25 UNK     1      31.816  -8.322  30.488  1.00  0.00     0.089 A 
HETATM   27  C26 UNK     1      29.775  -9.587  30.503  1.00  0.00     0.033 A 
HETATM   28  O2  UNK     1      32.925  -7.761  31.152  1.00  0.00    -0.274 OA
HETATM   29  C27 UNK     1      31.715  -8.123  29.113  1.00  0.00     0.039 A 
HETATM   30  C24 UNK     1      33.111  -7.907  32.524  1.00  0.00     0.302 A 
HETATM   31  O3  UNK     1      34.080  -7.416  33.092  1.00  0.00    -0.259 OA
HETATM   32  C29 UNK     1      30.629  -8.664  28.430  1.00  0.00     0.022 A 
HETATM   33  C28 UNK     1      29.661  -9.395  29.123  1.00  0.00     0.011 A 
HETATM   34 Br1  UNK     1      28.189 -10.128  28.189  1.00  0.00    -0.051 Br
ENDBRANCH  21  23
ENDBRANCH  20  21
ENDBRANCH   1  20
TORSDOF 6
ENDMDL
MODEL 4
REMARK VINA RESULT:      -8.4      2.926      4.461
REMARK  6 active torsions:
REMARK  status: ('A' for Active; 'I' for Inactive)
REMARK    1  A    between atoms: C1_6  and  P1_2 
REMARK    2  A    between atoms: C2_7  and  P1_2 
REMARK    3  A    between atoms: C3_8  and  P1_2 
REMARK    4  A    between atoms: C4_9  and  P1_2 
REMARK    5  A    between atoms: C11_16  and  C4_9 
REMARK    6  A    between atoms: C11_16  and  C12_17 
ROOT
HETATM    1  P1  UNK     1      29.430  -7.718  36.685  1.00  0.00    -0.025 P 
ENDROOT
BRANCH   1   2
HETATM    2  C1  UNK     1      29.945  -6.120  37.232  1.00  0.00    -0.023 A 
HETATM    3  C5  UNK     1      30.752  -5.329  36.414  1.00  0.00     0.013 A 
HETATM    4  C13 UNK     1      31.157  -4.066  36.845  1.00  0.00     0.001 A 
HETATM    5  C19 UNK     1      30.756  -3.595  38.095  1.00  0.00     0.000 A 
HETATM    6  C16 UNK     1      29.949  -4.385  38.913  1.00  0.00     0.001 A 
HETATM    7  C8  UNK     1      29.543  -5.648  38.481  1.00  0.00     0.013 A 
ENDBRANCH   1   2
BRANCH   1   8
HETATM    8  C2  UNK     1      28.940  -7.773  34.992  1.00  0.00    -0.023 A 
HETATM    9  C6  UNK     1      28.299  -6.676  34.412  1.00  0.00     0.013 A 
HETATM   10  C14 UNK     1      27.912  -6.720  33.073  1.00  0.00     0.001 A 
HETATM   11  C20 UNK     1      28.166  -7.859  32.311  1.00  0.00     0.000 A 
HETATM   12  C17 UNK     1      28.807  -8.956  32.887  1.00  0.00     0.001 A 
HETATM   13  C9  UNK     1      29.194  -8.913  34.227  1.00  0.00     0.013 A 
ENDBRANCH   1   8
BRANCH   1  14
HETATM   14  C3  UNK     1      28.291  -8.463  37.808  1.00  0.00    -0.023 A 
HETATM   15  C10 UNK     1      28.738  -9.414  38.728  1.00  0.00     0.013 A 
HETATM   16  C18 UNK     1      27.838 -10.004  39.616  1.00  0.00     0.001 A 
HETATM   17  C21 UNK     1      26.490  -9.643  39.586  1.00  0.00     0.000 A 
HETATM   18  C15 UNK     1      26.043  -8.692  38.669  1.00  0.00     0.001 A 
HETATM   19  C7  UNK     1      26.943  -8.103  37.780  1.00  0.00     0.013 A 
ENDBRANCH   1  14
BRANCH   1  20
HETATM   20  C4  UNK     1      30.881  -8.722  36.774  1.00  0.00     0.071 C 
BRANCH  20  21
HETATM   21  C11 UNK     1      32.123  -8.280  37.455  1.00  0.00     0.189 C 
HETATM   22  O1  UNK     1      32.165  -8.272  38.671  1.00  0.00    -0.287 OA
BRANCH  21  23
HETATM   23  C12 UNK     1      33.229  -7.866  36.583  1.00  0.00     0.090 A 
HETATM   24  C22 UNK     1      33.347  -8.527  35.425  1.00  0.00     0.036 A 
HETATM   25  C23 UNK     1      34.412  -8.189  34.494  1.00  0.00     0.000 A 
HETATM   26  C25 UNK     1      35.301  -7.172  34.828  1.00  0.00     0.089 A 
HETATM   27  C26 UNK     1      34.573  -8.852  33.274  1.00  0.00     0.033 A 
HETATM   28  O2  UNK     1      35.171  -6.480  36.048  1.00  0.00    -0.274 OA
HETATM   29  C27 UNK     1      36.343  -6.801  33.981  1.00  0.00     0.039 A 
HETATM   30  C24 UNK     1      34.162  -6.781  36.960  1.00  0.00     0.302 A 
HETATM   31  O3  UNK     1      34.057  -6.175  38.019  1.00  0.00    -0.259 OA
HETATM   32  C29 UNK     1      36.497  -7.466  32.767  1.00  0.00     0.022 A 
HETATM   33  C28 UNK     1      35.614  -8.489  32.415  1.00  0.00     0.011 A 
HETATM   34 Br1  UNK     1      35.828  -9.389  30.765  1.00  0.00    -0.051 Br
ENDBRANCH  21  23
ENDBRANCH  20  21
ENDBRANCH   1  20
TORSDOF 6
ENDMDL
MODEL 5
REMARK VINA RESULT:      -8.3      2.872      5.483
REMARK  6 active torsions:
REMARK  status: ('A' for Active; 'I' for Inactive)
REMARK    1  A    between atoms: C1_6  and  P1_2 
REMARK    2  A    between atoms: C2_7  and  P1_2 
REMARK    3  A    between atoms: C3_8  and  P1_2 
REMARK    4  A    between atoms: C4_9  and  P1_2 
REMARK    5  A    between atoms: C11_16  and  C4_9 
REMARK    6  A    between atoms: C11_16  and  C12_17 
ROOT
HETATM    1  P1  UNK     1      29.488  -7.707  36.589  1.00  0.00    -0.025 P 
ENDROOT
BRANCH   1   2
HETATM    2  C1  UNK     1      29.012  -7.852  34.894  1.00  0.00    -0.023 A 
HETATM    3  C5  UNK     1      28.375  -6.789  34.256  1.00  0.00     0.013 A 
HETATM    4  C13 UNK     1      28.001  -6.902  32.917  1.00  0.00     0.001 A 
HETATM    5  C19 UNK     1      28.264  -8.080  32.217  1.00  0.00     0.000 A 
HETATM    6  C16 UNK     1      28.901  -9.143  32.856  1.00  0.00     0.001 A 
HETATM    7  C8  UNK     1      29.276  -9.029  34.195  1.00  0.00     0.013 A 
ENDBRANCH   1   2
BRANCH   1   8
HETATM    8  C2  UNK     1      28.318  -8.383  37.722  1.00  0.00    -0.023 A 
HETATM    9  C6  UNK     1      26.979  -7.987  37.667  1.00  0.00     0.013 A 
HETATM   10  C14 UNK     1      26.054  -8.522  38.562  1.00  0.00     0.001 A 
HETATM   11  C20 UNK     1      26.464  -9.454  39.515  1.00  0.00     0.000 A 
HETATM   12  C17 UNK     1      27.800  -9.852  39.572  1.00  0.00     0.001 A 
HETATM   13  C9  UNK     1      28.726  -9.317  38.676  1.00  0.00     0.013 A 
ENDBRANCH   1   8
BRANCH   1  14
HETATM   14  C3  UNK     1      30.040  -6.078  36.981  1.00  0.00    -0.023 A 
HETATM   15  C10 UNK     1      29.601  -5.454  38.150  1.00  0.00     0.013 A 
HETATM   16  C18 UNK     1      30.037  -4.166  38.460  1.00  0.00     0.001 A 
HETATM   17  C21 UNK     1      30.912  -3.499  37.602  1.00  0.00     0.000 A 
HETATM   18  C15 UNK     1      31.352  -4.122  36.433  1.00  0.00     0.001 A 
HETATM   19  C7  UNK     1      30.916  -5.411  36.123  1.00  0.00     0.013 A 
ENDBRANCH   1  14
BRANCH   1  20
HETATM   20  C4  UNK     1      30.922  -8.726  36.751  1.00  0.00     0.071 C 
BRANCH  20  21
HETATM   21  C11 UNK     1      32.157  -8.272  37.436  1.00  0.00     0.189 C 
HETATM   22  O1  UNK     1      32.185  -8.236  38.652  1.00  0.00    -0.287 OA
BRANCH  21  23
HETATM   23  C12 UNK     1      33.273  -7.880  36.568  1.00  0.00     0.090 A 
HETATM   24  C22 UNK     1      33.360  -8.515  35.393  1.00  0.00     0.036 A 
HETATM   25  C23 UNK     1      34.431  -8.196  34.463  1.00  0.00     0.000 A 
HETATM   26  C25 UNK     1      35.362  -7.224  34.817  1.00  0.00     0.089 A 
HETATM   27  C26 UNK     1      34.560  -8.834  33.227  1.00  0.00     0.033 A 
HETATM   28  O2  UNK     1      35.266  -6.558  36.055  1.00  0.00    -0.274 OA
HETATM   29  C27 UNK     1      36.413  -6.872  33.973  1.00  0.00     0.039 A 
HETATM   30  C24 UNK     1      34.251  -6.842  36.965  1.00  0.00     0.302 A 
HETATM   31  O3  UNK     1      34.176  -6.258  38.040  1.00  0.00    -0.259 OA
HETATM   32  C29 UNK     1      36.533  -7.512  32.742  1.00  0.00     0.022 A 
HETATM   33  C28 UNK     1      35.610  -8.491  32.370  1.00  0.00     0.011 A 
HETATM   34 Br1  UNK     1      35.779  -9.356  30.697  1.00  0.00    -0.051 Br
ENDBRANCH  21  23
ENDBRANCH  20  21
ENDBRANCH   1  20
TORSDOF 6
ENDMDL
MODEL 6
REMARK VINA RESULT:      -8.3      2.866      5.870
REMARK  6 active torsions:
REMARK  status: ('A' for Active; 'I' for Inactive)
REMARK    1  A    between atoms: C1_6  and  P1_2 
REMARK    2  A    between atoms: C2_7  and  P1_2 
REMARK    3  A    between atoms: C3_8  and  P1_2 
REMARK    4  A    between atoms: C4_9  and  P1_2 
REMARK    5  A    between atoms: C11_16  and  C4_9 
REMARK    6  A    between atoms: C11_16  and  C12_17 
ROOT
HETATM    1  P1  UNK     1      29.530  -7.654  36.545  1.00  0.00    -0.025 P 
ENDROOT
BRANCH   1   2
HETATM    2  C1  UNK     1      28.320  -8.272  37.673  1.00  0.00    -0.023 A 
HETATM    3  C5  UNK     1      26.980  -7.913  37.523  1.00  0.00     0.013 A 
HETATM    4  C13 UNK     1      26.024  -8.402  38.413  1.00  0.00     0.001 A 
HETATM    5  C19 UNK     1      26.407  -9.248  39.453  1.00  0.00     0.000 A 
HETATM    6  C16 UNK     1      27.747  -9.607  39.603  1.00  0.00     0.001 A 
HETATM    7  C8  UNK     1      28.703  -9.119  38.712  1.00  0.00     0.013 A 
ENDBRANCH   1   2
BRANCH   1   8
HETATM    8  C2  UNK     1      30.092  -6.025  36.917  1.00  0.00    -0.023 A 
HETATM    9  C6  UNK     1      29.635  -5.371  38.064  1.00  0.00     0.013 A 
HETATM   10  C14 UNK     1      30.081  -4.083  38.358  1.00  0.00     0.001 A 
HETATM   11  C20 UNK     1      30.983  -3.446  37.508  1.00  0.00     0.000 A 
HETATM   12  C17 UNK     1      31.442  -4.096  36.363  1.00  0.00     0.001 A 
HETATM   13  C9  UNK     1      30.997  -5.386  36.068  1.00  0.00     0.013 A 
ENDBRANCH   1   8
BRANCH   1  14
HETATM   14  C3  UNK     1      29.053  -7.906  34.865  1.00  0.00    -0.023 A 
HETATM   15  C10 UNK     1      29.325  -9.122  34.236  1.00  0.00     0.013 A 
HETATM   16  C18 UNK     1      28.949  -9.321  32.908  1.00  0.00     0.001 A 
HETATM   17  C21 UNK     1      28.300  -8.304  32.206  1.00  0.00     0.000 A 
HETATM   18  C15 UNK     1      28.027  -7.088  32.834  1.00  0.00     0.001 A 
HETATM   19  C7  UNK     1      28.404  -6.889  34.162  1.00  0.00     0.013 A 
ENDBRANCH   1  14
BRANCH   1  20
HETATM   20  C4  UNK     1      30.943  -8.689  36.778  1.00  0.00     0.071 C 
BRANCH  20  21
HETATM   21  C11 UNK     1      32.177  -8.224  37.458  1.00  0.00     0.189 C 
HETATM   22  O1  UNK     1      32.203  -8.170  38.673  1.00  0.00    -0.287 OA
BRANCH  21  23
HETATM   23  C12 UNK     1      33.295  -7.845  36.585  1.00  0.00     0.090 A 
HETATM   24  C22 UNK     1      33.379  -8.493  35.417  1.00  0.00     0.036 A 
HETATM   25  C23 UNK     1      34.452  -8.187  34.485  1.00  0.00     0.000 A 
HETATM   26  C25 UNK     1      35.386  -7.215  34.828  1.00  0.00     0.089 A 
HETATM   27  C26 UNK     1      34.578  -8.838  33.255  1.00  0.00     0.033 A 
HETATM   28  O2  UNK     1      35.292  -6.535  36.059  1.00  0.00    -0.274 OA
HETATM   29  C27 UNK     1      36.438  -6.876  33.980  1.00  0.00     0.039 A 
HETATM   30  C24 UNK     1      34.276  -6.806  36.972  1.00  0.00     0.302 A 
HETATM   31  O3  UNK     1      34.202  -6.211  38.041  1.00  0.00    -0.259 OA
HETATM   32  C29 UNK     1      36.557  -7.529  32.756  1.00  0.00     0.022 A 
HETATM   33  C28 UNK     1      35.629  -8.508  32.394  1.00  0.00     0.011 A 
HETATM   34 Br1  UNK     1      35.796  -9.392  30.731  1.00  0.00    -0.051 Br
ENDBRANCH  21  23
ENDBRANCH  20  21
ENDBRANCH   1  20
TORSDOF 6
ENDMDL
MODEL 7
REMARK VINA RESULT:      -8.2      1.843      4.787
REMARK  6 active torsions:
REMARK  status: ('A' for Active; 'I' for Inactive)
REMARK    1  A    between atoms: C1_6  and  P1_2 
REMARK    2  A    between atoms: C2_7  and  P1_2 
REMARK    3  A    between atoms: C3_8  and  P1_2 
REMARK    4  A    between atoms: C4_9  and  P1_2 
REMARK    5  A    between atoms: C11_16  and  C4_9 
REMARK    6  A    between atoms: C11_16  and  C12_17 
ROOT
HETATM    1  P1  UNK     1      31.000  -6.666  35.781  1.00  0.00    -0.025 P 
ENDROOT
BRANCH   1   2
HETATM    2  C1  UNK     1      30.104  -6.468  34.272  1.00  0.00    -0.023 A 
HETATM    3  C5  UNK     1      28.713  -6.377  34.294  1.00  0.00     0.013 A 
HETATM    4  C13 UNK     1      28.005  -6.219  33.103  1.00  0.00     0.001 A 
HETATM    5  C19 UNK     1      28.689  -6.154  31.889  1.00  0.00     0.000 A 
HETATM    6  C16 UNK     1      30.080  -6.245  31.866  1.00  0.00     0.001 A 
HETATM    7  C8  UNK     1      30.788  -6.401  33.058  1.00  0.00     0.013 A 
ENDBRANCH   1   2
BRANCH   1   8
HETATM    8  C2  UNK     1      30.247  -5.883  37.170  1.00  0.00    -0.023 A 
HETATM    9  C6  UNK     1      30.427  -4.515  37.386  1.00  0.00     0.013 A 
HETATM   10  C14 UNK     1      29.830  -3.897  38.485  1.00  0.00     0.001 A 
HETATM   11  C20 UNK     1      29.053  -4.644  39.368  1.00  0.00     0.000 A 
HETATM   12  C17 UNK     1      28.871  -6.010  39.155  1.00  0.00     0.001 A 
HETATM   13  C9  UNK     1      29.468  -6.629  38.055  1.00  0.00     0.013 A 
ENDBRANCH   1   8
BRANCH   1  14
HETATM   14  C3  UNK     1      32.718  -6.316  35.577  1.00  0.00    -0.023 A 
HETATM   15  C10 UNK     1      33.136  -5.018  35.275  1.00  0.00     0.013 A 
HETATM   16  C18 UNK     1      34.493  -4.741  35.113  1.00  0.00     0.001 A 
HETATM   17  C21 UNK     1      35.435  -5.761  35.253  1.00  0.00     0.000 A 
HETATM   18  C15 UNK     1      35.019  -7.058  35.554  1.00  0.00     0.001 A 
HETATM   19  C7  UNK     1      33.661  -7.335  35.716  1.00  0.00     0.013 A 
ENDBRANCH   1  14
BRANCH   1  20
HETATM   20  C4  UNK     1      30.926  -8.395  36.134  1.00  0.00     0.071 C 
BRANCH  20  21
HETATM   21  C11 UNK     1      29.870  -9.282  35.587  1.00  0.00     0.189 C 
HETATM   22  O1  UNK     1      28.791  -9.339  36.147  1.00  0.00    -0.287 OA
BRANCH  21  23
HETATM   23  C12 UNK     1      30.224 -10.048  34.386  1.00  0.00     0.090 A 
HETATM   24  C22 UNK     1      29.684  -9.629  33.236  1.00  0.00     0.036 A 
HETATM   25  C23 UNK     1      29.975 -10.323  31.992  1.00  0.00     0.000 A 
HETATM   26  C25 UNK     1      30.821 -11.428  32.020  1.00  0.00     0.089 A 
HETATM   27  C26 UNK     1      29.433  -9.920  30.769  1.00  0.00     0.033 A 
HETATM   28  O2  UNK     1      31.387 -11.865  33.234  1.00  0.00    -0.274 OA
HETATM   29  C27 UNK     1      31.140 -12.137  30.865  1.00  0.00     0.039 A 
HETATM   30  C24 UNK     1      31.127 -11.220  34.441  1.00  0.00     0.302 A 
HETATM   31  O3  UNK     1      31.623 -11.608  35.492  1.00  0.00    -0.259 OA
HETATM   32  C29 UNK     1      30.596 -11.728  29.649  1.00  0.00     0.022 A 
HETATM   33  C28 UNK     1      29.745 -10.623  29.602  1.00  0.00     0.011 A 
HETATM   34 Br1  UNK     1      29.009 -10.073  27.948  1.00  0.00    -0.051 Br
ENDBRANCH  21  23
ENDBRANCH  20  21
ENDBRANCH   1  20
TORSDOF 6
ENDMDL
MODEL 8
REMARK VINA RESULT:      -8.2      1.847      4.533
REMARK  6 active torsions:
REMARK  status: ('A' for Active; 'I' for Inactive)
REMARK    1  A    between atoms: C1_6  and  P1_2 
REMARK    2  A    between atoms: C2_7  and  P1_2 
REMARK    3  A    between atoms: C3_8  and  P1_2 
REMARK    4  A    between atoms: C4_9  and  P1_2 
REMARK    5  A    between atoms: C11_16  and  C4_9 
REMARK    6  A    between atoms: C11_16  and  C12_17 
ROOT
HETATM    1  P1  UNK     1      31.023  -6.681  35.754  1.00  0.00    -0.025 P 
ENDROOT
BRANCH   1   2
HETATM    2  C1  UNK     1      30.263  -5.904  37.146  1.00  0.00    -0.023 A 
HETATM    3  C5  UNK     1      29.513  -6.662  38.044  1.00  0.00     0.013 A 
HETATM    4  C13 UNK     1      28.914  -6.048  39.144  1.00  0.00     0.001 A 
HETATM    5  C19 UNK     1      29.064  -4.676  39.345  1.00  0.00     0.000 A 
HETATM    6  C16 UNK     1      29.814  -3.918  38.446  1.00  0.00     0.001 A 
HETATM    7  C8  UNK     1      30.414  -4.532  37.346  1.00  0.00     0.013 A 
ENDBRANCH   1   2
BRANCH   1   8
HETATM    8  C2  UNK     1      32.741  -6.323  35.582  1.00  0.00    -0.023 A 
HETATM    9  C6  UNK     1      33.158  -5.033  35.246  1.00  0.00     0.013 A 
HETATM   10  C14 UNK     1      34.517  -4.750  35.111  1.00  0.00     0.001 A 
HETATM   11  C20 UNK     1      35.462  -5.756  35.312  1.00  0.00     0.000 A 
HETATM   12  C17 UNK     1      35.048  -7.045  35.648  1.00  0.00     0.001 A 
HETATM   13  C9  UNK     1      33.688  -7.328  35.783  1.00  0.00     0.013 A 
ENDBRANCH   1   8
BRANCH   1  14
HETATM   14  C3  UNK     1      30.073  -6.470  34.282  1.00  0.00    -0.023 A 
HETATM   15  C10 UNK     1      28.680  -6.408  34.352  1.00  0.00     0.013 A 
HETATM   16  C18 UNK     1      27.928  -6.242  33.189  1.00  0.00     0.001 A 
HETATM   17  C21 UNK     1      28.569  -6.136  31.954  1.00  0.00     0.000 A 
HETATM   18  C15 UNK     1      29.961  -6.197  31.882  1.00  0.00     0.001 A 
HETATM   19  C7  UNK     1      30.712  -6.364  33.046  1.00  0.00     0.013 A 
ENDBRANCH   1  14
BRANCH   1  20
HETATM   20  C4  UNK     1      30.949  -8.412  36.099  1.00  0.00     0.071 C 
BRANCH  20  21
HETATM   21  C11 UNK     1      29.885  -9.294  35.560  1.00  0.00     0.189 C 
HETATM   22  O1  UNK     1      28.810  -9.347  36.128  1.00  0.00    -0.287 OA
BRANCH  21  23
HETATM   23  C12 UNK     1      30.226 -10.062  34.356  1.00  0.00     0.090 A 
HETATM   24  C22 UNK     1      29.690  -9.631  33.208  1.00  0.00     0.036 A 
HETATM   25  C23 UNK     1      29.970 -10.326  31.962  1.00  0.00     0.000 A 
HETATM   26  C25 UNK     1      30.800 -11.442  31.985  1.00  0.00     0.089 A 
HETATM   27  C26 UNK     1      29.431  -9.911  30.741  1.00  0.00     0.033 A 
HETATM   28  O2  UNK     1      31.363 -11.890  33.197  1.00  0.00    -0.274 OA
HETATM   29  C27 UNK     1      31.107 -12.152  30.827  1.00  0.00     0.039 A 
HETATM   30  C24 UNK     1      31.113 -11.245  34.405  1.00  0.00     0.302 A 
HETATM   31  O3  UNK     1      31.606 -11.643  35.454  1.00  0.00    -0.259 OA
HETATM   32  C29 UNK     1      30.567 -11.732  29.614  1.00  0.00     0.022 A 
HETATM   33  C28 UNK     1      29.731 -10.615  29.571  1.00  0.00     0.011 A 
HETATM   34 Br1  UNK     1      29.000 -10.050  27.920  1.00  0.00    -0.051 Br
ENDBRANCH  21  23
ENDBRANCH  20  21
ENDBRANCH   1  20
TORSDOF 6
ENDMDL
MODEL 9
REMARK VINA RESULT:      -8.2      1.835      2.164
REMARK  6 active torsions:
REMARK  status: ('A' for Active; 'I' for Inactive)
REMARK    1  A    between atoms: C1_6  and  P1_2 
REMARK    2  A    between atoms: C2_7  and  P1_2 
REMARK    3  A    between atoms: C3_8  and  P1_2 
REMARK    4  A    between atoms: C4_9  and  P1_2 
REMARK    5  A    between atoms: C11_16  and  C4_9 
REMARK    6  A    between atoms: C11_16  and  C12_17 
ROOT
HETATM    1  P1  UNK     1      30.952  -6.643  35.741  1.00  0.00    -0.025 P 
ENDROOT
BRANCH   1   2
HETATM    2  C1  UNK     1      32.669  -6.249  35.609  1.00  0.00    -0.023 A 
HETATM    3  C5  UNK     1      33.631  -7.215  35.905  1.00  0.00     0.013 A 
HETATM    4  C13 UNK     1      34.987  -6.905  35.799  1.00  0.00     0.001 A 
HETATM    5  C19 UNK     1      35.380  -5.628  35.398  1.00  0.00     0.000 A 
HETATM    6  C16 UNK     1      34.419  -4.662  35.102  1.00  0.00     0.001 A 
HETATM    7  C8  UNK     1      33.063  -4.973  35.207  1.00  0.00     0.013 A 
ENDBRANCH   1   2
BRANCH   1   8
HETATM    8  C2  UNK     1      30.054  -6.450  34.236  1.00  0.00    -0.023 A 
HETATM    9  C6  UNK     1      28.660  -6.373  34.257  1.00  0.00     0.013 A 
HETATM   10  C14 UNK     1      27.950  -6.219  33.066  1.00  0.00     0.001 A 
HETATM   11  C20 UNK     1      28.632  -6.142  31.853  1.00  0.00     0.000 A 
HETATM   12  C17 UNK     1      30.025  -6.217  31.829  1.00  0.00     0.001 A 
HETATM   13  C9  UNK     1      30.736  -6.371  33.020  1.00  0.00     0.013 A 
ENDBRANCH   1   8
BRANCH   1  14
HETATM   14  C3  UNK     1      30.209  -5.881  37.148  1.00  0.00    -0.023 A 
HETATM   15  C10 UNK     1      29.428  -6.639  38.023  1.00  0.00     0.013 A 
HETATM   16  C18 UNK     1      28.840  -6.037  39.135  1.00  0.00     0.001 A 
HETATM   17  C21 UNK     1      29.032  -4.676  39.375  1.00  0.00     0.000 A 
HETATM   18  C15 UNK     1      29.813  -3.917  38.502  1.00  0.00     0.001 A 
HETATM   19  C7  UNK     1      30.401  -4.519  37.390  1.00  0.00     0.013 A 
ENDBRANCH   1  14
BRANCH   1  20
HETATM   20  C4  UNK     1      30.905  -8.375  36.083  1.00  0.00     0.071 C 
BRANCH  20  21
HETATM   21  C11 UNK     1      29.851  -9.271  35.546  1.00  0.00     0.189 C 
HETATM   22  O1  UNK     1      28.776  -9.332  36.113  1.00  0.00    -0.287 OA
BRANCH  21  23
HETATM   23  C12 UNK     1      30.202 -10.041  34.347  1.00  0.00     0.090 A 
HETATM   24  C22 UNK     1      29.668  -9.619  33.195  1.00  0.00     0.036 A 
HETATM   25  C23 UNK     1      29.958 -10.316  31.953  1.00  0.00     0.000 A 
HETATM   26  C25 UNK     1      30.795 -11.427  31.984  1.00  0.00     0.089 A 
HETATM   27  C26 UNK     1      29.422  -9.910  30.728  1.00  0.00     0.033 A 
HETATM   28  O2  UNK     1      31.355 -11.867  33.200  1.00  0.00    -0.274 OA
HETATM   29  C27 UNK     1      31.111 -12.140  30.830  1.00  0.00     0.039 A 
HETATM   30  C24 UNK     1      31.096 -11.219  34.405  1.00  0.00     0.302 A 
HETATM   31  O3  UNK     1      31.587 -11.610  35.458  1.00  0.00    -0.259 OA
HETATM   32  C29 UNK     1      30.574 -11.728  29.613  1.00  0.00     0.022 A 
HETATM   33  C28 UNK     1      29.731 -10.616  29.562  1.00  0.00     0.011 A 
HETATM   34 Br1  UNK     1      29.005 -10.062  27.906  1.00  0.00    -0.051 Br
ENDBRANCH  21  23
ENDBRANCH  20  21
ENDBRANCH   1  20
TORSDOF 6
ENDMDL
MODEL 10
REMARK VINA RESULT:      -8.2      3.087      6.784
REMARK  6 active torsions:
REMARK  status: ('A' for Active; 'I' for Inactive)
REMARK    1  A    between atoms: C1_6  and  P1_2 
REMARK    2  A    between atoms: C2_7  and  P1_2 
REMARK    3  A    between atoms: C3_8  and  P1_2 
REMARK    4  A    between atoms: C4_9  and  P1_2 
REMARK    5  A    between atoms: C11_16  and  C4_9 
REMARK    6  A    between atoms: C11_16  and  C12_17 
ROOT
HETATM    1  P1  UNK     1      30.489  -9.500  32.389  1.00  0.00    -0.025 P 
ENDROOT
BRANCH   1   2
HETATM    2  C1  UNK     1      30.419  -9.520  34.153  1.00  0.00    -0.023 A 
HETATM    3  C5  UNK     1      31.560  -9.833  34.892  1.00  0.00     0.013 A 
HETATM    4  C13 UNK     1      31.506  -9.847  36.286  1.00  0.00     0.001 A 
HETATM    5  C19 UNK     1      30.311  -9.549  36.940  1.00  0.00     0.000 A 
HETATM    6  C16 UNK     1      29.170  -9.236  36.201  1.00  0.00     0.001 A 
HETATM    7  C8  UNK     1      29.225  -9.221  34.807  1.00  0.00     0.013 A 
ENDBRANCH   1   2
BRANCH   1   8
HETATM    8  C2  UNK     1      29.109  -8.711  31.626  1.00  0.00    -0.023 A 
HETATM    9  C6  UNK     1      28.582  -9.217  30.435  1.00  0.00     0.013 A 
HETATM   10  C14 UNK     1      27.490  -8.593  29.832  1.00  0.00     0.001 A 
HETATM   11  C20 UNK     1      26.922  -7.463  30.418  1.00  0.00     0.000 A 
HETATM   12  C17 UNK     1      27.445  -6.956  31.608  1.00  0.00     0.001 A 
HETATM   13  C9  UNK     1      28.538  -7.580  32.211  1.00  0.00     0.013 A 
ENDBRANCH   1   8
BRANCH   1  14
HETATM   14  C3  UNK     1      30.891 -11.086  31.728  1.00  0.00    -0.023 A 
HETATM   15  C10 UNK     1      31.863 -11.202  30.732  1.00  0.00     0.013 A 
HETATM   16  C18 UNK     1      32.182 -12.455  30.209  1.00  0.00     0.001 A 
HETATM   17  C21 UNK     1      31.529 -13.595  30.682  1.00  0.00     0.000 A 
HETATM   18  C15 UNK     1      30.558 -13.481  31.677  1.00  0.00     0.001 A 
HETATM   19  C7  UNK     1      30.240 -12.227  32.200  1.00  0.00     0.013 A 
ENDBRANCH   1  14
BRANCH   1  20
HETATM   20  C4  UNK     1      31.875  -8.478  31.996  1.00  0.00     0.071 C 
BRANCH  20  21
HETATM   21  C11 UNK     1      31.911  -7.025  32.295  1.00  0.00     0.189 C 
HETATM   22  O1  UNK     1      31.644  -6.229  31.415  1.00  0.00    -0.287 OA
BRANCH  21  23
HETATM   23  C12 UNK     1      32.288  -6.653  33.664  1.00  0.00     0.090 A 
HETATM   24  C22 UNK     1      31.303  -6.189  34.443  1.00  0.00     0.036 A 
HETATM   25  C23 UNK     1      31.578  -5.795  35.815  1.00  0.00     0.000 A 
HETATM   26  C25 UNK     1      32.876  -5.908  36.302  1.00  0.00     0.089 A 
HETATM   27  C26 UNK     1      30.581  -5.304  36.663  1.00  0.00     0.033 A 
HETATM   28  O2  UNK     1      33.908  -6.399  35.478  1.00  0.00    -0.274 OA
HETATM   29  C27 UNK     1      33.205  -5.547  37.606  1.00  0.00     0.039 A 
HETATM   30  C24 UNK     1      33.676  -6.784  34.160  1.00  0.00     0.302 A 
HETATM   31  O3  UNK     1      34.580  -7.209  33.450  1.00  0.00    -0.259 OA
HETATM   32  C29 UNK     1      32.206  -5.060  38.445  1.00  0.00     0.022 A 
HETATM   33  C28 UNK     1      30.897  -4.938  37.974  1.00  0.00     0.011 A 
HETATM   34 Br1  UNK     1      29.545  -4.276  39.119  1.00  0.00    -0.051 Br
ENDBRANCH  21  23
ENDBRANCH  20  21
ENDBRANCH   1  20
TORSDOF 6
ENDMDL
