MODEL 1
REMARK VINA RESULT:      -9.4      0.000      0.000
REMARK  9 active torsions:
REMARK  status: ('A' for Active; 'I' for Inactive)
REMARK    1  A    between atoms: C2_9  and  O1_1 
REMARK    2  A    between atoms: C7_14  and  O1_1 
REMARK    3  A    between atoms: C3_10  and  O2_2 
REMARK    4  A    between atoms: C11_18  and  O3_3 
REMARK    5  A    between atoms: C17_24  and  O3_3 
REMARK    6  A    between atoms: C14_21  and  N1_6 
REMARK    7  A    between atoms: C1_8  and  C8_15 
REMARK    8  A    between atoms: C11_18  and  C7_14 
REMARK    9  A    between atoms: C10_17  and  C9_16 
ROOT
HETATM    1  N2  UNK     1      14.495   6.739  31.691  1.00  0.00    -0.191 NA
HETATM    2  C8  UNK     1      17.671   7.441  32.835  1.00  0.00     0.035 C 
HETATM    3  C10 UNK     1      16.417   7.956  32.949  1.00  0.00     0.055 C 
HETATM    4  C21 UNK     1      15.360   7.275  32.249  1.00  0.00     0.100 C 
ENDROOT
BRANCH   3   5
HETATM    5  C9  UNK     1      16.095   9.136  33.735  1.00  0.00    -0.015 A 
HETATM    6  C12 UNK     1      14.846   9.247  34.346  1.00  0.00     0.015 A 
HETATM    7  C15 UNK     1      14.537  10.378  35.102  1.00  0.00     0.037 A 
HETATM    8  C14 UNK     1      15.477  11.398  35.246  1.00  0.00     0.102 A 
HETATM    9  C16 UNK     1      16.727  11.288  34.635  1.00  0.00     0.037 A 
HETATM   10  C13 UNK     1      17.035  10.156  33.880  1.00  0.00     0.015 A 
BRANCH   8  11
HETATM   11  N1  UNK     1      15.164  12.550  36.015  1.00  0.00    -0.116 N 
HETATM   12  O4  UNK     1      15.951  12.906  36.925  1.00  0.00    -0.532 OA
HETATM   13  O5  UNK     1      14.108  13.180  35.764  1.00  0.00    -0.532 OA
ENDBRANCH   8  11
ENDBRANCH   3   5
BRANCH   2  14
HETATM   14  C1  UNK     1      18.040   6.248  32.060  1.00  0.00    -0.032 A 
HETATM   15  C4  UNK     1      17.711   4.978  32.533  1.00  0.00     0.051 A 
HETATM   16  C3  UNK     1      18.061   3.847  31.796  1.00  0.00     0.102 A 
HETATM   17  C2  UNK     1      18.740   3.986  30.585  1.00  0.00     0.102 A 
HETATM   18  C6  UNK     1      19.070   5.255  30.112  1.00  0.00     0.040 A 
HETATM   19  C5  UNK     1      18.720   6.387  30.849  1.00  0.00     0.014 A 
BRANCH  16  20
HETATM   20  O2  UNK     1      17.734   2.611  32.268  1.00  0.00    -0.353 OA
HETATM   21  C20 UNK     1      18.200   2.272  33.573  1.00  0.00     0.210 C 
ENDBRANCH  16  20
BRANCH  17  22
HETATM   22  O1  UNK     1      19.088   2.888  29.857  1.00  0.00    -0.346 OA
BRANCH  22  23
HETATM   23  C7  UNK     1      18.091   2.337  28.998  1.00  0.00     0.202 C 
BRANCH  23  24
HETATM   24  C11 UNK     1      18.513   0.941  28.582  1.00  0.00     0.202 C 
BRANCH  24  25
HETATM   25  O3  UNK     1      19.832   0.695  29.056  1.00  0.00    -0.349 OA
BRANCH  25  26
HETATM   26  C17 UNK     1      19.994  -0.373  29.900  1.00  0.00     0.068 A 
HETATM   27  C18 UNK     1      19.563  -0.289  31.224  1.00  0.00     0.037 A 
HETATM   28  C22 UNK     1      19.729  -1.376  32.082  1.00  0.00     0.003 A 
HETATM   29  C24 UNK     1      20.326  -2.548  31.616  1.00  0.00     0.000 A 
HETATM   30  C23 UNK     1      20.757  -2.632  30.292  1.00  0.00     0.003 A 
HETATM   31  C19 UNK     1      20.591  -1.545  29.434  1.00  0.00     0.037 A 
ENDBRANCH  25  26
ENDBRANCH  24  25
ENDBRANCH  23  24
ENDBRANCH  22  23
ENDBRANCH  17  22
ENDBRANCH   2  14
TORSDOF 9
ENDMDL
MODEL 2
REMARK VINA RESULT:      -9.0      1.340      1.930
REMARK  9 active torsions:
REMARK  status: ('A' for Active; 'I' for Inactive)
REMARK    1  A    between atoms: C2_9  and  O1_1 
REMARK    2  A    between atoms: C7_14  and  O1_1 
REMARK    3  A    between atoms: C3_10  and  O2_2 
REMARK    4  A    between atoms: C11_18  and  O3_3 
REMARK    5  A    between atoms: C17_24  and  O3_3 
REMARK    6  A    between atoms: C14_21  and  N1_6 
REMARK    7  A    between atoms: C1_8  and  C8_15 
REMARK    8  A    between atoms: C11_18  and  C7_14 
REMARK    9  A    between atoms: C10_17  and  C9_16 
ROOT
HETATM    1  N2  UNK     1      13.729   6.706  31.811  1.00  0.00    -0.191 NA
HETATM    2  C8  UNK     1      16.541   8.231  33.099  1.00  0.00     0.035 C 
HETATM    3  C10 UNK     1      15.196   8.433  33.086  1.00  0.00     0.055 C 
HETATM    4  C21 UNK     1      14.392   7.471  32.378  1.00  0.00     0.100 C 
ENDROOT
BRANCH   3   5
HETATM    5  C9  UNK     1      14.539   9.549  33.746  1.00  0.00    -0.015 A 
HETATM    6  C12 UNK     1      14.848   9.854  35.073  1.00  0.00     0.015 A 
HETATM    7  C15 UNK     1      14.219  10.926  35.706  1.00  0.00     0.037 A 
HETATM    8  C14 UNK     1      13.281  11.692  35.014  1.00  0.00     0.102 A 
HETATM    9  C16 UNK     1      12.972  11.388  33.688  1.00  0.00     0.037 A 
HETATM   10  C13 UNK     1      13.602  10.316  33.055  1.00  0.00     0.015 A 
BRANCH   8  11
HETATM   11  N1  UNK     1      12.641  12.783  35.658  1.00  0.00    -0.116 N 
HETATM   12  O4  UNK     1      13.342  13.723  36.105  1.00  0.00    -0.532 OA
HETATM   13  O5  UNK     1      11.390  12.778  35.764  1.00  0.00    -0.532 OA
ENDBRANCH   8  11
ENDBRANCH   3   5
BRANCH   2  14
HETATM   14  C1  UNK     1      17.246   7.114  32.452  1.00  0.00    -0.032 A 
HETATM   15  C4  UNK     1      17.280   5.862  33.066  1.00  0.00     0.051 A 
HETATM   16  C3  UNK     1      17.949   4.803  32.451  1.00  0.00     0.102 A 
HETATM   17  C2  UNK     1      18.583   4.996  31.224  1.00  0.00     0.102 A 
HETATM   18  C6  UNK     1      18.549   6.248  30.611  1.00  0.00     0.040 A 
HETATM   19  C5  UNK     1      17.881   7.307  31.225  1.00  0.00     0.014 A 
BRANCH  16  20
HETATM   20  O2  UNK     1      17.975   3.584  33.060  1.00  0.00    -0.353 OA
HETATM   21  C20 UNK     1      18.448   3.542  34.405  1.00  0.00     0.210 C 
ENDBRANCH  16  20
BRANCH  17  22
HETATM   22  O1  UNK     1      19.239   3.969  30.615  1.00  0.00    -0.346 OA
BRANCH  22  23
HETATM   23  C7  UNK     1      18.708   3.505  29.375  1.00  0.00     0.202 C 
BRANCH  23  24
HETATM   24  C11 UNK     1      18.063   2.149  29.590  1.00  0.00     0.202 C 
BRANCH  24  25
HETATM   25  O3  UNK     1      18.672   1.518  30.710  1.00  0.00    -0.349 OA
BRANCH  25  26
HETATM   26  C17 UNK     1      19.331   0.340  30.470  1.00  0.00     0.068 A 
HETATM   27  C18 UNK     1      19.886   0.094  29.215  1.00  0.00     0.037 A 
HETATM   28  C22 UNK     1      20.556  -1.105  28.971  1.00  0.00     0.003 A 
HETATM   29  C24 UNK     1      20.671  -2.057  29.984  1.00  0.00     0.000 A 
HETATM   30  C23 UNK     1      20.117  -1.811  31.240  1.00  0.00     0.003 A 
HETATM   31  C19 UNK     1      19.446  -0.612  31.483  1.00  0.00     0.037 A 
ENDBRANCH  25  26
ENDBRANCH  24  25
ENDBRANCH  23  24
ENDBRANCH  22  23
ENDBRANCH  17  22
ENDBRANCH   2  14
TORSDOF 9
ENDMDL
MODEL 3
REMARK VINA RESULT:      -8.7      2.599      4.211
REMARK  9 active torsions:
REMARK  status: ('A' for Active; 'I' for Inactive)
REMARK    1  A    between atoms: C2_9  and  O1_1 
REMARK    2  A    between atoms: C7_14  and  O1_1 
REMARK    3  A    between atoms: C3_10  and  O2_2 
REMARK    4  A    between atoms: C11_18  and  O3_3 
REMARK    5  A    between atoms: C17_24  and  O3_3 
REMARK    6  A    between atoms: C14_21  and  N1_6 
REMARK    7  A    between atoms: C1_8  and  C8_15 
REMARK    8  A    between atoms: C11_18  and  C7_14 
REMARK    9  A    between atoms: C10_17  and  C9_16 
ROOT
HETATM    1  N2  UNK     1      21.287   6.169  32.720  1.00  0.00    -0.191 NA
HETATM    2  C8  UNK     1      17.849   5.933  32.822  1.00  0.00     0.035 C 
HETATM    3  C10 UNK     1      18.806   6.873  33.046  1.00  0.00     0.055 C 
HETATM    4  C21 UNK     1      20.177   6.474  32.863  1.00  0.00     0.100 C 
ENDROOT
BRANCH   3   5
HETATM    5  C9  UNK     1      18.519   8.241  33.447  1.00  0.00    -0.015 A 
HETATM    6  C12 UNK     1      17.227   8.750  33.311  1.00  0.00     0.015 A 
HETATM    7  C15 UNK     1      16.951  10.062  33.697  1.00  0.00     0.037 A 
HETATM    8  C14 UNK     1      17.966  10.864  34.218  1.00  0.00     0.102 A 
HETATM    9  C16 UNK     1      19.258  10.355  34.353  1.00  0.00     0.037 A 
HETATM   10  C13 UNK     1      19.533   9.043  33.967  1.00  0.00     0.015 A 
BRANCH   8  11
HETATM   11  N1  UNK     1      17.686  12.199  34.611  1.00  0.00    -0.116 N 
HETATM   12  O4  UNK     1      18.427  13.123  34.198  1.00  0.00    -0.532 OA
HETATM   13  O5  UNK     1      16.705  12.419  35.362  1.00  0.00    -0.532 OA
ENDBRANCH   8  11
ENDBRANCH   3   5
BRANCH   2  14
HETATM   14  C1  UNK     1      18.093   4.543  32.409  1.00  0.00    -0.032 A 
HETATM   15  C4  UNK     1      18.364   4.250  31.072  1.00  0.00     0.051 A 
HETATM   16  C3  UNK     1      18.595   2.931  30.681  1.00  0.00     0.102 A 
HETATM   17  C2  UNK     1      18.557   1.906  31.626  1.00  0.00     0.102 A 
HETATM   18  C6  UNK     1      18.286   2.199  32.963  1.00  0.00     0.040 A 
HETATM   19  C5  UNK     1      18.054   3.517  33.354  1.00  0.00     0.014 A 
BRANCH  16  20
HETATM   20  O2  UNK     1      18.859   2.656  29.373  1.00  0.00    -0.353 OA
HETATM   21  C20 UNK     1      17.814   2.048  28.616  1.00  0.00     0.210 C 
ENDBRANCH  16  20
BRANCH  17  22
HETATM   22  O1  UNK     1      18.781   0.614  31.256  1.00  0.00    -0.346 OA
BRANCH  22  23
HETATM   23  C7  UNK     1      19.673  -0.147  32.068  1.00  0.00     0.202 C 
BRANCH  23  24
HETATM   24  C11 UNK     1      18.906  -1.289  32.708  1.00  0.00     0.202 C 
BRANCH  24  25
HETATM   25  O3  UNK     1      19.154  -1.287  34.109  1.00  0.00    -0.349 OA
BRANCH  25  26
HETATM   26  C17 UNK     1      18.232  -0.650  34.897  1.00  0.00     0.068 A 
HETATM   27  C18 UNK     1      16.877  -0.713  34.576  1.00  0.00     0.037 A 
HETATM   28  C22 UNK     1      15.939  -0.064  35.380  1.00  0.00     0.003 A 
HETATM   29  C24 UNK     1      16.358   0.648  36.504  1.00  0.00     0.000 A 
HETATM   30  C23 UNK     1      17.713   0.711  36.825  1.00  0.00     0.003 A 
HETATM   31  C19 UNK     1      18.651   0.062  36.022  1.00  0.00     0.037 A 
ENDBRANCH  25  26
ENDBRANCH  24  25
ENDBRANCH  23  24
ENDBRANCH  22  23
ENDBRANCH  17  22
ENDBRANCH   2  14
TORSDOF 9
ENDMDL
MODEL 4
REMARK VINA RESULT:      -8.6      6.253     12.009
REMARK  9 active torsions:
REMARK  status: ('A' for Active; 'I' for Inactive)
REMARK    1  A    between atoms: C2_9  and  O1_1 
REMARK    2  A    between atoms: C7_14  and  O1_1 
REMARK    3  A    between atoms: C3_10  and  O2_2 
REMARK    4  A    between atoms: C11_18  and  O3_3 
REMARK    5  A    between atoms: C17_24  and  O3_3 
REMARK    6  A    between atoms: C14_21  and  N1_6 
REMARK    7  A    between atoms: C1_8  and  C8_15 
REMARK    8  A    between atoms: C11_18  and  C7_14 
REMARK    9  A    between atoms: C10_17  and  C9_16 
ROOT
HETATM    1  N2  UNK     1      22.054  -1.754  35.348  1.00  0.00    -0.191 NA
HETATM    2  C8  UNK     1      18.738  -2.307  36.113  1.00  0.00     0.035 C 
HETATM    3  C10 UNK     1      19.929  -2.947  36.254  1.00  0.00     0.055 C 
HETATM    4  C21 UNK     1      21.100  -2.279  35.749  1.00  0.00     0.100 C 
ENDROOT
BRANCH   3   5
HETATM    5  C9  UNK     1      20.079  -4.248  36.885  1.00  0.00    -0.015 A 
HETATM    6  C12 UNK     1      19.117  -5.238  36.679  1.00  0.00     0.015 A 
HETATM    7  C15 UNK     1      19.261  -6.487  37.283  1.00  0.00     0.037 A 
HETATM    8  C14 UNK     1      20.366  -6.746  38.095  1.00  0.00     0.102 A 
HETATM    9  C16 UNK     1      21.327  -5.756  38.302  1.00  0.00     0.037 A 
HETATM   10  C13 UNK     1      21.183  -4.507  37.697  1.00  0.00     0.015 A 
BRANCH   8  11
HETATM   11  N1  UNK     1      20.513  -8.017  38.710  1.00  0.00    -0.116 N 
HETATM   12  O4  UNK     1      19.631  -8.411  39.511  1.00  0.00    -0.532 OA
HETATM   13  O5  UNK     1      21.522  -8.712  38.437  1.00  0.00    -0.532 OA
ENDBRANCH   8  11
ENDBRANCH   3   5
BRANCH   2  14
HETATM   14  C1  UNK     1      18.541  -0.990  35.489  1.00  0.00    -0.032 A 
HETATM   15  C4  UNK     1      18.598  -0.859  34.102  1.00  0.00     0.051 A 
HETATM   16  C3  UNK     1      18.410   0.391  33.511  1.00  0.00     0.102 A 
HETATM   17  C2  UNK     1      18.167   1.509  34.307  1.00  0.00     0.102 A 
HETATM   18  C6  UNK     1      18.111   1.380  35.695  1.00  0.00     0.040 A 
HETATM   19  C5  UNK     1      18.298   0.130  36.286  1.00  0.00     0.014 A 
BRANCH  16  20
HETATM   20  O2  UNK     1      18.467   0.506  32.155  1.00  0.00    -0.353 OA
HETATM   21  C20 UNK     1      19.327  -0.398  31.463  1.00  0.00     0.210 C 
ENDBRANCH  16  20
BRANCH  17  22
HETATM   22  O1  UNK     1      17.983   2.735  33.742  1.00  0.00    -0.346 OA
BRANCH  22  23
HETATM   23  C7  UNK     1      18.559   3.853  34.416  1.00  0.00     0.202 C 
BRANCH  23  24
HETATM   24  C11 UNK     1      17.776   5.102  34.057  1.00  0.00     0.202 C 
BRANCH  24  25
HETATM   25  O3  UNK     1      18.688   6.130  33.687  1.00  0.00    -0.349 OA
BRANCH  25  26
HETATM   26  C17 UNK     1      19.195   6.076  32.415  1.00  0.00     0.068 A 
HETATM   27  C18 UNK     1      18.333   6.097  31.319  1.00  0.00     0.037 A 
HETATM   28  C22 UNK     1      18.850   6.041  30.024  1.00  0.00     0.003 A 
HETATM   29  C24 UNK     1      20.229   5.964  29.827  1.00  0.00     0.000 A 
HETATM   30  C23 UNK     1      21.091   5.943  30.923  1.00  0.00     0.003 A 
HETATM   31  C19 UNK     1      20.573   5.999  32.218  1.00  0.00     0.037 A 
ENDBRANCH  25  26
ENDBRANCH  24  25
ENDBRANCH  23  24
ENDBRANCH  22  23
ENDBRANCH  17  22
ENDBRANCH   2  14
TORSDOF 9
ENDMDL
MODEL 5
REMARK VINA RESULT:      -8.6      6.244     12.454
REMARK  9 active torsions:
REMARK  status: ('A' for Active; 'I' for Inactive)
REMARK    1  A    between atoms: C2_9  and  O1_1 
REMARK    2  A    between atoms: C7_14  and  O1_1 
REMARK    3  A    between atoms: C3_10  and  O2_2 
REMARK    4  A    between atoms: C11_18  and  O3_3 
REMARK    5  A    between atoms: C17_24  and  O3_3 
REMARK    6  A    between atoms: C14_21  and  N1_6 
REMARK    7  A    between atoms: C1_8  and  C8_15 
REMARK    8  A    between atoms: C11_18  and  C7_14 
REMARK    9  A    between atoms: C10_17  and  C9_16 
ROOT
HETATM    1  N2  UNK     1      21.978  -1.770  35.352  1.00  0.00    -0.191 NA
HETATM    2  C8  UNK     1      18.640  -2.336  36.001  1.00  0.00     0.035 C 
HETATM    3  C10 UNK     1      19.830  -2.963  36.202  1.00  0.00     0.055 C 
HETATM    4  C21 UNK     1      21.014  -2.294  35.728  1.00  0.00     0.100 C 
ENDROOT
BRANCH   3   5
HETATM    5  C9  UNK     1      19.966  -4.249  36.866  1.00  0.00    -0.015 A 
HETATM    6  C12 UNK     1      21.071  -4.499  37.680  1.00  0.00     0.015 A 
HETATM    7  C15 UNK     1      21.202  -5.732  38.319  1.00  0.00     0.037 A 
HETATM    8  C14 UNK     1      20.227  -6.715  38.144  1.00  0.00     0.102 A 
HETATM    9  C16 UNK     1      19.122  -6.465  37.329  1.00  0.00     0.037 A 
HETATM   10  C13 UNK     1      18.992  -5.231  36.691  1.00  0.00     0.015 A 
BRANCH   8  11
HETATM   11  N1  UNK     1      20.359  -7.971  38.793  1.00  0.00    -0.116 N 
HETATM   12  O4  UNK     1      19.413  -8.793  38.726  1.00  0.00    -0.532 OA
HETATM   13  O5  UNK     1      21.417  -8.224  39.418  1.00  0.00    -0.532 OA
ENDBRANCH   8  11
ENDBRANCH   3   5
BRANCH   2  14
HETATM   14  C1  UNK     1      18.456  -1.035  35.343  1.00  0.00    -0.032 A 
HETATM   15  C4  UNK     1      18.613  -0.923  33.961  1.00  0.00     0.051 A 
HETATM   16  C3  UNK     1      18.438   0.312  33.337  1.00  0.00     0.102 A 
HETATM   17  C2  UNK     1      18.107   1.436  34.094  1.00  0.00     0.102 A 
HETATM   18  C6  UNK     1      17.951   1.325  35.476  1.00  0.00     0.040 A 
HETATM   19  C5  UNK     1      18.126   0.090  36.100  1.00  0.00     0.014 A 
BRANCH  16  20
HETATM   20  O2  UNK     1      18.593   0.409  31.987  1.00  0.00    -0.353 OA
HETATM   21  C20 UNK     1      19.527  -0.480  31.377  1.00  0.00     0.210 C 
ENDBRANCH  16  20
BRANCH  17  22
HETATM   22  O1  UNK     1      17.934   2.647  33.496  1.00  0.00    -0.346 OA
BRANCH  22  23
HETATM   23  C7  UNK     1      18.448   3.788  34.181  1.00  0.00     0.202 C 
BRANCH  23  24
HETATM   24  C11 UNK     1      18.373   4.992  33.262  1.00  0.00     0.202 C 
BRANCH  24  25
HETATM   25  O3  UNK     1      17.517   5.968  33.844  1.00  0.00    -0.349 OA
BRANCH  25  26
HETATM   26  C17 UNK     1      18.020   7.237  33.964  1.00  0.00     0.068 A 
HETATM   27  C18 UNK     1      19.362   7.427  34.292  1.00  0.00     0.037 A 
HETATM   28  C22 UNK     1      19.874   8.720  34.414  1.00  0.00     0.003 A 
HETATM   29  C24 UNK     1      19.042   9.821  34.209  1.00  0.00     0.000 A 
HETATM   30  C23 UNK     1      17.700   9.630  33.881  1.00  0.00     0.003 A 
HETATM   31  C19 UNK     1      17.189   8.338  33.759  1.00  0.00     0.037 A 
ENDBRANCH  25  26
ENDBRANCH  24  25
ENDBRANCH  23  24
ENDBRANCH  22  23
ENDBRANCH  17  22
ENDBRANCH   2  14
TORSDOF 9
ENDMDL
MODEL 6
REMARK VINA RESULT:      -8.6      6.330     12.269
REMARK  9 active torsions:
REMARK  status: ('A' for Active; 'I' for Inactive)
REMARK    1  A    between atoms: C2_9  and  O1_1 
REMARK    2  A    between atoms: C7_14  and  O1_1 
REMARK    3  A    between atoms: C3_10  and  O2_2 
REMARK    4  A    between atoms: C11_18  and  O3_3 
REMARK    5  A    between atoms: C17_24  and  O3_3 
REMARK    6  A    between atoms: C14_21  and  N1_6 
REMARK    7  A    between atoms: C1_8  and  C8_15 
REMARK    8  A    between atoms: C11_18  and  C7_14 
REMARK    9  A    between atoms: C10_17  and  C9_16 
ROOT
HETATM    1  N2  UNK     1      22.088  -1.791  35.363  1.00  0.00    -0.191 NA
HETATM    2  C8  UNK     1      18.773  -2.518  35.975  1.00  0.00     0.035 C 
HETATM    3  C10 UNK     1      19.989  -3.095  36.172  1.00  0.00     0.055 C 
HETATM    4  C21 UNK     1      21.145  -2.366  35.721  1.00  0.00     0.100 C 
ENDROOT
BRANCH   3   5
HETATM    5  C9  UNK     1      20.177  -4.387  36.811  1.00  0.00    -0.015 A 
HETATM    6  C12 UNK     1      21.245  -4.581  37.689  1.00  0.00     0.015 A 
HETATM    7  C15 UNK     1      21.425  -5.820  38.304  1.00  0.00     0.037 A 
HETATM    8  C14 UNK     1      20.539  -6.865  38.041  1.00  0.00     0.102 A 
HETATM    9  C16 UNK     1      19.472  -6.671  37.163  1.00  0.00     0.037 A 
HETATM   10  C13 UNK     1      19.292  -5.432  36.549  1.00  0.00     0.015 A 
BRANCH   8  11
HETATM   11  N1  UNK     1      20.722  -8.126  38.667  1.00  0.00    -0.116 N 
HETATM   12  O4  UNK     1      19.904  -8.494  39.544  1.00  0.00    -0.532 OA
HETATM   13  O5  UNK     1      21.697  -8.839  38.326  1.00  0.00    -0.532 OA
ENDBRANCH   8  11
ENDBRANCH   3   5
BRANCH   2  14
HETATM   14  C1  UNK     1      18.537  -1.213  35.341  1.00  0.00    -0.032 A 
HETATM   15  C4  UNK     1      18.183  -0.112  36.121  1.00  0.00     0.051 A 
HETATM   16  C3  UNK     1      17.959   1.126  35.519  1.00  0.00     0.102 A 
HETATM   17  C2  UNK     1      18.089   1.263  34.137  1.00  0.00     0.102 A 
HETATM   18  C6  UNK     1      18.443   0.163  33.356  1.00  0.00     0.040 A 
HETATM   19  C5  UNK     1      18.667  -1.075  33.958  1.00  0.00     0.014 A 
BRANCH  16  20
HETATM   20  O2  UNK     1      17.614   2.194  36.290  1.00  0.00    -0.353 OA
HETATM   21  C20 UNK     1      16.707   1.951  37.364  1.00  0.00     0.210 C 
ENDBRANCH  16  20
BRANCH  17  22
HETATM   22  O1  UNK     1      17.873   2.467  33.537  1.00  0.00    -0.346 OA
BRANCH  22  23
HETATM   23  C7  UNK     1      18.284   2.598  32.178  1.00  0.00     0.202 C 
BRANCH  23  24
HETATM   24  C11 UNK     1      18.244   4.064  31.788  1.00  0.00     0.202 C 
BRANCH  24  25
HETATM   25  O3  UNK     1      17.500   4.783  32.764  1.00  0.00    -0.349 OA
BRANCH  25  26
HETATM   26  C17 UNK     1      18.100   5.890  33.304  1.00  0.00     0.068 A 
HETATM   27  C18 UNK     1      19.430   6.181  33.001  1.00  0.00     0.037 A 
HETATM   28  C22 UNK     1      20.041   7.308  33.552  1.00  0.00     0.003 A 
HETATM   29  C24 UNK     1      19.321   8.143  34.406  1.00  0.00     0.000 A 
HETATM   30  C23 UNK     1      17.991   7.853  34.709  1.00  0.00     0.003 A 
HETATM   31  C19 UNK     1      17.381   6.726  34.158  1.00  0.00     0.037 A 
ENDBRANCH  25  26
ENDBRANCH  24  25
ENDBRANCH  23  24
ENDBRANCH  22  23
ENDBRANCH  17  22
ENDBRANCH   2  14
TORSDOF 9
ENDMDL
MODEL 7
REMARK VINA RESULT:      -8.2      2.926     10.954
REMARK  9 active torsions:
REMARK  status: ('A' for Active; 'I' for Inactive)
REMARK    1  A    between atoms: C2_9  and  O1_1 
REMARK    2  A    between atoms: C7_14  and  O1_1 
REMARK    3  A    between atoms: C3_10  and  O2_2 
REMARK    4  A    between atoms: C11_18  and  O3_3 
REMARK    5  A    between atoms: C17_24  and  O3_3 
REMARK    6  A    between atoms: C14_21  and  N1_6 
REMARK    7  A    between atoms: C1_8  and  C8_15 
REMARK    8  A    between atoms: C11_18  and  C7_14 
REMARK    9  A    between atoms: C10_17  and  C9_16 
ROOT
HETATM    1  N2  UNK     1      19.226   6.249  29.687  1.00  0.00    -0.191 NA
HETATM    2  C8  UNK     1      17.951   4.267  32.203  1.00  0.00     0.035 C 
HETATM    3  C10 UNK     1      18.529   4.106  30.983  1.00  0.00     0.055 C 
HETATM    4  C21 UNK     1      18.911   5.299  30.273  1.00  0.00     0.100 C 
ENDROOT
BRANCH   3   5
HETATM    5  C9  UNK     1      18.782   2.811  30.373  1.00  0.00    -0.015 A 
HETATM    6  C12 UNK     1      18.344   2.556  29.073  1.00  0.00     0.015 A 
HETATM    7  C15 UNK     1      18.589   1.315  28.486  1.00  0.00     0.037 A 
HETATM    8  C14 UNK     1      19.271   0.328  29.199  1.00  0.00     0.102 A 
HETATM    9  C16 UNK     1      19.708   0.583  30.499  1.00  0.00     0.037 A 
HETATM   10  C13 UNK     1      19.464   1.825  31.085  1.00  0.00     0.015 A 
BRANCH   8  11
HETATM   11  N1  UNK     1      19.521  -0.936  28.602  1.00  0.00    -0.116 N 
HETATM   12  O4  UNK     1      20.101  -1.822  29.275  1.00  0.00    -0.532 OA
HETATM   13  O5  UNK     1      19.155  -1.132  27.418  1.00  0.00    -0.532 OA
ENDBRANCH   8  11
ENDBRANCH   3   5
BRANCH   2  14
HETATM   14  C1  UNK     1      17.683   5.554  32.861  1.00  0.00    -0.032 A 
HETATM   15  C4  UNK     1      16.478   6.219  32.631  1.00  0.00     0.051 A 
HETATM   16  C3  UNK     1      16.224   7.440  33.256  1.00  0.00     0.102 A 
HETATM   17  C2  UNK     1      17.175   7.996  34.112  1.00  0.00     0.102 A 
HETATM   18  C6  UNK     1      18.380   7.333  34.343  1.00  0.00     0.040 A 
HETATM   19  C5  UNK     1      18.634   6.112  33.717  1.00  0.00     0.014 A 
BRANCH  16  20
HETATM   20  O2  UNK     1      15.044   8.079  33.024  1.00  0.00    -0.353 OA
HETATM   21  C20 UNK     1      14.035   7.346  32.331  1.00  0.00     0.210 C 
ENDBRANCH  16  20
BRANCH  17  22
HETATM   22  O1  UNK     1      16.938   9.188  34.728  1.00  0.00    -0.346 OA
BRANCH  22  23
HETATM   23  C7  UNK     1      17.518  10.350  34.136  1.00  0.00     0.202 C 
BRANCH  23  24
HETATM   24  C11 UNK     1      16.582  11.526  34.339  1.00  0.00     0.202 C 
BRANCH  24  25
HETATM   25  O3  UNK     1      15.406  11.076  35.001  1.00  0.00    -0.349 OA
BRANCH  25  26
HETATM   26  C17 UNK     1      14.209  11.513  34.497  1.00  0.00     0.068 A 
HETATM   27  C18 UNK     1      13.291  12.150  35.331  1.00  0.00     0.037 A 
HETATM   28  C22 UNK     1      12.073  12.594  34.817  1.00  0.00     0.003 A 
HETATM   29  C24 UNK     1      11.773  12.401  33.469  1.00  0.00     0.000 A 
HETATM   30  C23 UNK     1      12.691  11.764  32.634  1.00  0.00     0.003 A 
HETATM   31  C19 UNK     1      13.909  11.320  33.148  1.00  0.00     0.037 A 
ENDBRANCH  25  26
ENDBRANCH  24  25
ENDBRANCH  23  24
ENDBRANCH  22  23
ENDBRANCH  17  22
ENDBRANCH   2  14
TORSDOF 9
ENDMDL
MODEL 8
REMARK VINA RESULT:      -8.2      2.912     11.112
REMARK  9 active torsions:
REMARK  status: ('A' for Active; 'I' for Inactive)
REMARK    1  A    between atoms: C2_9  and  O1_1 
REMARK    2  A    between atoms: C7_14  and  O1_1 
REMARK    3  A    between atoms: C3_10  and  O2_2 
REMARK    4  A    between atoms: C11_18  and  O3_3 
REMARK    5  A    between atoms: C17_24  and  O3_3 
REMARK    6  A    between atoms: C14_21  and  N1_6 
REMARK    7  A    between atoms: C1_8  and  C8_15 
REMARK    8  A    between atoms: C11_18  and  C7_14 
REMARK    9  A    between atoms: C10_17  and  C9_16 
ROOT
HETATM    1  N2  UNK     1      17.948   3.555  34.075  1.00  0.00    -0.191 NA
HETATM    2  C8  UNK     1      18.635   5.190  31.118  1.00  0.00     0.035 C 
HETATM    3  C10 UNK     1      18.540   3.910  31.568  1.00  0.00     0.055 C 
HETATM    4  C21 UNK     1      18.212   3.724  32.958  1.00  0.00     0.100 C 
ENDROOT
BRANCH   3   5
HETATM    5  C9  UNK     1      18.743   2.740  30.730  1.00  0.00    -0.015 A 
HETATM    6  C12 UNK     1      18.258   2.726  29.422  1.00  0.00     0.015 A 
HETATM    7  C15 UNK     1      18.454   1.605  28.617  1.00  0.00     0.037 A 
HETATM    8  C14 UNK     1      19.134   0.495  29.120  1.00  0.00     0.102 A 
HETATM    9  C16 UNK     1      19.619   0.508  30.428  1.00  0.00     0.037 A 
HETATM   10  C13 UNK     1      19.423   1.631  31.232  1.00  0.00     0.015 A 
BRANCH   8  11
HETATM   11  N1  UNK     1      19.334  -0.647  28.301  1.00  0.00    -0.116 N 
HETATM   12  O4  UNK     1      18.849  -0.659  27.144  1.00  0.00    -0.532 OA
HETATM   13  O5  UNK     1      19.990  -1.615  28.757  1.00  0.00    -0.532 OA
ENDBRANCH   8  11
ENDBRANCH   3   5
BRANCH   2  14
HETATM   14  C1  UNK     1      18.431   6.400  31.926  1.00  0.00    -0.032 A 
HETATM   15  C4  UNK     1      17.275   7.164  31.761  1.00  0.00     0.051 A 
HETATM   16  C3  UNK     1      17.081   8.312  32.529  1.00  0.00     0.102 A 
HETATM   17  C2  UNK     1      18.043   8.697  33.462  1.00  0.00     0.102 A 
HETATM   18  C6  UNK     1      19.199   7.934  33.628  1.00  0.00     0.040 A 
HETATM   19  C5  UNK     1      19.393   6.786  32.860  1.00  0.00     0.014 A 
BRANCH  16  20
HETATM   20  O2  UNK     1      15.949   9.049  32.358  1.00  0.00    -0.353 OA
HETATM   21  C20 UNK     1      14.811   8.679  33.135  1.00  0.00     0.210 C 
ENDBRANCH  16  20
BRANCH  17  22
HETATM   22  O1  UNK     1      17.866   9.817  34.218  1.00  0.00    -0.346 OA
BRANCH  22  23
HETATM   23  C7  UNK     1      18.609  10.976  33.844  1.00  0.00     0.202 C 
BRANCH  23  24
HETATM   24  C11 UNK     1      17.744  12.205  34.049  1.00  0.00     0.202 C 
BRANCH  24  25
HETATM   25  O3  UNK     1      16.398  11.795  34.256  1.00  0.00    -0.349 OA
BRANCH  25  26
HETATM   26  C17 UNK     1      15.789  12.236  35.402  1.00  0.00     0.068 A 
HETATM   27  C18 UNK     1      16.422  13.179  36.211  1.00  0.00     0.037 A 
HETATM   28  C22 UNK     1      15.802  13.626  37.378  1.00  0.00     0.003 A 
HETATM   29  C24 UNK     1      14.547  13.132  37.734  1.00  0.00     0.000 A 
HETATM   30  C23 UNK     1      13.913  12.190  36.924  1.00  0.00     0.003 A 
HETATM   31  C19 UNK     1      14.534  11.742  35.758  1.00  0.00     0.037 A 
ENDBRANCH  25  26
ENDBRANCH  24  25
ENDBRANCH  23  24
ENDBRANCH  22  23
ENDBRANCH  17  22
ENDBRANCH   2  14
TORSDOF 9
ENDMDL
MODEL 9
REMARK VINA RESULT:      -8.0      3.199     11.225
REMARK  9 active torsions:
REMARK  status: ('A' for Active; 'I' for Inactive)
REMARK    1  A    between atoms: C2_9  and  O1_1 
REMARK    2  A    between atoms: C7_14  and  O1_1 
REMARK    3  A    between atoms: C3_10  and  O2_2 
REMARK    4  A    between atoms: C11_18  and  O3_3 
REMARK    5  A    between atoms: C17_24  and  O3_3 
REMARK    6  A    between atoms: C14_21  and  N1_6 
REMARK    7  A    between atoms: C1_8  and  C8_15 
REMARK    8  A    between atoms: C11_18  and  C7_14 
REMARK    9  A    between atoms: C10_17  and  C9_16 
ROOT
HETATM    1  N2  UNK     1      19.468   6.295  29.855  1.00  0.00    -0.191 NA
HETATM    2  C8  UNK     1      17.767   4.340  32.130  1.00  0.00     0.035 C 
HETATM    3  C10 UNK     1      18.485   4.171  30.988  1.00  0.00     0.055 C 
HETATM    4  C21 UNK     1      19.025   5.353  30.368  1.00  0.00     0.100 C 
ENDROOT
BRANCH   3   5
HETATM    5  C9  UNK     1      18.738   2.877  30.375  1.00  0.00    -0.015 A 
HETATM    6  C12 UNK     1      19.432   1.894  31.082  1.00  0.00     0.015 A 
HETATM    7  C15 UNK     1      19.673   0.652  30.495  1.00  0.00     0.037 A 
HETATM    8  C14 UNK     1      19.220   0.393  29.201  1.00  0.00     0.102 A 
HETATM    9  C16 UNK     1      18.527   1.375  28.494  1.00  0.00     0.037 A 
HETATM   10  C13 UNK     1      18.286   2.617  29.082  1.00  0.00     0.015 A 
BRANCH   8  11
HETATM   11  N1  UNK     1      19.465  -0.871  28.603  1.00  0.00    -0.116 N 
HETATM   12  O4  UNK     1      19.115  -1.059  27.412  1.00  0.00    -0.532 OA
HETATM   13  O5  UNK     1      20.025  -1.767  29.280  1.00  0.00    -0.532 OA
ENDBRANCH   8  11
ENDBRANCH   3   5
BRANCH   2  14
HETATM   14  C1  UNK     1      17.494   5.626  32.788  1.00  0.00    -0.032 A 
HETATM   15  C4  UNK     1      18.436   6.181  33.655  1.00  0.00     0.051 A 
HETATM   16  C3  UNK     1      18.177   7.401  34.279  1.00  0.00     0.102 A 
HETATM   17  C2  UNK     1      16.976   8.068  34.035  1.00  0.00     0.102 A 
HETATM   18  C6  UNK     1      16.033   7.514  33.169  1.00  0.00     0.040 A 
HETATM   19  C5  UNK     1      16.293   6.293  32.545  1.00  0.00     0.014 A 
BRANCH  16  20
HETATM   20  O2  UNK     1      19.104   7.933  35.123  1.00  0.00    -0.353 OA
HETATM   21  C20 UNK     1      20.115   8.754  34.542  1.00  0.00     0.210 C 
ENDBRANCH  16  20
BRANCH  17  22
HETATM   22  O1  UNK     1      16.711   9.260  34.638  1.00  0.00    -0.346 OA
BRANCH  22  23
HETATM   23  C7  UNK     1      15.979  10.222  33.880  1.00  0.00     0.202 C 
BRANCH  23  24
HETATM   24  C11 UNK     1      16.045  11.563  34.588  1.00  0.00     0.202 C 
BRANCH  24  25
HETATM   25  O3  UNK     1      17.405  11.966  34.691  1.00  0.00    -0.349 OA
BRANCH  25  26
HETATM   26  C17 UNK     1      17.721  13.204  34.195  1.00  0.00     0.068 A 
HETATM   27  C18 UNK     1      18.637  13.324  33.151  1.00  0.00     0.037 A 
HETATM   28  C22 UNK     1      18.957  14.585  32.646  1.00  0.00     0.003 A 
HETATM   29  C24 UNK     1      18.361  15.725  33.186  1.00  0.00     0.000 A 
HETATM   30  C23 UNK     1      17.445  15.604  34.231  1.00  0.00     0.003 A 
HETATM   31  C19 UNK     1      17.124  14.343  34.735  1.00  0.00     0.037 A 
ENDBRANCH  25  26
ENDBRANCH  24  25
ENDBRANCH  23  24
ENDBRANCH  22  23
ENDBRANCH  17  22
ENDBRANCH   2  14
TORSDOF 9
ENDMDL
MODEL 10
REMARK VINA RESULT:      -8.0     22.803     24.542
REMARK  9 active torsions:
REMARK  status: ('A' for Active; 'I' for Inactive)
REMARK    1  A    between atoms: C2_9  and  O1_1 
REMARK    2  A    between atoms: C7_14  and  O1_1 
REMARK    3  A    between atoms: C3_10  and  O2_2 
REMARK    4  A    between atoms: C11_18  and  O3_3 
REMARK    5  A    between atoms: C17_24  and  O3_3 
REMARK    6  A    between atoms: C14_21  and  N1_6 
REMARK    7  A    between atoms: C1_8  and  C8_15 
REMARK    8  A    between atoms: C11_18  and  C7_14 
REMARK    9  A    between atoms: C10_17  and  C9_16 
ROOT
HETATM    1  N2  UNK     1      17.902   7.587  10.165  1.00  0.00    -0.191 NA
HETATM    2  C8  UNK     1      15.705  10.079   9.244  1.00  0.00     0.035 C 
HETATM    3  C10 UNK     1      15.680   8.736   9.453  1.00  0.00     0.055 C 
HETATM    4  C21 UNK     1      16.915   8.108   9.847  1.00  0.00     0.100 C 
ENDROOT
BRANCH   3   5
HETATM    5  C9  UNK     1      14.489   7.915   9.310  1.00  0.00    -0.015 A 
HETATM    6  C12 UNK     1      14.462   6.626   9.842  1.00  0.00     0.015 A 
HETATM    7  C15 UNK     1      13.319   5.839   9.706  1.00  0.00     0.037 A 
HETATM    8  C14 UNK     1      12.202   6.341   9.037  1.00  0.00     0.102 A 
HETATM    9  C16 UNK     1      12.229   7.630   8.504  1.00  0.00     0.037 A 
HETATM   10  C13 UNK     1      13.373   8.416   8.641  1.00  0.00     0.015 A 
BRANCH   8  11
HETATM   11  N1  UNK     1      11.038   5.540   8.898  1.00  0.00    -0.116 N 
HETATM   12  O4  UNK     1      10.542   5.381   7.756  1.00  0.00    -0.532 OA
HETATM   13  O5  UNK     1      10.536   5.014   9.920  1.00  0.00    -0.532 OA
ENDBRANCH   8  11
ENDBRANCH   3   5
BRANCH   2  14
HETATM   14  C1  UNK     1      16.882  10.947   9.384  1.00  0.00    -0.032 A 
HETATM   15  C4  UNK     1      17.646  11.275   8.264  1.00  0.00     0.051 A 
HETATM   16  C3  UNK     1      18.763  12.100   8.399  1.00  0.00     0.102 A 
HETATM   17  C2  UNK     1      19.116  12.597   9.653  1.00  0.00     0.102 A 
HETATM   18  C6  UNK     1      18.353  12.269  10.774  1.00  0.00     0.040 A 
HETATM   19  C5  UNK     1      17.236  11.445  10.639  1.00  0.00     0.014 A 
BRANCH  16  20
HETATM   20  O2  UNK     1      19.501  12.413   7.297  1.00  0.00    -0.353 OA
HETATM   21  C20 UNK     1      18.795  12.574   6.068  1.00  0.00     0.210 C 
ENDBRANCH  16  20
BRANCH  17  22
HETATM   22  O1  UNK     1      20.205  13.403   9.797  1.00  0.00    -0.346 OA
BRANCH  22  23
HETATM   23  C7  UNK     1      21.042  13.166  10.927  1.00  0.00     0.202 C 
BRANCH  23  24
HETATM   24  C11 UNK     1      22.104  12.150  10.552  1.00  0.00     0.202 C 
BRANCH  24  25
HETATM   25  O3  UNK     1      22.810  11.762  11.725  1.00  0.00    -0.349 OA
BRANCH  25  26
HETATM   26  C17 UNK     1      24.124  12.142  11.807  1.00  0.00     0.068 A 
HETATM   27  C18 UNK     1      25.101  11.433  11.111  1.00  0.00     0.037 A 
HETATM   28  C22 UNK     1      26.439  11.821  11.196  1.00  0.00     0.003 A 
HETATM   29  C24 UNK     1      26.798  12.919  11.978  1.00  0.00     0.000 A 
HETATM   30  C23 UNK     1      25.820  13.628  12.675  1.00  0.00     0.003 A 
HETATM   31  C19 UNK     1      24.483  13.240  12.590  1.00  0.00     0.037 A 
ENDBRANCH  25  26
ENDBRANCH  24  25
ENDBRANCH  23  24
ENDBRANCH  22  23
ENDBRANCH  17  22
ENDBRANCH   2  14
TORSDOF 9
ENDMDL
