MODEL 1
REMARK VINA RESULT:      -6.8      0.000      0.000
REMARK  2 active torsions:
REMARK  status: ('A' for Active; 'I' for Inactive)
REMARK    1  A    between atoms: C11_14  and  O2_2 
REMARK    2  A    between atoms: C3_6  and  O2_2 
ROOT
HETATM    1  O1  UNK     1      18.702   0.547  32.956  1.00  0.00    -0.275 OA
HETATM    2  O3  UNK     1      17.790   2.054  34.416  1.00  0.00    -0.260 OA
HETATM    3  C1  UNK     1      19.221   1.243  30.668  1.00  0.00     0.031 A 
HETATM    4  C2  UNK     1      19.209   0.267  31.669  1.00  0.00     0.093 A 
HETATM    5  C3  UNK     1      18.678   2.564  31.001  1.00  0.00     0.087 A 
HETATM    6  C4  UNK     1      20.225  -1.359  30.220  1.00  0.00    -0.059 A 
HETATM    7  C5  UNK     1      19.765   0.886  29.427  1.00  0.00     0.017 A 
HETATM    8  C6  UNK     1      19.698  -1.025  31.462  1.00  0.00     0.045 A 
HETATM    9  C7  UNK     1      20.260  -0.405  29.205  1.00  0.00     0.008 A 
HETATM   10  C8  UNK     1      18.217   2.815  32.229  1.00  0.00     0.120 A 
HETATM   11  C9  UNK     1      20.754  -2.731  29.975  1.00  0.00     0.048 C 
HETATM   12  C10 UNK     1      18.213   1.800  33.293  1.00  0.00     0.290 A 
ENDROOT
BRANCH   5  13
HETATM   13  O2  UNK     1      18.635   3.557  30.041  1.00  0.00    -0.350 OA
BRANCH  13  14
HETATM   14  C11 UNK     1      18.662   4.836  30.644  1.00  0.00     0.171 C 
HETATM   15  C12 UNK     1      19.889   5.581  30.162  1.00  0.00     0.034 C 
ENDBRANCH  13  14
ENDBRANCH   5  13
TORSDOF 2
ENDMDL
MODEL 2
REMARK VINA RESULT:      -6.5      5.952      7.847
REMARK  2 active torsions:
REMARK  status: ('A' for Active; 'I' for Inactive)
REMARK    1  A    between atoms: C11_14  and  O2_2 
REMARK    2  A    between atoms: C3_6  and  O2_2 
ROOT
HETATM    1  O1  UNK     1      16.056   6.690  32.053  1.00  0.00    -0.275 OA
HETATM    2  O3  UNK     1      13.778   6.812  31.874  1.00  0.00    -0.260 OA
HETATM    3  C1  UNK     1      17.197   7.938  33.821  1.00  0.00     0.031 A 
HETATM    4  C2  UNK     1      17.236   7.066  32.729  1.00  0.00     0.093 A 
HETATM    5  C3  UNK     1      15.888   8.458  34.229  1.00  0.00     0.087 A 
HETATM    6  C4  UNK     1      19.623   6.831  32.887  1.00  0.00    -0.059 A 
HETATM    7  C5  UNK     1      18.414   8.239  34.449  1.00  0.00     0.017 A 
HETATM    8  C6  UNK     1      18.427   6.512  32.254  1.00  0.00     0.045 A 
HETATM    9  C7  UNK     1      19.616   7.691  33.984  1.00  0.00     0.008 A 
HETATM   10  C8  UNK     1      14.781   8.079  33.586  1.00  0.00     0.120 A 
HETATM   11  C9  UNK     1      20.907   6.253  32.399  1.00  0.00     0.048 C 
HETATM   12  C10 UNK     1      14.809   7.151  32.446  1.00  0.00     0.290 A 
ENDROOT
BRANCH   5  13
HETATM   13  O2  UNK     1      15.794   9.350  35.280  1.00  0.00    -0.350 OA
BRANCH  13  14
HETATM   14  C11 UNK     1      15.210  10.565  34.854  1.00  0.00     0.171 C 
HETATM   15  C12 UNK     1      16.306  11.504  34.396  1.00  0.00     0.034 C 
ENDBRANCH  13  14
ENDBRANCH   5  13
TORSDOF 2
ENDMDL
MODEL 3
REMARK VINA RESULT:      -6.4      3.901      5.732
REMARK  2 active torsions:
REMARK  status: ('A' for Active; 'I' for Inactive)
REMARK    1  A    between atoms: C11_14  and  O2_2 
REMARK    2  A    between atoms: C3_6  and  O2_2 
ROOT
HETATM    1  O1  UNK     1      20.671  -3.204  35.154  1.00  0.00    -0.275 OA
HETATM    2  O3  UNK     1      20.825  -3.793  37.360  1.00  0.00    -0.260 OA
HETATM    3  C1  UNK     1      19.072  -1.481  34.474  1.00  0.00     0.031 A 
HETATM    4  C2  UNK     1      20.078  -2.399  34.158  1.00  0.00     0.093 A 
HETATM    5  C3  UNK     1      18.647  -1.393  35.875  1.00  0.00     0.087 A 
HETATM    6  C4  UNK     1      20.025  -1.793  31.833  1.00  0.00    -0.059 A 
HETATM    7  C5  UNK     1      18.556  -0.705  33.427  1.00  0.00     0.017 A 
HETATM    8  C6  UNK     1      20.558  -2.567  32.858  1.00  0.00     0.045 A 
HETATM    9  C7  UNK     1      19.028  -0.862  32.118  1.00  0.00     0.008 A 
HETATM   10  C8  UNK     1      19.230  -2.152  36.806  1.00  0.00     0.120 A 
HETATM   11  C9  UNK     1      20.521  -1.953  30.436  1.00  0.00     0.048 C 
HETATM   12  C10 UNK     1      20.299  -3.111  36.487  1.00  0.00     0.290 A 
ENDROOT
BRANCH   5  13
HETATM   13  O2  UNK     1      17.635  -0.527  36.238  1.00  0.00    -0.350 OA
BRANCH  13  14
HETATM   14  C11 UNK     1      17.628  -0.325  37.638  1.00  0.00     0.171 C 
HETATM   15  C12 UNK     1      17.492   1.156  37.922  1.00  0.00     0.034 C 
ENDBRANCH  13  14
ENDBRANCH   5  13
TORSDOF 2
ENDMDL
MODEL 4
REMARK VINA RESULT:      -6.4     14.631     15.711
REMARK  2 active torsions:
REMARK  status: ('A' for Active; 'I' for Inactive)
REMARK    1  A    between atoms: C11_14  and  O2_2 
REMARK    2  A    between atoms: C3_6  and  O2_2 
ROOT
HETATM    1  O1  UNK     1      28.660  -5.490  39.635  1.00  0.00    -0.275 OA
HETATM    2  O3  UNK     1      29.375  -3.330  39.875  1.00  0.00    -0.260 OA
HETATM    3  C1  UNK     1      29.949  -7.044  38.252  1.00  0.00     0.031 A 
HETATM    4  C2  UNK     1      28.861  -6.776  39.088  1.00  0.00     0.093 A 
HETATM    5  C3  UNK     1      30.867  -5.938  37.955  1.00  0.00     0.087 A 
HETATM    6  C4  UNK     1      28.076  -9.042  38.941  1.00  0.00    -0.059 A 
HETATM    7  C5  UNK     1      30.087  -8.353  37.773  1.00  0.00     0.017 A 
HETATM    8  C6  UNK     1      27.925  -7.752  39.436  1.00  0.00     0.045 A 
HETATM    9  C7  UNK     1      29.156  -9.343  38.114  1.00  0.00     0.008 A 
HETATM   10  C8  UNK     1      30.668  -4.732  38.494  1.00  0.00     0.120 A 
HETATM   11  C9  UNK     1      27.091 -10.102  39.298  1.00  0.00     0.048 C 
HETATM   12  C10 UNK     1      29.534  -4.444  39.386  1.00  0.00     0.290 A 
ENDROOT
BRANCH   5  13
HETATM   13  O2  UNK     1      31.940  -6.137  37.109  1.00  0.00    -0.350 OA
BRANCH  13  14
HETATM   14  C11 UNK     1      33.154  -5.809  37.757  1.00  0.00     0.171 C 
HETATM   15  C12 UNK     1      34.110  -6.976  37.631  1.00  0.00     0.034 C 
ENDBRANCH  13  14
ENDBRANCH   5  13
TORSDOF 2
ENDMDL
MODEL 5
REMARK VINA RESULT:      -6.3     22.081     23.689
REMARK  2 active torsions:
REMARK  status: ('A' for Active; 'I' for Inactive)
REMARK    1  A    between atoms: C11_14  and  O2_2 
REMARK    2  A    between atoms: C3_6  and  O2_2 
ROOT
HETATM    1  O1  UNK     1      14.033   4.675   8.693  1.00  0.00    -0.275 OA
HETATM    2  O3  UNK     1      15.836   3.867   9.846  1.00  0.00    -0.260 OA
HETATM    3  C1  UNK     1      13.283   6.972   9.079  1.00  0.00     0.031 A 
HETATM    4  C2  UNK     1      13.158   5.747   8.416  1.00  0.00     0.093 A 
HETATM    5  C3  UNK     1      14.347   7.098  10.080  1.00  0.00     0.087 A 
HETATM    6  C4  UNK     1      11.297   6.538   7.117  1.00  0.00    -0.059 A 
HETATM    7  C5  UNK     1      12.387   7.990   8.725  1.00  0.00     0.017 A 
HETATM    8  C6  UNK     1      12.181   5.516   7.446  1.00  0.00     0.045 A 
HETATM    9  C7  UNK     1      11.402   7.773   7.753  1.00  0.00     0.008 A 
HETATM   10  C8  UNK     1      15.175   6.077  10.318  1.00  0.00     0.120 A 
HETATM   11  C9  UNK     1      10.245   6.316   6.084  1.00  0.00     0.048 C 
HETATM   12  C10 UNK     1      15.061   4.789   9.616  1.00  0.00     0.290 A 
ENDROOT
BRANCH   5  13
HETATM   13  O2  UNK     1      14.495   8.273  10.789  1.00  0.00    -0.350 OA
BRANCH  13  14
HETATM   14  C11 UNK     1      15.836   8.438  11.209  1.00  0.00     0.171 C 
HETATM   15  C12 UNK     1      16.477   9.535  10.386  1.00  0.00     0.034 C 
ENDBRANCH  13  14
ENDBRANCH   5  13
TORSDOF 2
ENDMDL
MODEL 6
REMARK VINA RESULT:      -6.2      8.526     10.720
REMARK  2 active torsions:
REMARK  status: ('A' for Active; 'I' for Inactive)
REMARK    1  A    between atoms: C11_14  and  O2_2 
REMARK    2  A    between atoms: C3_6  and  O2_2 
ROOT
HETATM    1  O1  UNK     1      20.500  -8.461  34.776  1.00  0.00    -0.275 OA
HETATM    2  O3  UNK     1      20.918  -7.215  32.903  1.00  0.00    -0.260 OA
HETATM    3  C1  UNK     1      19.618  -7.370  36.780  1.00  0.00     0.031 A 
HETATM    4  C2  UNK     1      20.040  -8.521  36.108  1.00  0.00     0.093 A 
HETATM    5  C3  UNK     1      19.681  -6.097  36.054  1.00  0.00     0.087 A 
HETATM    6  C4  UNK     1      19.568  -9.912  38.010  1.00  0.00    -0.059 A 
HETATM    7  C5  UNK     1      19.153  -7.524  38.093  1.00  0.00     0.017 A 
HETATM    8  C6  UNK     1      20.024  -9.784  36.703  1.00  0.00     0.045 A 
HETATM    9  C7  UNK     1      19.131  -8.785  38.703  1.00  0.00     0.008 A 
HETATM   10  C8  UNK     1      20.105  -6.062  34.788  1.00  0.00     0.120 A 
HETATM   11  C9  UNK     1      19.541 -11.250  38.667  1.00  0.00     0.048 C 
HETATM   12  C10 UNK     1      20.538  -7.269  34.067  1.00  0.00     0.290 A 
ENDROOT
BRANCH   5  13
HETATM   13  O2  UNK     1      19.308  -4.924  36.680  1.00  0.00    -0.350 OA
BRANCH  13  14
HETATM   14  C11 UNK     1      20.447  -4.188  37.083  1.00  0.00     0.171 C 
HETATM   15  C12 UNK     1      20.295  -2.754  36.620  1.00  0.00     0.034 C 
ENDBRANCH  13  14
ENDBRANCH   5  13
TORSDOF 2
ENDMDL
MODEL 7
REMARK VINA RESULT:      -6.2      1.998      5.394
REMARK  2 active torsions:
REMARK  status: ('A' for Active; 'I' for Inactive)
REMARK    1  A    between atoms: C11_14  and  O2_2 
REMARK    2  A    between atoms: C3_6  and  O2_2 
ROOT
HETATM    1  O1  UNK     1      18.023   3.397  33.681  1.00  0.00    -0.275 OA
HETATM    2  O3  UNK     1      17.832   1.125  33.881  1.00  0.00    -0.260 OA
HETATM    3  C1  UNK     1      18.515   4.379  31.495  1.00  0.00     0.031 A 
HETATM    4  C2  UNK     1      18.245   4.522  32.859  1.00  0.00     0.093 A 
HETATM    5  C3  UNK     1      18.571   3.018  30.952  1.00  0.00     0.087 A 
HETATM    6  C4  UNK     1      18.365   6.919  32.724  1.00  0.00    -0.059 A 
HETATM    7  C5  UNK     1      18.699   5.551  30.749  1.00  0.00     0.017 A 
HETATM    8  C6  UNK     1      18.170   5.770  33.482  1.00  0.00     0.045 A 
HETATM    9  C7  UNK     1      18.626   6.809  31.359  1.00  0.00     0.008 A 
HETATM   10  C8  UNK     1      18.343   1.966  31.742  1.00  0.00     0.120 A 
HETATM   11  C9  UNK     1      18.289   8.262  33.365  1.00  0.00     0.048 C 
HETATM   12  C10 UNK     1      18.044   2.105  33.176  1.00  0.00     0.290 A 
ENDROOT
BRANCH   5  13
HETATM   13  O2  UNK     1      18.866   2.817  29.618  1.00  0.00    -0.350 OA
BRANCH  13  14
HETATM   14  C11 UNK     1      17.923   1.946  29.023  1.00  0.00     0.171 C 
HETATM   15  C12 UNK     1      18.650   0.743  28.462  1.00  0.00     0.034 C 
ENDBRANCH  13  14
ENDBRANCH   5  13
TORSDOF 2
ENDMDL
MODEL 8
REMARK VINA RESULT:      -6.2     10.279     11.694
REMARK  2 active torsions:
REMARK  status: ('A' for Active; 'I' for Inactive)
REMARK    1  A    between atoms: C11_14  and  O2_2 
REMARK    2  A    between atoms: C3_6  and  O2_2 
ROOT
HETATM    1  O1  UNK     1      22.783  -7.253  37.625  1.00  0.00    -0.275 OA
HETATM    2  O3  UNK     1      22.554  -5.140  38.472  1.00  0.00    -0.260 OA
HETATM    3  C1  UNK     1      20.787  -8.585  37.146  1.00  0.00     0.031 A 
HETATM    4  C2  UNK     1      22.177  -8.437  37.154  1.00  0.00     0.093 A 
HETATM    5  C3  UNK     1      19.982  -7.469  37.655  1.00  0.00     0.087 A 
HETATM    6  C4  UNK     1      22.504 -10.621  36.206  1.00  0.00    -0.059 A 
HETATM    7  C5  UNK     1      20.269  -9.784  36.640  1.00  0.00     0.017 A 
HETATM    8  C6  UNK     1      23.039  -9.435  36.696  1.00  0.00     0.045 A 
HETATM    9  C7  UNK     1      21.121 -10.794  36.176  1.00  0.00     0.008 A 
HETATM   10  C8  UNK     1      20.572  -6.349  38.081  1.00  0.00     0.120 A 
HETATM   11  C9  UNK     1      23.403 -11.702  35.710  1.00  0.00     0.048 C 
HETATM   12  C10 UNK     1      22.034  -6.179  38.081  1.00  0.00     0.290 A 
ENDROOT
BRANCH   5  13
HETATM   13  O2  UNK     1      18.605  -7.573  37.701  1.00  0.00    -0.350 OA
BRANCH  13  14
HETATM   14  C11 UNK     1      18.005  -6.644  36.819  1.00  0.00     0.171 C 
HETATM   15  C12 UNK     1      17.647  -7.351  35.529  1.00  0.00     0.034 C 
ENDBRANCH  13  14
ENDBRANCH   5  13
TORSDOF 2
ENDMDL
MODEL 9
REMARK VINA RESULT:      -6.2      2.558      4.735
REMARK  2 active torsions:
REMARK  status: ('A' for Active; 'I' for Inactive)
REMARK    1  A    between atoms: C11_14  and  O2_2 
REMARK    2  A    between atoms: C3_6  and  O2_2 
ROOT
HETATM    1  O1  UNK     1      19.802  -1.930  33.283  1.00  0.00    -0.275 OA
HETATM    2  O3  UNK     1      20.781  -2.705  31.366  1.00  0.00    -0.260 OA
HETATM    3  C1  UNK     1      18.621   0.213  33.255  1.00  0.00     0.031 A 
HETATM    4  C2  UNK     1      19.046  -0.932  33.935  1.00  0.00     0.093 A 
HETATM    5  C3  UNK     1      18.999   0.346  31.844  1.00  0.00     0.087 A 
HETATM    6  C4  UNK     1      17.990  -0.222  35.973  1.00  0.00    -0.059 A 
HETATM    7  C5  UNK     1      17.854   1.141  33.972  1.00  0.00     0.017 A 
HETATM    8  C6  UNK     1      18.744  -1.161  35.279  1.00  0.00     0.045 A 
HETATM    9  C7  UNK     1      17.543   0.925  35.320  1.00  0.00     0.008 A 
HETATM   10  C8  UNK     1      19.702  -0.616  31.240  1.00  0.00     0.120 A 
HETATM   11  C9  UNK     1      17.654  -0.444  37.409  1.00  0.00     0.048 C 
HETATM   12  C10 UNK     1      20.142  -1.832  31.942  1.00  0.00     0.290 A 
ENDROOT
BRANCH   5  13
HETATM   13  O2  UNK     1      18.635   1.472  31.132  1.00  0.00    -0.350 OA
BRANCH  13  14
HETATM   14  C11 UNK     1      19.032   1.358  29.779  1.00  0.00     0.171 C 
HETATM   15  C12 UNK     1      17.914   1.865  28.894  1.00  0.00     0.034 C 
ENDBRANCH  13  14
ENDBRANCH   5  13
TORSDOF 2
ENDMDL
MODEL 10
REMARK VINA RESULT:      -6.2      2.906      5.368
REMARK  2 active torsions:
REMARK  status: ('A' for Active; 'I' for Inactive)
REMARK    1  A    between atoms: C11_14  and  O2_2 
REMARK    2  A    between atoms: C3_6  and  O2_2 
ROOT
HETATM    1  O1  UNK     1      18.536   0.186  33.175  1.00  0.00    -0.275 OA
HETATM    2  O3  UNK     1      17.677   0.617  35.252  1.00  0.00    -0.260 OA
HETATM    3  C1  UNK     1      19.914  -1.806  32.828  1.00  0.00     0.031 A 
HETATM    4  C2  UNK     1      19.296  -0.654  32.333  1.00  0.00     0.093 A 
HETATM    5  C3  UNK     1      19.754  -2.104  34.255  1.00  0.00     0.087 A 
HETATM    6  C4  UNK     1      20.106  -1.066  30.109  1.00  0.00    -0.059 A 
HETATM    7  C5  UNK     1      20.629  -2.595  31.917  1.00  0.00     0.017 A 
HETATM    8  C6  UNK     1      19.384  -0.273  30.993  1.00  0.00     0.045 A 
HETATM    9  C7  UNK     1      20.725  -2.227  30.570  1.00  0.00     0.008 A 
HETATM   10  C8  UNK     1      19.018  -1.306  35.034  1.00  0.00     0.120 A 
HETATM   11  C9  UNK     1      20.213  -0.681  28.672  1.00  0.00     0.048 C 
HETATM   12  C10 UNK     1      18.352  -0.098  34.520  1.00  0.00     0.290 A 
ENDROOT
BRANCH   5  13
HETATM   13  O2  UNK     1      20.370  -3.211  34.805  1.00  0.00    -0.350 OA
BRANCH  13  14
HETATM   14  C11 UNK     1      20.069  -3.318  36.183  1.00  0.00     0.171 C 
HETATM   15  C12 UNK     1      19.723  -4.757  36.501  1.00  0.00     0.034 C 
ENDBRANCH  13  14
ENDBRANCH   5  13
TORSDOF 2
ENDMDL
