MODEL 1
REMARK VINA RESULT:      -7.3      0.000      0.000
REMARK  1 active torsions:
REMARK  status: ('A' for Active; 'I' for Inactive)
REMARK    1  A    between atoms: C11_15  and  C7_11 
ROOT
HETATM    1  O1  UNK     1      18.918   1.368  31.975  1.00  0.00    -0.308 OA
HETATM    2  O2  UNK     1      18.076   2.595  28.181  1.00  0.00    -0.287 OA
HETATM    3  C1  UNK     1      18.986   0.925  29.587  1.00  0.00     0.048 A 
HETATM    4  C2  UNK     1      19.245   0.567  30.909  1.00  0.00     0.090 A 
HETATM    5  C3  UNK     1      20.217  -1.508  30.151  1.00  0.00    -0.059 A 
HETATM    6  C4  UNK     1      19.862  -0.651  31.193  1.00  0.00     0.045 A 
HETATM    7  C5  UNK     1      19.341   0.070  28.541  1.00  0.00     0.019 A 
HETATM    8  C6  UNK     1      18.334   2.216  29.316  1.00  0.00     0.187 A 
HETATM    9  C7  UNK     1      18.304   2.583  31.722  1.00  0.00     0.121 A 
HETATM   10  C8  UNK     1      19.958  -1.147  28.828  1.00  0.00     0.008 A 
HETATM   11  C9  UNK     1      18.003   3.037  30.496  1.00  0.00     0.094 A 
HETATM   12  C10 UNK     1      20.878  -2.812  30.452  1.00  0.00     0.048 C 
ENDROOT
BRANCH   9  13
HETATM   13  C11 UNK     1      17.997   3.367  32.959  1.00  0.00     0.410 C 
HETATM   14  F1  UNK     1      18.380   2.682  34.060  1.00  0.00    -0.207 F 
HETATM   15  F2  UNK     1      18.682   4.533  32.960  1.00  0.00    -0.207 F 
ENDBRANCH   9  13
TORSDOF 1
ENDMDL
MODEL 2
REMARK VINA RESULT:      -7.2      2.757      4.755
REMARK  1 active torsions:
REMARK  status: ('A' for Active; 'I' for Inactive)
REMARK    1  A    between atoms: C11_15  and  C7_11 
ROOT
HETATM    1  O1  UNK     1      19.962  -0.302  31.857  1.00  0.00    -0.308 OA
HETATM    2  O2  UNK     1      19.702  -0.797  27.821  1.00  0.00    -0.287 OA
HETATM    3  C1  UNK     1      19.298   0.587  29.695  1.00  0.00     0.048 A 
HETATM    4  C2  UNK     1      19.417   0.690  31.080  1.00  0.00     0.090 A 
HETATM    5  C3  UNK     1      18.411   2.882  30.998  1.00  0.00    -0.059 A 
HETATM    6  C4  UNK     1      18.973   1.839  31.734  1.00  0.00     0.045 A 
HETATM    7  C5  UNK     1      18.735   1.629  28.955  1.00  0.00     0.019 A 
HETATM    8  C6  UNK     1      19.774  -0.636  29.031  1.00  0.00     0.187 A 
HETATM    9  C7  UNK     1      20.412  -1.454  31.233  1.00  0.00     0.121 A 
HETATM   10  C8  UNK     1      18.292   2.777  29.612  1.00  0.00     0.008 A 
HETATM   11  C9  UNK     1      20.352  -1.671  29.912  1.00  0.00     0.094 A 
HETATM   12  C10 UNK     1      17.936   4.113  31.695  1.00  0.00     0.048 C 
ENDROOT
BRANCH   9  13
HETATM   13  C11 UNK     1      20.983  -2.462  32.181  1.00  0.00     0.410 C 
HETATM   14  F1  UNK     1      20.142  -2.663  33.221  1.00  0.00    -0.207 F 
HETATM   15  F2  UNK     1      21.140  -3.655  31.562  1.00  0.00    -0.207 F 
ENDBRANCH   9  13
TORSDOF 1
ENDMDL
MODEL 3
REMARK VINA RESULT:      -7.1      2.665      3.714
REMARK  1 active torsions:
REMARK  status: ('A' for Active; 'I' for Inactive)
REMARK    1  A    between atoms: C11_15  and  C7_11 
ROOT
HETATM    1  O1  UNK     1      18.489   0.879  31.246  1.00  0.00    -0.308 OA
HETATM    2  O2  UNK     1      21.165  -1.233  29.013  1.00  0.00    -0.287 OA
HETATM    3  C1  UNK     1      20.074  -0.957  31.093  1.00  0.00     0.048 A 
HETATM    4  C2  UNK     1      19.148  -0.191  31.799  1.00  0.00     0.090 A 
HETATM    5  C3  UNK     1      19.492  -1.579  33.743  1.00  0.00    -0.059 A 
HETATM    6  C4  UNK     1      18.855  -0.502  33.127  1.00  0.00     0.045 A 
HETATM    7  C5  UNK     1      20.715  -2.036  31.707  1.00  0.00     0.019 A 
HETATM    8  C6  UNK     1      20.364  -0.607  29.693  1.00  0.00     0.187 A 
HETATM    9  C7  UNK     1      18.760   1.209  29.928  1.00  0.00     0.121 A 
HETATM   10  C8  UNK     1      20.420  -2.343  33.035  1.00  0.00     0.008 A 
HETATM   11  C9  UNK     1      19.629   0.551  29.147  1.00  0.00     0.094 A 
HETATM   12  C10 UNK     1      19.181  -1.914  35.164  1.00  0.00     0.048 C 
ENDROOT
BRANCH   9  13
HETATM   13  C11 UNK     1      17.985   2.391  29.437  1.00  0.00     0.410 C 
HETATM   14  F1  UNK     1      18.743   3.510  29.491  1.00  0.00    -0.207 F 
HETATM   15  F2  UNK     1      17.628   2.217  28.144  1.00  0.00    -0.207 F 
ENDBRANCH   9  13
TORSDOF 1
ENDMDL
MODEL 4
REMARK VINA RESULT:      -6.8      5.534      7.904
REMARK  1 active torsions:
REMARK  status: ('A' for Active; 'I' for Inactive)
REMARK    1  A    between atoms: C11_15  and  C7_11 
ROOT
HETATM    1  O1  UNK     1      18.231   6.279  31.517  1.00  0.00    -0.308 OA
HETATM    2  O2  UNK     1      19.524   7.754  35.089  1.00  0.00    -0.287 OA
HETATM    3  C1  UNK     1      17.701   7.330  33.643  1.00  0.00     0.048 A 
HETATM    4  C2  UNK     1      17.329   6.809  32.405  1.00  0.00     0.090 A 
HETATM    5  C3  UNK     1      15.023   7.337  32.884  1.00  0.00    -0.059 A 
HETATM    6  C4  UNK     1      15.987   6.812  32.023  1.00  0.00     0.045 A 
HETATM    7  C5  UNK     1      16.739   7.857  34.507  1.00  0.00     0.019 A 
HETATM    8  C6  UNK     1      19.123   7.314  34.020  1.00  0.00     0.187 A 
HETATM    9  C7  UNK     1      19.570   6.262  31.871  1.00  0.00     0.121 A 
HETATM   10  C8  UNK     1      15.398   7.859  34.123  1.00  0.00     0.008 A 
HETATM   11  C9  UNK     1      20.052   6.733  33.031  1.00  0.00     0.094 A 
HETATM   12  C10 UNK     1      13.586   7.341  32.478  1.00  0.00     0.048 C 
ENDROOT
BRANCH   9  13
HETATM   13  C11 UNK     1      20.457   5.663  30.825  1.00  0.00     0.410 C 
HETATM   14  F1  UNK     1      20.232   6.243  29.625  1.00  0.00    -0.207 F 
HETATM   15  F2  UNK     1      21.758   5.877  31.131  1.00  0.00    -0.207 F 
ENDBRANCH   9  13
TORSDOF 1
ENDMDL
MODEL 5
REMARK VINA RESULT:      -6.8      5.887      7.369
REMARK  1 active torsions:
REMARK  status: ('A' for Active; 'I' for Inactive)
REMARK    1  A    between atoms: C11_15  and  C7_11 
ROOT
HETATM    1  O1  UNK     1      16.139   6.935  32.025  1.00  0.00    -0.308 OA
HETATM    2  O2  UNK     1      17.550   7.995  35.698  1.00  0.00    -0.287 OA
HETATM    3  C1  UNK     1      18.029   7.178  33.532  1.00  0.00     0.048 A 
HETATM    4  C2  UNK     1      17.480   6.832  32.299  1.00  0.00     0.090 A 
HETATM    5  C3  UNK     1      19.675   6.233  31.494  1.00  0.00    -0.059 A 
HETATM    6  C4  UNK     1      18.303   6.359  31.277  1.00  0.00     0.045 A 
HETATM    7  C5  UNK     1      19.403   7.052  33.754  1.00  0.00     0.019 A 
HETATM    8  C6  UNK     1      17.138   7.674  34.592  1.00  0.00     0.187 A 
HETATM    9  C7  UNK     1      15.298   7.404  33.022  1.00  0.00     0.121 A 
HETATM   10  C8  UNK     1      20.223   6.578  32.730  1.00  0.00     0.008 A 
HETATM   11  C9  UNK     1      15.706   7.767  34.246  1.00  0.00     0.094 A 
HETATM   12  C10 UNK     1      20.558   5.727  30.403  1.00  0.00     0.048 C 
ENDROOT
BRANCH   9  13
HETATM   13  C11 UNK     1      13.861   7.471  32.608  1.00  0.00     0.410 C 
HETATM   14  F1  UNK     1      13.693   6.913  31.388  1.00  0.00    -0.207 F 
HETATM   15  F2  UNK     1      13.089   6.773  33.473  1.00  0.00    -0.207 F 
ENDBRANCH   9  13
TORSDOF 1
ENDMDL
MODEL 6
REMARK VINA RESULT:      -6.7      3.699      5.217
REMARK  1 active torsions:
REMARK  status: ('A' for Active; 'I' for Inactive)
REMARK    1  A    between atoms: C11_15  and  C7_11 
ROOT
HETATM    1  O1  UNK     1      17.723  -0.372  33.903  1.00  0.00    -0.308 OA
HETATM    2  O2  UNK     1      20.037  -2.511  36.487  1.00  0.00    -0.287 OA
HETATM    3  C1  UNK     1      19.612  -1.860  34.254  1.00  0.00     0.048 A 
HETATM    4  C2  UNK     1      18.780  -1.106  33.427  1.00  0.00     0.090 A 
HETATM    5  C3  UNK     1      20.068  -1.802  31.508  1.00  0.00    -0.059 A 
HETATM    6  C4  UNK     1      19.007  -1.077  32.051  1.00  0.00     0.045 A 
HETATM    7  C5  UNK     1      20.675  -2.588  33.713  1.00  0.00     0.019 A 
HETATM    8  C6  UNK     1      19.350  -1.873  35.702  1.00  0.00     0.187 A 
HETATM    9  C7  UNK     1      17.475  -0.383  35.266  1.00  0.00     0.121 A 
HETATM   10  C8  UNK     1      20.899  -2.556  32.338  1.00  0.00     0.008 A 
HETATM   11  C9  UNK     1      18.202  -1.067  36.162  1.00  0.00     0.094 A 
HETATM   12  C10 UNK     1      20.313  -1.772  30.036  1.00  0.00     0.048 C 
ENDROOT
BRANCH   9  13
HETATM   13  C11 UNK     1      16.299   0.451  35.666  1.00  0.00     0.410 C 
HETATM   14  F1  UNK     1      15.144  -0.165  35.326  1.00  0.00    -0.207 F 
HETATM   15  F2  UNK     1      16.276   0.622  37.008  1.00  0.00    -0.207 F 
ENDBRANCH   9  13
TORSDOF 1
ENDMDL
MODEL 7
REMARK VINA RESULT:      -6.6      4.563      6.806
REMARK  1 active torsions:
REMARK  status: ('A' for Active; 'I' for Inactive)
REMARK    1  A    between atoms: C11_15  and  C7_11 
ROOT
HETATM    1  O1  UNK     1      18.669  -0.973  33.050  1.00  0.00    -0.308 OA
HETATM    2  O2  UNK     1      20.864  -3.102  35.745  1.00  0.00    -0.287 OA
HETATM    3  C1  UNK     1      19.042  -1.645  35.356  1.00  0.00     0.048 A 
HETATM    4  C2  UNK     1      18.336  -0.941  34.381  1.00  0.00     0.090 A 
HETATM    5  C3  UNK     1      16.848  -0.091  36.081  1.00  0.00    -0.059 A 
HETATM    6  C4  UNK     1      17.237  -0.163  34.743  1.00  0.00     0.045 A 
HETATM    7  C5  UNK     1      18.657  -1.575  36.696  1.00  0.00     0.019 A 
HETATM    8  C6  UNK     1      20.197  -2.458  34.946  1.00  0.00     0.187 A 
HETATM    9  C7  UNK     1      19.756  -1.739  32.662  1.00  0.00     0.121 A 
HETATM   10  C8  UNK     1      17.557  -0.796  37.055  1.00  0.00     0.008 A 
HETATM   11  C9  UNK     1      20.513  -2.459  33.504  1.00  0.00     0.094 A 
HETATM   12  C10 UNK     1      15.673   0.741  36.472  1.00  0.00     0.048 C 
ENDROOT
BRANCH   9  13
HETATM   13  C11 UNK     1      20.023  -1.695  31.191  1.00  0.00     0.410 C 
HETATM   14  F1  UNK     1      20.917  -0.723  30.901  1.00  0.00    -0.207 F 
HETATM   15  F2  UNK     1      20.562  -2.865  30.774  1.00  0.00    -0.207 F 
ENDBRANCH   9  13
TORSDOF 1
ENDMDL
MODEL 8
REMARK VINA RESULT:      -6.6      2.945      5.457
REMARK  1 active torsions:
REMARK  status: ('A' for Active; 'I' for Inactive)
REMARK    1  A    between atoms: C11_15  and  C7_11 
ROOT
HETATM    1  O1  UNK     1      19.441   1.508  29.553  1.00  0.00    -0.308 OA
HETATM    2  O2  UNK     1      18.493   0.419  33.364  1.00  0.00    -0.287 OA
HETATM    3  C1  UNK     1      18.691   2.156  31.772  1.00  0.00     0.048 A 
HETATM    4  C2  UNK     1      19.030   2.459  30.454  1.00  0.00     0.090 A 
HETATM    5  C3  UNK     1      18.548   4.786  30.869  1.00  0.00    -0.059 A 
HETATM    6  C4  UNK     1      18.959   3.776  30.001  1.00  0.00     0.045 A 
HETATM    7  C5  UNK     1      18.279   3.166  32.645  1.00  0.00     0.019 A 
HETATM    8  C6  UNK     1      18.775   0.759  32.223  1.00  0.00     0.187 A 
HETATM    9  C7  UNK     1      19.520   0.191  29.976  1.00  0.00     0.121 A 
HETATM   10  C8  UNK     1      18.209   4.482  32.189  1.00  0.00     0.008 A 
HETATM   11  C9  UNK     1      19.221  -0.224  31.216  1.00  0.00     0.094 A 
HETATM   12  C10 UNK     1      18.470   6.197  30.388  1.00  0.00     0.048 C 
ENDROOT
BRANCH   9  13
HETATM   13  C11 UNK     1      19.980  -0.753  28.910  1.00  0.00     0.410 C 
HETATM   14  F1  UNK     1      19.302  -0.533  27.760  1.00  0.00    -0.207 F 
HETATM   15  F2  UNK     1      21.291  -0.557  28.640  1.00  0.00    -0.207 F 
ENDBRANCH   9  13
TORSDOF 1
ENDMDL
MODEL 9
REMARK VINA RESULT:      -6.6     13.853     15.338
REMARK  1 active torsions:
REMARK  status: ('A' for Active; 'I' for Inactive)
REMARK    1  A    between atoms: C11_15  and  C7_11 
ROOT
HETATM    1  O1  UNK     1      28.699  -8.137  38.545  1.00  0.00    -0.308 OA
HETATM    2  O2  UNK     1      26.080  -5.022  38.758  1.00  0.00    -0.287 OA
HETATM    3  C1  UNK     1      28.329  -5.736  38.611  1.00  0.00     0.048 A 
HETATM    4  C2  UNK     1      29.168  -6.847  38.541  1.00  0.00     0.090 A 
HETATM    5  C3  UNK     1      31.087  -5.385  38.452  1.00  0.00    -0.059 A 
HETATM    6  C4  UNK     1      30.550  -6.673  38.461  1.00  0.00     0.045 A 
HETATM    7  C5  UNK     1      28.864  -4.445  38.602  1.00  0.00     0.019 A 
HETATM    8  C6  UNK     1      26.876  -5.948  38.694  1.00  0.00     0.187 A 
HETATM    9  C7  UNK     1      27.331  -8.339  38.623  1.00  0.00     0.121 A 
HETATM   10  C8  UNK     1      30.245  -4.275  38.522  1.00  0.00     0.008 A 
HETATM   11  C9  UNK     1      26.424  -7.353  38.694  1.00  0.00     0.094 A 
HETATM   12  C10 UNK     1      32.565  -5.196  38.366  1.00  0.00     0.048 C 
ENDROOT
BRANCH   9  13
HETATM   13  C11 UNK     1      26.939  -9.783  38.621  1.00  0.00     0.410 C 
HETATM   14  F1  UNK     1      26.894 -10.260  37.356  1.00  0.00    -0.207 F 
HETATM   15  F2  UNK     1      27.856 -10.521  39.289  1.00  0.00    -0.207 F 
ENDBRANCH   9  13
TORSDOF 1
ENDMDL
MODEL 10
REMARK VINA RESULT:      -6.6      2.183      3.110
REMARK  1 active torsions:
REMARK  status: ('A' for Active; 'I' for Inactive)
REMARK    1  A    between atoms: C11_15  and  C7_11 
ROOT
HETATM    1  O1  UNK     1      18.963   0.161  33.291  1.00  0.00    -0.308 OA
HETATM    2  O2  UNK     1      17.705   3.941  32.429  1.00  0.00    -0.287 OA
HETATM    3  C1  UNK     1      18.611   1.905  31.635  1.00  0.00     0.048 A 
HETATM    4  C2  UNK     1      19.024   0.625  32.000  1.00  0.00     0.090 A 
HETATM    5  C3  UNK     1      19.611   0.166  29.704  1.00  0.00    -0.059 A 
HETATM    6  C4  UNK     1      19.525  -0.247  31.034  1.00  0.00     0.045 A 
HETATM    7  C5  UNK     1      18.695   2.323  30.305  1.00  0.00     0.019 A 
HETATM    8  C6  UNK     1      18.086   2.804  32.675  1.00  0.00     0.187 A 
HETATM    9  C7  UNK     1      18.469   1.007  34.271  1.00  0.00     0.121 A 
HETATM   10  C8  UNK     1      19.197   1.449  29.342  1.00  0.00     0.008 A 
HETATM   11  C9  UNK     1      18.041   2.257  34.045  1.00  0.00     0.094 A 
HETATM   12  C10 UNK     1      20.146  -0.765  28.668  1.00  0.00     0.048 C 
ENDROOT
BRANCH   9  13
HETATM   13  C11 UNK     1      18.452   0.393  35.635  1.00  0.00     0.410 C 
HETATM   14  F1  UNK     1      19.456  -0.504  35.763  1.00  0.00    -0.207 F 
HETATM   15  F2  UNK     1      18.646   1.341  36.581  1.00  0.00    -0.207 F 
ENDBRANCH   9  13
TORSDOF 1
ENDMDL
