MODEL 1
REMARK VINA RESULT:      -9.0      0.000      0.000
REMARK  6 active torsions:
REMARK  status: ('A' for Active; 'I' for Inactive)
REMARK    1  A    between atoms: C10_17  and  O2_3 
REMARK    2  A    between atoms: C15_22  and  O2_3 
REMARK    3  A    between atoms: C4_11  and  N1_7 
REMARK       I    between atoms: C9_16  and  N1_7 
REMARK    4  A    between atoms: C3_10  and  C9_16 
REMARK    5  A    between atoms: C4_11  and  C6_13 
REMARK    6  A    between atoms: C14_21  and  C15_22 
ROOT
HETATM    1  O1  UNK     1      18.209   3.156  32.937  1.00  0.00    -0.274 OA
HETATM    2  O4  UNK     1      18.312   0.945  32.370  1.00  0.00    -0.259 OA
HETATM    3  C1  UNK     1      18.566   4.850  31.231  1.00  0.00    -0.001 A 
HETATM    4  C2  UNK     1      18.295   4.508  32.551  1.00  0.00     0.092 A 
HETATM    5  C3  UNK     1      18.675   2.507  30.625  1.00  0.00     0.108 A 
HETATM    6  C5  UNK     1      18.758   3.789  30.254  1.00  0.00     0.037 A 
HETATM    7  C7  UNK     1      18.644   6.202  30.887  1.00  0.00     0.017 A 
HETATM    8  C8  UNK     1      18.101   5.476  33.534  1.00  0.00     0.075 A 
HETATM    9  C10 UNK     1      18.180   6.822  33.183  1.00  0.00     0.082 A 
HETATM   10  C11 UNK     1      18.388   2.120  32.025  1.00  0.00     0.304 A 
HETATM   11  C12 UNK     1      18.451   7.184  31.863  1.00  0.00     0.038 A 
ENDROOT
BRANCH   9  12
HETATM   12  O2  UNK     1      17.993   7.784  34.128  1.00  0.00    -0.275 OA
BRANCH  12  13
HETATM   13  C15 UNK     1      16.694   7.844  34.639  1.00  0.00     0.299 C 
HETATM   14  O5  UNK     1      16.171   7.002  35.353  1.00  0.00    -0.259 OA
BRANCH  13  15
HETATM   15  C14 UNK     1      15.998   9.074  34.187  1.00  0.00     0.056 A 
HETATM   16  C16 UNK     1      14.981   9.034  33.253  1.00  0.00     0.022 A 
HETATM   17  I1  UNK     1      14.306   7.256  32.377  1.00  0.00    -0.043 I 
HETATM   18  C18 UNK     1      14.367  10.225  32.868  1.00  0.00     0.019 A 
HETATM   19  C20 UNK     1      14.781  11.436  33.425  1.00  0.00     0.001 A 
HETATM   20  C19 UNK     1      15.810  11.454  34.366  1.00  0.00     0.001 A 
HETATM   21  C17 UNK     1      16.425  10.262  34.751  1.00  0.00     0.019 A 
ENDBRANCH  13  15
ENDBRANCH  12  13
ENDBRANCH   9  12
BRANCH   5  22
HETATM   22  C9  UNK     1      18.883   1.510  29.569  1.00  0.00     0.257 C 
HETATM   23  O3  UNK     1      18.160   1.483  28.575  1.00  0.00    -0.267 OA
HETATM   24  N1  UNK     1      19.941   0.659  29.834  1.00  0.00    -0.357 N 
HETATM   25  H8  UNK     1      20.465   0.748  30.699  1.00  0.00     0.162 HD
BRANCH  24  26
HETATM   26  C4  UNK     1      20.337  -0.406  28.941  1.00  0.00     0.122 C 
BRANCH  26  27
HETATM   27  C6  UNK     1      20.478  -1.743  29.658  1.00  0.00     0.015 C 
HETATM   28  C13 UNK     1      20.287  -1.625  31.165  1.00  0.00     0.006 C 
ENDBRANCH  26  27
ENDBRANCH  24  26
ENDBRANCH   5  22
TORSDOF 6
ENDMDL
MODEL 2
REMARK VINA RESULT:      -8.8      2.907      9.209
REMARK  6 active torsions:
REMARK  status: ('A' for Active; 'I' for Inactive)
REMARK    1  A    between atoms: C10_17  and  O2_3 
REMARK    2  A    between atoms: C15_22  and  O2_3 
REMARK    3  A    between atoms: C4_11  and  N1_7 
REMARK       I    between atoms: C9_16  and  N1_7 
REMARK    4  A    between atoms: C3_10  and  C9_16 
REMARK    5  A    between atoms: C4_11  and  C6_13 
REMARK    6  A    between atoms: C14_21  and  C15_22 
ROOT
HETATM    1  O1  UNK     1      17.390   5.733  33.758  1.00  0.00    -0.274 OA
HETATM    2  O4  UNK     1      16.365   7.035  35.331  1.00  0.00    -0.259 OA
HETATM    3  C1  UNK     1      17.835   6.646  31.550  1.00  0.00    -0.001 A 
HETATM    4  C2  UNK     1      17.900   5.590  32.453  1.00  0.00     0.092 A 
HETATM    5  C3  UNK     1      16.750   8.030  33.216  1.00  0.00     0.108 A 
HETATM    6  C5  UNK     1      17.233   7.900  31.975  1.00  0.00     0.037 A 
HETATM    7  C7  UNK     1      18.352   6.466  30.264  1.00  0.00     0.017 A 
HETATM    8  C8  UNK     1      18.465   4.365  32.108  1.00  0.00     0.075 A 
HETATM    9  C10 UNK     1      18.978   4.193  30.824  1.00  0.00     0.082 A 
HETATM   10  C11 UNK     1      16.808   6.920  34.193  1.00  0.00     0.304 A 
HETATM   11  C12 UNK     1      18.922   5.242  29.904  1.00  0.00     0.038 A 
ENDROOT
BRANCH   9  12
HETATM   12  O2  UNK     1      19.535   3.004  30.466  1.00  0.00    -0.275 OA
BRANCH  12  13
HETATM   13  C15 UNK     1      18.609   1.986  30.221  1.00  0.00     0.299 C 
HETATM   14  O5  UNK     1      17.418   2.146  29.999  1.00  0.00    -0.259 OA
BRANCH  13  15
HETATM   15  C14 UNK     1      19.253   0.650  30.282  1.00  0.00     0.056 A 
HETATM   16  C16 UNK     1      19.264  -0.100  31.441  1.00  0.00     0.022 A 
HETATM   17  I1  UNK     1      18.381   0.543  33.226  1.00  0.00    -0.043 I 
HETATM   18  C18 UNK     1      19.887  -1.348  31.434  1.00  0.00     0.019 A 
HETATM   19  C20 UNK     1      20.489  -1.822  30.267  1.00  0.00     0.001 A 
HETATM   20  C19 UNK     1      20.467  -1.046  29.108  1.00  0.00     0.001 A 
HETATM   21  C17 UNK     1      19.843   0.201  29.115  1.00  0.00     0.019 A 
ENDBRANCH  13  15
ENDBRANCH  12  13
ENDBRANCH   9  12
BRANCH   5  22
HETATM   22  C9  UNK     1      16.161   9.332  33.550  1.00  0.00     0.257 C 
HETATM   23  O3  UNK     1      16.833  10.361  33.497  1.00  0.00    -0.267 OA
HETATM   24  N1  UNK     1      14.829   9.244  33.912  1.00  0.00    -0.357 N 
HETATM   25  H8  UNK     1      14.368   8.340  33.947  1.00  0.00     0.162 HD
BRANCH  24  26
HETATM   26  C4  UNK     1      14.037  10.392  34.286  1.00  0.00     0.122 C 
BRANCH  26  27
HETATM   27  C6  UNK     1      13.238  10.953  33.115  1.00  0.00     0.015 C 
HETATM   28  C13 UNK     1      13.630  12.384  32.769  1.00  0.00     0.006 C 
ENDBRANCH  26  27
ENDBRANCH  24  26
ENDBRANCH   5  22
TORSDOF 6
ENDMDL
MODEL 3
REMARK VINA RESULT:      -8.2      6.366     12.027
REMARK  6 active torsions:
REMARK  status: ('A' for Active; 'I' for Inactive)
REMARK    1  A    between atoms: C10_17  and  O2_3 
REMARK    2  A    between atoms: C15_22  and  O2_3 
REMARK    3  A    between atoms: C4_11  and  N1_7 
REMARK       I    between atoms: C9_16  and  N1_7 
REMARK    4  A    between atoms: C3_10  and  C9_16 
REMARK    5  A    between atoms: C4_11  and  C6_13 
REMARK    6  A    between atoms: C14_21  and  C15_22 
ROOT
HETATM    1  O1  UNK     1      18.222  -0.099  36.835  1.00  0.00    -0.274 OA
HETATM    2  O4  UNK     1      17.402   2.031  36.731  1.00  0.00    -0.259 OA
HETATM    3  C1  UNK     1      19.178  -1.115  34.844  1.00  0.00    -0.001 A 
HETATM    4  C2  UNK     1      18.836  -1.191  36.190  1.00  0.00     0.092 A 
HETATM    5  C3  UNK     1      18.310   1.144  34.731  1.00  0.00     0.108 A 
HETATM    6  C5  UNK     1      18.892   0.109  34.113  1.00  0.00     0.037 A 
HETATM    7  C7  UNK     1      19.784  -2.220  34.240  1.00  0.00     0.017 A 
HETATM    8  C8  UNK     1      19.082  -2.335  36.947  1.00  0.00     0.075 A 
HETATM    9  C10 UNK     1      19.687  -3.431  36.337  1.00  0.00     0.082 A 
HETATM   10  C11 UNK     1      17.937   1.085  36.162  1.00  0.00     0.304 A 
HETATM   11  C12 UNK     1      20.037  -3.374  34.986  1.00  0.00     0.038 A 
ENDROOT
BRANCH   9  12
HETATM   12  O2  UNK     1      19.938  -4.559  37.057  1.00  0.00    -0.275 OA
BRANCH  12  13
HETATM   13  C15 UNK     1      19.153  -5.658  36.696  1.00  0.00     0.299 C 
HETATM   14  O5  UNK     1      17.933  -5.699  36.718  1.00  0.00    -0.259 OA
BRANCH  13  15
HETATM   15  C14 UNK     1      19.999  -6.807  36.286  1.00  0.00     0.056 A 
HETATM   16  C16 UNK     1      20.570  -7.657  37.214  1.00  0.00     0.022 A 
HETATM   17  I1  UNK     1      20.312  -7.432  39.279  1.00  0.00    -0.043 I 
HETATM   18  C18 UNK     1      21.356  -8.718  36.766  1.00  0.00     0.019 A 
HETATM   19  C20 UNK     1      21.557  -8.910  35.399  1.00  0.00     0.001 A 
HETATM   20  C19 UNK     1      20.971  -8.040  34.480  1.00  0.00     0.001 A 
HETATM   21  C17 UNK     1      20.185  -6.979  34.927  1.00  0.00     0.019 A 
ENDBRANCH  13  15
ENDBRANCH  12  13
ENDBRANCH   9  12
BRANCH   5  22
HETATM   22  C9  UNK     1      18.063   2.334  33.910  1.00  0.00     0.257 C 
HETATM   23  O3  UNK     1      17.542   2.238  32.799  1.00  0.00    -0.267 OA
HETATM   24  N1  UNK     1      18.474   3.505  34.521  1.00  0.00    -0.357 N 
HETATM   25  H8  UNK     1      18.917   3.476  35.434  1.00  0.00     0.162 HD
BRANCH  24  26
HETATM   26  C4  UNK     1      18.337   4.805  33.906  1.00  0.00     0.122 C 
BRANCH  26  27
HETATM   27  C6  UNK     1      19.616   5.628  33.997  1.00  0.00     0.015 C 
HETATM   28  C13 UNK     1      19.694   6.713  32.931  1.00  0.00     0.006 C 
ENDBRANCH  26  27
ENDBRANCH  24  26
ENDBRANCH   5  22
TORSDOF 6
ENDMDL
MODEL 4
REMARK VINA RESULT:      -8.1      8.638     12.139
REMARK  6 active torsions:
REMARK  status: ('A' for Active; 'I' for Inactive)
REMARK    1  A    between atoms: C10_17  and  O2_3 
REMARK    2  A    between atoms: C15_22  and  O2_3 
REMARK    3  A    between atoms: C4_11  and  N1_7 
REMARK       I    between atoms: C9_16  and  N1_7 
REMARK    4  A    between atoms: C3_10  and  C9_16 
REMARK    5  A    between atoms: C4_11  and  C6_13 
REMARK    6  A    between atoms: C14_21  and  C15_22 
ROOT
HETATM    1  O1  UNK     1      22.470  -6.600  37.981  1.00  0.00    -0.274 OA
HETATM    2  O4  UNK     1      23.745  -8.471  38.291  1.00  0.00    -0.259 OA
HETATM    3  C1  UNK     1      20.442  -6.738  36.648  1.00  0.00    -0.001 A 
HETATM    4  C2  UNK     1      21.330  -5.994  37.417  1.00  0.00     0.092 A 
HETATM    5  C3  UNK     1      21.791  -8.724  36.975  1.00  0.00     0.108 A 
HETATM    6  C5  UNK     1      20.708  -8.153  36.436  1.00  0.00     0.037 A 
HETATM    7  C7  UNK     1      19.324  -6.101  36.104  1.00  0.00     0.017 A 
HETATM    8  C8  UNK     1      21.133  -4.636  37.657  1.00  0.00     0.075 A 
HETATM    9  C10 UNK     1      20.015  -4.008  37.111  1.00  0.00     0.082 A 
HETATM   10  C11 UNK     1      22.750  -7.951  37.797  1.00  0.00     0.304 A 
HETATM   11  C12 UNK     1      19.113  -4.739  36.337  1.00  0.00     0.038 A 
ENDROOT
BRANCH   9  12
HETATM   12  O2  UNK     1      19.803  -2.682  37.334  1.00  0.00    -0.275 OA
BRANCH  12  13
HETATM   13  C15 UNK     1      19.820  -1.895  36.179  1.00  0.00     0.299 C 
HETATM   14  O5  UNK     1      20.717  -1.868  35.350  1.00  0.00    -0.259 OA
BRANCH  13  15
HETATM   15  C14 UNK     1      18.597  -1.060  36.082  1.00  0.00     0.056 A 
HETATM   16  C16 UNK     1      18.082  -0.663  34.864  1.00  0.00     0.022 A 
HETATM   17  I1  UNK     1      18.949  -1.186  33.032  1.00  0.00    -0.043 I 
HETATM   18  C18 UNK     1      16.930   0.123  34.840  1.00  0.00     0.019 A 
HETATM   19  C20 UNK     1      16.314   0.497  36.035  1.00  0.00     0.001 A 
HETATM   20  C19 UNK     1      16.852   0.084  37.254  1.00  0.00     0.001 A 
HETATM   21  C17 UNK     1      18.004  -0.701  37.278  1.00  0.00     0.019 A 
ENDBRANCH  13  15
ENDBRANCH  12  13
ENDBRANCH   9  12
BRANCH   5  22
HETATM   22  C9  UNK     1      21.972 -10.154  36.705  1.00  0.00     0.257 C 
HETATM   23  O3  UNK     1      21.091 -10.966  36.984  1.00  0.00    -0.267 OA
HETATM   24  N1  UNK     1      23.197 -10.443  36.131  1.00  0.00    -0.357 N 
HETATM   25  H8  UNK     1      23.870  -9.701  35.961  1.00  0.00     0.162 HD
BRANCH  24  26
HETATM   26  C4  UNK     1      23.605 -11.782  35.777  1.00  0.00     0.122 C 
BRANCH  26  27
HETATM   27  C6  UNK     1      25.048 -12.073  36.171  1.00  0.00     0.015 C 
HETATM   28  C13 UNK     1      25.842 -10.809  36.471  1.00  0.00     0.006 C 
ENDBRANCH  26  27
ENDBRANCH  24  26
ENDBRANCH   5  22
TORSDOF 6
ENDMDL
MODEL 5
REMARK VINA RESULT:      -8.0      7.336     10.971
REMARK  6 active torsions:
REMARK  status: ('A' for Active; 'I' for Inactive)
REMARK    1  A    between atoms: C10_17  and  O2_3 
REMARK    2  A    between atoms: C15_22  and  O2_3 
REMARK    3  A    between atoms: C4_11  and  N1_7 
REMARK       I    between atoms: C9_16  and  N1_7 
REMARK    4  A    between atoms: C3_10  and  C9_16 
REMARK    5  A    between atoms: C4_11  and  C6_13 
REMARK    6  A    between atoms: C14_21  and  C15_22 
ROOT
HETATM    1  O1  UNK     1      20.358  -5.401  34.844  1.00  0.00    -0.274 OA
HETATM    2  O4  UNK     1      20.687  -7.617  35.291  1.00  0.00    -0.259 OA
HETATM    3  C1  UNK     1      19.650  -3.909  36.628  1.00  0.00    -0.001 A 
HETATM    4  C2  UNK     1      20.001  -4.116  35.298  1.00  0.00     0.092 A 
HETATM    5  C3  UNK     1      19.999  -6.259  37.106  1.00  0.00     0.108 A 
HETATM    6  C5  UNK     1      19.659  -5.040  37.542  1.00  0.00     0.037 A 
HETATM    7  C7  UNK     1      19.302  -2.621  37.040  1.00  0.00     0.017 A 
HETATM    8  C8  UNK     1      20.013  -3.076  34.372  1.00  0.00     0.075 A 
HETATM    9  C10 UNK     1      19.665  -1.793  34.791  1.00  0.00     0.082 A 
HETATM   10  C11 UNK     1      20.376  -6.502  35.695  1.00  0.00     0.304 A 
HETATM   11  C12 UNK     1      19.309  -1.567  36.122  1.00  0.00     0.038 A 
ENDROOT
BRANCH   9  12
HETATM   12  O2  UNK     1      19.670  -0.761  33.903  1.00  0.00    -0.275 OA
BRANCH  12  13
HETATM   13  C15 UNK     1      18.738  -0.888  32.870  1.00  0.00     0.299 C 
HETATM   14  O5  UNK     1      17.536  -1.053  33.011  1.00  0.00    -0.259 OA
BRANCH  13  15
HETATM   15  C14 UNK     1      19.399  -0.812  31.542  1.00  0.00     0.056 A 
HETATM   16  C16 UNK     1      19.433   0.360  30.813  1.00  0.00     0.022 A 
HETATM   17  I1  UNK     1      18.574   2.148  31.482  1.00  0.00    -0.043 I 
HETATM   18  C18 UNK     1      20.068   0.366  29.571  1.00  0.00     0.019 A 
HETATM   19  C20 UNK     1      20.657  -0.800  29.082  1.00  0.00     0.001 A 
HETATM   20  C19 UNK     1      20.610  -1.973  29.836  1.00  0.00     0.001 A 
HETATM   21  C17 UNK     1      19.975  -1.979  31.077  1.00  0.00     0.019 A 
ENDBRANCH  13  15
ENDBRANCH  12  13
ENDBRANCH   9  12
BRANCH   5  22
HETATM   22  C9  UNK     1      19.978  -7.334  38.102  1.00  0.00     0.257 C 
HETATM   23  O3  UNK     1      20.596  -7.228  39.160  1.00  0.00    -0.267 OA
HETATM   24  N1  UNK     1      19.213  -8.418  37.709  1.00  0.00    -0.357 N 
HETATM   25  H8  UNK     1      18.758  -8.420  36.801  1.00  0.00     0.162 HD
BRANCH  24  26
HETATM   26  C4  UNK     1      19.043  -9.599  38.523  1.00  0.00     0.122 C 
BRANCH  26  27
HETATM   27  C6  UNK     1      20.143 -10.629  38.289  1.00  0.00     0.015 C 
HETATM   28  C13 UNK     1      20.465 -10.820  36.813  1.00  0.00     0.006 C 
ENDBRANCH  26  27
ENDBRANCH  24  26
ENDBRANCH   5  22
TORSDOF 6
ENDMDL
MODEL 6
REMARK VINA RESULT:      -8.0      6.183     11.722
REMARK  6 active torsions:
REMARK  status: ('A' for Active; 'I' for Inactive)
REMARK    1  A    between atoms: C10_17  and  O2_3 
REMARK    2  A    between atoms: C15_22  and  O2_3 
REMARK    3  A    between atoms: C4_11  and  N1_7 
REMARK       I    between atoms: C9_16  and  N1_7 
REMARK    4  A    between atoms: C3_10  and  C9_16 
REMARK    5  A    between atoms: C4_11  and  C6_13 
REMARK    6  A    between atoms: C14_21  and  C15_22 
ROOT
HETATM    1  O1  UNK     1      19.874  -1.883  33.013  1.00  0.00    -0.274 OA
HETATM    2  O4  UNK     1      19.800  -0.611  31.117  1.00  0.00    -0.259 OA
HETATM    3  C1  UNK     1      18.850  -1.053  35.056  1.00  0.00    -0.001 A 
HETATM    4  C2  UNK     1      19.549  -2.044  34.375  1.00  0.00     0.092 A 
HETATM    5  C3  UNK     1      18.769   0.298  33.046  1.00  0.00     0.108 A 
HETATM    6  C5  UNK     1      18.458   0.151  34.340  1.00  0.00     0.037 A 
HETATM    7  C7  UNK     1      18.547  -1.248  36.406  1.00  0.00     0.017 A 
HETATM    8  C8  UNK     1      19.953  -3.220  35.002  1.00  0.00     0.075 A 
HETATM    9  C10 UNK     1      19.646  -3.407  36.349  1.00  0.00     0.082 A 
HETATM   10  C11 UNK     1      19.513  -0.743  32.302  1.00  0.00     0.304 A 
HETATM   11  C12 UNK     1      18.945  -2.424  37.049  1.00  0.00     0.038 A 
ENDROOT
BRANCH   9  12
HETATM   12  O2  UNK     1      20.030  -4.550  36.982  1.00  0.00    -0.275 OA
BRANCH  12  13
HETATM   13  C15 UNK     1      19.229  -5.659  36.703  1.00  0.00     0.299 C 
HETATM   14  O5  UNK     1      18.012  -5.702  36.803  1.00  0.00    -0.259 OA
BRANCH  13  15
HETATM   15  C14 UNK     1      20.051  -6.819  36.275  1.00  0.00     0.056 A 
HETATM   16  C16 UNK     1      20.594  -7.702  37.188  1.00  0.00     0.022 A 
HETATM   17  I1  UNK     1      20.323  -7.517  39.256  1.00  0.00    -0.043 I 
HETATM   18  C18 UNK     1      21.358  -8.772  36.723  1.00  0.00     0.019 A 
HETATM   19  C20 UNK     1      21.566  -8.939  35.354  1.00  0.00     0.001 A 
HETATM   20  C19 UNK     1      21.009  -8.035  34.449  1.00  0.00     0.001 A 
HETATM   21  C17 UNK     1      20.244  -6.965  34.914  1.00  0.00     0.019 A 
ENDBRANCH  13  15
ENDBRANCH  12  13
ENDBRANCH   9  12
BRANCH   5  22
HETATM   22  C9  UNK     1      18.331   1.547  32.412  1.00  0.00     0.257 C 
HETATM   23  O3  UNK     1      17.699   2.390  33.047  1.00  0.00    -0.267 OA
HETATM   24  N1  UNK     1      18.705   1.636  31.083  1.00  0.00    -0.357 N 
HETATM   25  H8  UNK     1      19.208   0.872  30.642  1.00  0.00     0.162 HD
BRANCH  24  26
HETATM   26  C4  UNK     1      18.386   2.771  30.249  1.00  0.00     0.122 C 
BRANCH  26  27
HETATM   27  C6  UNK     1      17.948   2.358  28.849  1.00  0.00     0.015 C 
HETATM   28  C13 UNK     1      18.396   0.949  28.485  1.00  0.00     0.006 C 
ENDBRANCH  26  27
ENDBRANCH  24  26
ENDBRANCH   5  22
TORSDOF 6
ENDMDL
MODEL 7
REMARK VINA RESULT:      -8.0      4.221      6.022
REMARK  6 active torsions:
REMARK  status: ('A' for Active; 'I' for Inactive)
REMARK    1  A    between atoms: C10_17  and  O2_3 
REMARK    2  A    between atoms: C15_22  and  O2_3 
REMARK    3  A    between atoms: C4_11  and  N1_7 
REMARK       I    between atoms: C9_16  and  N1_7 
REMARK    4  A    between atoms: C3_10  and  C9_16 
REMARK    5  A    between atoms: C4_11  and  C6_13 
REMARK    6  A    between atoms: C14_21  and  C15_22 
ROOT
HETATM    1  O1  UNK     1      19.512  -0.941  33.534  1.00  0.00    -0.274 OA
HETATM    2  O4  UNK     1      20.350  -3.052  33.789  1.00  0.00    -0.259 OA
HETATM    3  C1  UNK     1      18.586   0.222  35.457  1.00  0.00    -0.001 A 
HETATM    4  C2  UNK     1      18.902   0.194  34.103  1.00  0.00     0.092 A 
HETATM    5  C3  UNK     1      19.475  -2.015  35.731  1.00  0.00     0.108 A 
HETATM    6  C5  UNK     1      18.895  -0.939  36.276  1.00  0.00     0.037 A 
HETATM    7  C7  UNK     1      17.981   1.366  35.984  1.00  0.00     0.017 A 
HETATM    8  C8  UNK     1      18.632   1.273  33.264  1.00  0.00     0.075 A 
HETATM    9  C10 UNK     1      18.029   2.410  33.797  1.00  0.00     0.082 A 
HETATM   10  C11 UNK     1      19.820  -2.067  34.292  1.00  0.00     0.304 A 
HETATM   11  C12 UNK     1      17.704   2.457  35.154  1.00  0.00     0.038 A 
ENDROOT
BRANCH   9  12
HETATM   12  O2  UNK     1      17.757   3.476  32.996  1.00  0.00    -0.275 OA
BRANCH  12  13
HETATM   13  C15 UNK     1      18.364   4.669  33.399  1.00  0.00     0.299 C 
HETATM   14  O5  UNK     1      19.358   4.759  34.103  1.00  0.00    -0.259 OA
BRANCH  13  15
HETATM   15  C14 UNK     1      17.631   5.847  32.871  1.00  0.00     0.056 A 
HETATM   16  C16 UNK     1      17.899   6.370  31.621  1.00  0.00     0.022 A 
HETATM   17  I1  UNK     1      19.347   5.574  30.336  1.00  0.00    -0.043 I 
HETATM   18  C18 UNK     1      17.177   7.479  31.182  1.00  0.00     0.019 A 
HETATM   19  C20 UNK     1      16.200   8.046  32.002  1.00  0.00     0.001 A 
HETATM   20  C19 UNK     1      15.946   7.501  33.261  1.00  0.00     0.001 A 
HETATM   21  C17 UNK     1      16.668   6.392  33.700  1.00  0.00     0.019 A 
ENDBRANCH  13  15
ENDBRANCH  12  13
ENDBRANCH   9  12
BRANCH   5  22
HETATM   22  C9  UNK     1      19.747  -3.135  36.638  1.00  0.00     0.257 C 
HETATM   23  O3  UNK     1      20.300  -2.950  37.721  1.00  0.00    -0.267 OA
HETATM   24  N1  UNK     1      19.321  -4.351  36.135  1.00  0.00    -0.357 N 
HETATM   25  H8  UNK     1      18.894  -4.402  35.215  1.00  0.00     0.162 HD
BRANCH  24  26
HETATM   26  C4  UNK     1      19.482  -5.598  36.846  1.00  0.00     0.122 C 
BRANCH  26  27
HETATM   27  C6  UNK     1      20.449  -6.545  36.146  1.00  0.00     0.015 C 
HETATM   28  C13 UNK     1      19.965  -6.965  34.765  1.00  0.00     0.006 C 
ENDBRANCH  26  27
ENDBRANCH  24  26
ENDBRANCH   5  22
TORSDOF 6
ENDMDL
MODEL 8
REMARK VINA RESULT:      -7.9      4.515      6.923
REMARK  6 active torsions:
REMARK  status: ('A' for Active; 'I' for Inactive)
REMARK    1  A    between atoms: C10_17  and  O2_3 
REMARK    2  A    between atoms: C15_22  and  O2_3 
REMARK    3  A    between atoms: C4_11  and  N1_7 
REMARK       I    between atoms: C9_16  and  N1_7 
REMARK    4  A    between atoms: C3_10  and  C9_16 
REMARK    5  A    between atoms: C4_11  and  C6_13 
REMARK    6  A    between atoms: C14_21  and  C15_22 
ROOT
HETATM    1  O1  UNK     1      19.741  -1.417  33.532  1.00  0.00    -0.274 OA
HETATM    2  O4  UNK     1      20.804  -3.439  33.585  1.00  0.00    -0.259 OA
HETATM    3  C1  UNK     1      18.629  -0.593  35.530  1.00  0.00    -0.001 A 
HETATM    4  C2  UNK     1      18.989  -0.429  34.197  1.00  0.00     0.092 A 
HETATM    5  C3  UNK     1      19.755  -2.738  35.590  1.00  0.00     0.108 A 
HETATM    6  C5  UNK     1      19.040  -1.802  36.227  1.00  0.00     0.037 A 
HETATM    7  C7  UNK     1      17.882   0.409  36.155  1.00  0.00     0.017 A 
HETATM    8  C8  UNK     1      18.627   0.705  33.473  1.00  0.00     0.075 A 
HETATM    9  C10 UNK     1      17.883   1.700  34.104  1.00  0.00     0.082 A 
HETATM   10  C11 UNK     1      20.150  -2.583  34.172  1.00  0.00     0.304 A 
HETATM   11  C12 UNK     1      17.511   1.552  35.442  1.00  0.00     0.038 A 
ENDROOT
BRANCH   9  12
HETATM   12  O2  UNK     1      17.518   2.817  33.416  1.00  0.00    -0.275 OA
BRANCH  12  13
HETATM   13  C15 UNK     1      18.389   3.898  33.571  1.00  0.00     0.299 C 
HETATM   14  O5  UNK     1      19.019   4.165  34.583  1.00  0.00    -0.259 OA
BRANCH  13  15
HETATM   15  C14 UNK     1      18.449   4.718  32.335  1.00  0.00     0.056 A 
HETATM   16  C16 UNK     1      17.964   6.011  32.296  1.00  0.00     0.022 A 
HETATM   17  I1  UNK     1      17.102   6.958  33.951  1.00  0.00    -0.043 I 
HETATM   18  C18 UNK     1      18.048   6.729  31.103  1.00  0.00     0.019 A 
HETATM   19  C20 UNK     1      18.615   6.141  29.972  1.00  0.00     0.001 A 
HETATM   20  C19 UNK     1      19.098   4.834  30.034  1.00  0.00     0.001 A 
HETATM   21  C17 UNK     1      19.014   4.116  31.227  1.00  0.00     0.019 A 
ENDBRANCH  13  15
ENDBRANCH  12  13
ENDBRANCH   9  12
BRANCH   5  22
HETATM   22  C9  UNK     1      20.122  -3.920  36.377  1.00  0.00     0.257 C 
HETATM   23  O3  UNK     1      20.734  -3.807  37.438  1.00  0.00    -0.267 OA
HETATM   24  N1  UNK     1      19.711  -5.104  35.793  1.00  0.00    -0.357 N 
HETATM   25  H8  UNK     1      19.230  -5.093  34.898  1.00  0.00     0.162 HD
BRANCH  24  26
HETATM   26  C4  UNK     1      19.960  -6.401  36.380  1.00  0.00     0.122 C 
BRANCH  26  27
HETATM   27  C6  UNK     1      19.001  -6.715  37.522  1.00  0.00     0.015 C 
HETATM   28  C13 UNK     1      19.718  -6.930  38.849  1.00  0.00     0.006 C 
ENDBRANCH  26  27
ENDBRANCH  24  26
ENDBRANCH   5  22
TORSDOF 6
ENDMDL
MODEL 9
REMARK VINA RESULT:      -7.9     16.062     21.299
REMARK  6 active torsions:
REMARK  status: ('A' for Active; 'I' for Inactive)
REMARK    1  A    between atoms: C10_17  and  O2_3 
REMARK    2  A    between atoms: C15_22  and  O2_3 
REMARK    3  A    between atoms: C4_11  and  N1_7 
REMARK       I    between atoms: C9_16  and  N1_7 
REMARK    4  A    between atoms: C3_10  and  C9_16 
REMARK    5  A    between atoms: C4_11  and  C6_13 
REMARK    6  A    between atoms: C14_21  and  C15_22 
ROOT
HETATM    1  O1  UNK     1      19.483  -0.132  14.414  1.00  0.00    -0.274 OA
HETATM    2  O4  UNK     1      19.789   1.789  15.613  1.00  0.00    -0.259 OA
HETATM    3  C1  UNK     1      18.611  -2.112  15.522  1.00  0.00    -0.001 A 
HETATM    4  C2  UNK     1      19.078  -1.481  14.375  1.00  0.00     0.092 A 
HETATM    5  C3  UNK     1      18.932  -0.076  16.796  1.00  0.00     0.108 A 
HETATM    6  C5  UNK     1      18.547  -1.357  16.764  1.00  0.00     0.037 A 
HETATM    7  C7  UNK     1      18.219  -3.451  15.443  1.00  0.00     0.017 A 
HETATM    8  C8  UNK     1      19.164  -2.147  13.154  1.00  0.00     0.075 A 
HETATM    9  C10 UNK     1      18.771  -3.482  13.084  1.00  0.00     0.082 A 
HETATM   10  C11 UNK     1      19.433   0.616  15.587  1.00  0.00     0.304 A 
HETATM   11  C12 UNK     1      18.299  -4.132  14.226  1.00  0.00     0.038 A 
ENDROOT
BRANCH   9  12
HETATM   12  O2  UNK     1      18.846  -4.152  11.901  1.00  0.00    -0.275 OA
BRANCH  12  13
HETATM   13  C15 UNK     1      20.123  -4.628  11.591  1.00  0.00     0.299 C 
HETATM   14  O5  UNK     1      20.810  -5.341  12.306  1.00  0.00    -0.259 OA
BRANCH  13  15
HETATM   15  C14 UNK     1      20.567  -4.139  10.261  1.00  0.00     0.056 A 
HETATM   16  C16 UNK     1      20.325  -4.854   9.105  1.00  0.00     0.022 A 
HETATM   17  I1  UNK     1      19.313  -6.687   9.087  1.00  0.00    -0.043 I 
HETATM   18  C18 UNK     1      20.768  -4.342   7.886  1.00  0.00     0.019 A 
HETATM   19  C20 UNK     1      21.446  -3.123   7.846  1.00  0.00     0.001 A 
HETATM   20  C19 UNK     1      21.680  -2.417   9.026  1.00  0.00     0.001 A 
HETATM   21  C17 UNK     1      21.236  -2.929  10.245  1.00  0.00     0.019 A 
ENDBRANCH  13  15
ENDBRANCH  12  13
ENDBRANCH   9  12
BRANCH   5  22
HETATM   22  C9  UNK     1      18.831   0.600  18.094  1.00  0.00     0.257 C 
HETATM   23  O3  UNK     1      18.347   0.026  19.069  1.00  0.00    -0.267 OA
HETATM   24  N1  UNK     1      19.324   1.892  18.069  1.00  0.00    -0.357 N 
HETATM   25  H8  UNK     1      19.683   2.285  17.204  1.00  0.00     0.162 HD
BRANCH  24  26
HETATM   26  C4  UNK     1      19.329   2.756  19.226  1.00  0.00     0.122 C 
BRANCH  26  27
HETATM   27  C6  UNK     1      20.398   2.364  20.239  1.00  0.00     0.015 C 
HETATM   28  C13 UNK     1      19.814   1.978  21.591  1.00  0.00     0.006 C 
ENDBRANCH  26  27
ENDBRANCH  24  26
ENDBRANCH   5  22
TORSDOF 6
ENDMDL
MODEL 10
REMARK VINA RESULT:      -7.9     15.887     17.488
REMARK  6 active torsions:
REMARK  status: ('A' for Active; 'I' for Inactive)
REMARK    1  A    between atoms: C10_17  and  O2_3 
REMARK    2  A    between atoms: C15_22  and  O2_3 
REMARK    3  A    between atoms: C4_11  and  N1_7 
REMARK       I    between atoms: C9_16  and  N1_7 
REMARK    4  A    between atoms: C3_10  and  C9_16 
REMARK    5  A    between atoms: C4_11  and  C6_13 
REMARK    6  A    between atoms: C14_21  and  C15_22 
ROOT
HETATM    1  O1  UNK     1      27.696  -5.284  39.315  1.00  0.00    -0.274 OA
HETATM    2  O4  UNK     1      29.373  -3.751  39.556  1.00  0.00    -0.259 OA
HETATM    3  C1  UNK     1      27.996  -7.163  37.801  1.00  0.00    -0.001 A 
HETATM    4  C2  UNK     1      27.212  -6.462  38.713  1.00  0.00     0.092 A 
HETATM    5  C3  UNK     1      29.777  -5.540  38.055  1.00  0.00     0.108 A 
HETATM    6  C5  UNK     1      29.322  -6.659  37.480  1.00  0.00     0.037 A 
HETATM    7  C7  UNK     1      27.481  -8.327  37.225  1.00  0.00     0.017 A 
HETATM    8  C8  UNK     1      25.934  -6.891  39.063  1.00  0.00     0.075 A 
HETATM    9  C10 UNK     1      25.428  -8.053  38.484  1.00  0.00     0.082 A 
HETATM   10  C11 UNK     1      28.960  -4.778  39.028  1.00  0.00     0.304 A 
HETATM   11  C12 UNK     1      26.200  -8.769  37.567  1.00  0.00     0.038 A 
ENDROOT
BRANCH   9  12
HETATM   12  O2  UNK     1      24.182  -8.490  38.812  1.00  0.00    -0.275 OA
BRANCH  12  13
HETATM   13  C15 UNK     1      23.159  -7.961  38.020  1.00  0.00     0.299 C 
HETATM   14  O5  UNK     1      22.869  -6.778  37.929  1.00  0.00    -0.259 OA
BRANCH  13  15
HETATM   15  C14 UNK     1      22.435  -9.035  37.294  1.00  0.00     0.056 A 
HETATM   16  C16 UNK     1      21.158  -9.420  37.651  1.00  0.00     0.022 A 
HETATM   17  I1  UNK     1      20.102  -8.547  39.234  1.00  0.00    -0.043 I 
HETATM   18  C18 UNK     1      20.531 -10.436  36.931  1.00  0.00     0.019 A 
HETATM   19  C20 UNK     1      21.193 -11.049  35.866  1.00  0.00     0.001 A 
HETATM   20  C19 UNK     1      22.483 -10.644  35.523  1.00  0.00     0.001 A 
HETATM   21  C17 UNK     1      23.110  -9.628  36.243  1.00  0.00     0.019 A 
ENDBRANCH  13  15
ENDBRANCH  12  13
ENDBRANCH   9  12
BRANCH   5  22
HETATM   22  C9  UNK     1      31.125  -5.113  37.668  1.00  0.00     0.257 C 
HETATM   23  O3  UNK     1      32.121  -5.680  38.115  1.00  0.00    -0.267 OA
HETATM   24  N1  UNK     1      31.120  -4.048  36.784  1.00  0.00    -0.357 N 
HETATM   25  H8  UNK     1      30.242  -3.632  36.490  1.00  0.00     0.162 HD
BRANCH  24  26
HETATM   26  C4  UNK     1      32.328  -3.452  36.262  1.00  0.00     0.122 C 
BRANCH  26  27
HETATM   27  C6  UNK     1      32.879  -4.211  35.062  1.00  0.00     0.015 C 
HETATM   28  C13 UNK     1      34.396  -4.349  35.100  1.00  0.00     0.006 C 
ENDBRANCH  26  27
ENDBRANCH  24  26
ENDBRANCH   5  22
TORSDOF 6
ENDMDL
