MODEL 1
REMARK VINA RESULT:      -9.1      0.000      0.000
REMARK  4 active torsions:
REMARK  status: ('A' for Active; 'I' for Inactive)
REMARK    1  A    between atoms: C1_5  and  N1_4 
REMARK       I    between atoms: C5_9  and  N1_4 
REMARK    2  A    between atoms: C1_5  and  C2_6 
REMARK    3  A    between atoms: C1_5  and  C3_7 
REMARK    4  A    between atoms: C5_9  and  C8_12 
ROOT
HETATM    1  O2  UNK     1      18.649   4.919  29.996  1.00  0.00    -0.267 OA
HETATM    2  N1  UNK     1      17.614   4.905  32.084  1.00  0.00    -0.348 N 
HETATM    3  C5  UNK     1      18.302   4.343  31.024  1.00  0.00     0.258 C 
HETATM    4  H4  UNK     1      17.438   4.355  32.919  1.00  0.00     0.163 HD
ENDROOT
BRANCH   3   5
HETATM    5  C8  UNK     1      18.610   2.923  31.233  1.00  0.00     0.108 A 
HETATM    6  C10 UNK     1      19.121   2.268  30.184  1.00  0.00     0.037 A 
HETATM    7  C9  UNK     1      19.458   0.857  30.293  1.00  0.00    -0.001 A 
HETATM    8  C13 UNK     1      19.240   0.205  31.503  1.00  0.00     0.089 A 
HETATM    9  C16 UNK     1      19.992   0.134  29.224  1.00  0.00     0.014 A 
HETATM   10  O1  UNK     1      18.704   0.900  32.604  1.00  0.00    -0.274 OA
HETATM   11  C17 UNK     1      19.542  -1.145  31.674  1.00  0.00     0.038 A 
HETATM   12  C14 UNK     1      18.371   2.249  32.529  1.00  0.00     0.304 A 
HETATM   13  O3  UNK     1      17.903   2.847  33.493  1.00  0.00    -0.259 OA
HETATM   14  C19 UNK     1      20.074  -1.859  30.603  1.00  0.00     0.003 A 
HETATM   15  C18 UNK     1      20.300  -1.221  29.380  1.00  0.00     0.001 A 
ENDBRANCH   3   5
BRANCH   2  16
HETATM   16  C1  UNK     1      17.204   6.291  32.110  1.00  0.00     0.117 C 
BRANCH  16  17
HETATM   17  C2  UNK     1      15.790   6.444  32.699  1.00  0.00     0.025 C 
HETATM   18  C4  UNK     1      14.842   7.180  31.760  1.00  0.00     0.007 C 
ENDBRANCH  16  17
BRANCH  16  19
HETATM   19  C3  UNK     1      18.216   7.136  32.856  1.00  0.00    -0.035 A 
HETATM   20  C6  UNK     1      19.516   6.676  32.980  1.00  0.00     0.009 A 
HETATM   21  C11 UNK     1      20.448   7.454  33.666  1.00  0.00     0.001 A 
HETATM   22  C15 UNK     1      20.066   8.676  34.218  1.00  0.00     0.000 A 
HETATM   23  C12 UNK     1      18.751   9.123  34.083  1.00  0.00     0.001 A 
HETATM   24  C7  UNK     1      17.818   8.345  33.396  1.00  0.00     0.009 A 
ENDBRANCH  16  19
ENDBRANCH   2  16
TORSDOF 4
ENDMDL
MODEL 2
REMARK VINA RESULT:      -8.8      1.280      3.135
REMARK  4 active torsions:
REMARK  status: ('A' for Active; 'I' for Inactive)
REMARK    1  A    between atoms: C1_5  and  N1_4 
REMARK       I    between atoms: C5_9  and  N1_4 
REMARK    2  A    between atoms: C1_5  and  C2_6 
REMARK    3  A    between atoms: C1_5  and  C3_7 
REMARK    4  A    between atoms: C5_9  and  C8_12 
ROOT
HETATM    1  O2  UNK     1      17.576   3.205  33.466  1.00  0.00    -0.267 OA
HETATM    2  N1  UNK     1      18.944   4.756  32.390  1.00  0.00    -0.348 N 
HETATM    3  C5  UNK     1      18.350   3.519  32.564  1.00  0.00     0.258 C 
HETATM    4  H4  UNK     1      19.515   4.929  31.568  1.00  0.00     0.163 HD
ENDROOT
BRANCH   3   5
HETATM    5  C8  UNK     1      18.731   2.552  31.528  1.00  0.00     0.108 A 
HETATM    6  C10 UNK     1      19.045   1.322  31.953  1.00  0.00     0.037 A 
HETATM    7  C9  UNK     1      19.436   0.295  31.001  1.00  0.00    -0.001 A 
HETATM    8  C13 UNK     1      19.476   0.612  29.647  1.00  0.00     0.089 A 
HETATM    9  C16 UNK     1      19.774  -1.001  31.400  1.00  0.00     0.014 A 
HETATM   10  O1  UNK     1      19.143   1.908  29.206  1.00  0.00    -0.274 OA
HETATM   11  C17 UNK     1      19.842  -0.326  28.684  1.00  0.00     0.038 A 
HETATM   12  C14 UNK     1      18.767   2.911  30.093  1.00  0.00     0.304 A 
HETATM   13  O3  UNK     1      18.479   4.037  29.700  1.00  0.00    -0.259 OA
HETATM   14  C19 UNK     1      20.177  -1.616  29.090  1.00  0.00     0.003 A 
HETATM   15  C18 UNK     1      20.142  -1.953  30.446  1.00  0.00     0.001 A 
ENDBRANCH   3   5
BRANCH   2  16
HETATM   16  C1  UNK     1      18.718   5.871  33.282  1.00  0.00     0.117 C 
BRANCH  16  17
HETATM   17  C2  UNK     1      19.955   6.783  33.360  1.00  0.00     0.025 C 
HETATM   18  C4  UNK     1      21.108   6.280  32.500  1.00  0.00     0.007 C 
ENDBRANCH  16  17
BRANCH  16  19
HETATM   19  C3  UNK     1      17.478   6.641  32.874  1.00  0.00    -0.035 A 
HETATM   20  C6  UNK     1      17.400   7.163  31.595  1.00  0.00     0.009 A 
HETATM   21  C11 UNK     1      16.259   7.872  31.220  1.00  0.00     0.001 A 
HETATM   22  C15 UNK     1      15.216   8.046  32.129  1.00  0.00     0.000 A 
HETATM   23  C12 UNK     1      15.313   7.511  33.414  1.00  0.00     0.001 A 
HETATM   24  C7  UNK     1      16.454   6.802  33.790  1.00  0.00     0.009 A 
ENDBRANCH  16  19
ENDBRANCH   2  16
TORSDOF 4
ENDMDL
MODEL 3
REMARK VINA RESULT:      -8.7      7.161     11.693
REMARK  4 active torsions:
REMARK  status: ('A' for Active; 'I' for Inactive)
REMARK    1  A    between atoms: C1_5  and  N1_4 
REMARK       I    between atoms: C5_9  and  N1_4 
REMARK    2  A    between atoms: C1_5  and  C2_6 
REMARK    3  A    between atoms: C1_5  and  C3_7 
REMARK    4  A    between atoms: C5_9  and  C8_12 
ROOT
HETATM    1  O2  UNK     1      20.577  -5.216  35.768  1.00  0.00    -0.267 OA
HETATM    2  N1  UNK     1      18.456  -5.269  36.733  1.00  0.00    -0.348 N 
HETATM    3  C5  UNK     1      19.554  -4.657  36.158  1.00  0.00     0.258 C 
HETATM    4  H4  UNK     1      17.632  -4.720  36.956  1.00  0.00     0.163 HD
ENDROOT
BRANCH   3   5
HETATM    5  C8  UNK     1      19.398  -3.203  36.036  1.00  0.00     0.108 A 
HETATM    6  C10 UNK     1      18.681  -2.602  36.993  1.00  0.00     0.037 A 
HETATM    7  C9  UNK     1      18.471  -1.163  36.959  1.00  0.00    -0.001 A 
HETATM    8  C13 UNK     1      19.026  -0.427  35.916  1.00  0.00     0.089 A 
HETATM    9  C16 UNK     1      17.729  -0.495  37.936  1.00  0.00     0.014 A 
HETATM   10  O1  UNK     1      19.780  -1.065  34.912  1.00  0.00    -0.274 OA
HETATM   11  C17 UNK     1      18.861   0.954  35.825  1.00  0.00     0.038 A 
HETATM   12  C14 UNK     1      19.997  -2.439  34.919  1.00  0.00     0.304 A 
HETATM   13  O3  UNK     1      20.655  -2.986  34.039  1.00  0.00    -0.259 OA
HETATM   14  C19 UNK     1      18.120   1.612  36.804  1.00  0.00     0.003 A 
HETATM   15  C18 UNK     1      17.556   0.889  37.858  1.00  0.00     0.001 A 
ENDBRANCH   3   5
BRANCH   2  16
HETATM   16  C1  UNK     1      18.376  -6.696  36.955  1.00  0.00     0.117 C 
BRANCH  16  17
HETATM   17  C2  UNK     1      18.225  -7.460  35.628  1.00  0.00     0.025 C 
HETATM   18  C4  UNK     1      16.790  -7.464  35.115  1.00  0.00     0.007 C 
ENDBRANCH  16  17
BRANCH  16  19
HETATM   19  C3  UNK     1      19.571  -7.182  37.750  1.00  0.00    -0.035 A 
HETATM   20  C6  UNK     1      20.330  -8.227  37.253  1.00  0.00     0.009 A 
HETATM   21  C11 UNK     1      21.430  -8.675  37.984  1.00  0.00     0.001 A 
HETATM   22  C15 UNK     1      21.752  -8.070  39.199  1.00  0.00     0.000 A 
HETATM   23  C12 UNK     1      20.975  -7.018  39.683  1.00  0.00     0.001 A 
HETATM   24  C7  UNK     1      19.874  -6.570  38.952  1.00  0.00     0.009 A 
ENDBRANCH  16  19
ENDBRANCH   2  16
TORSDOF 4
ENDMDL
MODEL 4
REMARK VINA RESULT:      -8.7      1.798      7.533
REMARK  4 active torsions:
REMARK  status: ('A' for Active; 'I' for Inactive)
REMARK    1  A    between atoms: C1_5  and  N1_4 
REMARK       I    between atoms: C5_9  and  N1_4 
REMARK    2  A    between atoms: C1_5  and  C2_6 
REMARK    3  A    between atoms: C1_5  and  C3_7 
REMARK    4  A    between atoms: C5_9  and  C8_12 
ROOT
HETATM    1  O2  UNK     1      16.959   2.732  30.534  1.00  0.00    -0.267 OA
HETATM    2  N1  UNK     1      19.143   2.057  30.988  1.00  0.00    -0.348 N 
HETATM    3  C5  UNK     1      18.086   2.949  30.972  1.00  0.00     0.258 C 
HETATM    4  H4  UNK     1      20.015   2.317  31.439  1.00  0.00     0.163 HD
ENDROOT
BRANCH   3   5
HETATM    5  C8  UNK     1      18.430   4.251  31.556  1.00  0.00     0.108 A 
HETATM    6  C10 UNK     1      17.736   4.615  32.641  1.00  0.00     0.037 A 
HETATM    7  C9  UNK     1      18.004   5.888  33.291  1.00  0.00    -0.001 A 
HETATM    8  C13 UNK     1      18.992   6.716  32.766  1.00  0.00     0.089 A 
HETATM    9  C16 UNK     1      17.303   6.309  34.424  1.00  0.00     0.014 A 
HETATM   10  O1  UNK     1      19.720   6.327  31.625  1.00  0.00    -0.274 OA
HETATM   11  C17 UNK     1      19.298   7.949  33.341  1.00  0.00     0.038 A 
HETATM   12  C14 UNK     1      19.485   5.116  30.982  1.00  0.00     0.304 A 
HETATM   13  O3  UNK     1      20.124   4.785  29.988  1.00  0.00    -0.259 OA
HETATM   14  C19 UNK     1      18.594   8.361  34.470  1.00  0.00     0.003 A 
HETATM   15  C18 UNK     1      17.599   7.542  35.011  1.00  0.00     0.001 A 
ENDBRANCH   3   5
BRANCH   2  16
HETATM   16  C1  UNK     1      19.045   0.711  30.471  1.00  0.00     0.117 C 
BRANCH  16  17
HETATM   17  C2  UNK     1      19.890   0.540  29.196  1.00  0.00     0.025 C 
HETATM   18  C4  UNK     1      19.183  -0.294  28.134  1.00  0.00     0.007 C 
ENDBRANCH  16  17
BRANCH  16  19
HETATM   19  C3  UNK     1      19.424  -0.300  31.534  1.00  0.00    -0.035 A 
HETATM   20  C6  UNK     1      18.723  -0.318  32.727  1.00  0.00     0.009 A 
HETATM   21  C11 UNK     1      19.071  -1.249  33.705  1.00  0.00     0.001 A 
HETATM   22  C15 UNK     1      20.115  -2.145  33.475  1.00  0.00     0.000 A 
HETATM   23  C12 UNK     1      20.810  -2.112  32.266  1.00  0.00     0.001 A 
HETATM   24  C7  UNK     1      20.461  -1.181  31.287  1.00  0.00     0.009 A 
ENDBRANCH  16  19
ENDBRANCH   2  16
TORSDOF 4
ENDMDL
MODEL 5
REMARK VINA RESULT:      -8.6      3.153      4.489
REMARK  4 active torsions:
REMARK  status: ('A' for Active; 'I' for Inactive)
REMARK    1  A    between atoms: C1_5  and  N1_4 
REMARK       I    between atoms: C5_9  and  N1_4 
REMARK    2  A    between atoms: C1_5  and  C2_6 
REMARK    3  A    between atoms: C1_5  and  C3_7 
REMARK    4  A    between atoms: C5_9  and  C8_12 
ROOT
HETATM    1  O2  UNK     1      17.663   2.483  31.837  1.00  0.00    -0.267 OA
HETATM    2  N1  UNK     1      18.096   3.853  33.672  1.00  0.00    -0.348 N 
HETATM    3  C5  UNK     1      17.941   2.642  33.024  1.00  0.00     0.258 C 
HETATM    4  H4  UNK     1      18.396   3.871  34.643  1.00  0.00     0.163 HD
ENDROOT
BRANCH   3   5
HETATM    5  C8  UNK     1      18.149   1.490  33.909  1.00  0.00     0.108 A 
HETATM    6  C10 UNK     1      17.823   1.665  35.195  1.00  0.00     0.037 A 
HETATM    7  C9  UNK     1      17.994   0.581  36.150  1.00  0.00    -0.001 A 
HETATM    8  C13 UNK     1      18.500  -0.636  35.703  1.00  0.00     0.089 A 
HETATM    9  C16 UNK     1      17.667   0.719  37.501  1.00  0.00     0.014 A 
HETATM   10  O1  UNK     1      18.841  -0.814  34.348  1.00  0.00    -0.274 OA
HETATM   11  C17 UNK     1      18.688  -1.714  36.566  1.00  0.00     0.038 A 
HETATM   12  C14 UNK     1      18.689   0.204  33.412  1.00  0.00     0.304 A 
HETATM   13  O3  UNK     1      18.989   0.040  32.234  1.00  0.00    -0.259 OA
HETATM   14  C19 UNK     1      18.360  -1.567  37.912  1.00  0.00     0.003 A 
HETATM   15  C18 UNK     1      17.850  -0.353  38.378  1.00  0.00     0.001 A 
ENDBRANCH   3   5
BRANCH   2  16
HETATM   16  C1  UNK     1      17.943   5.127  33.008  1.00  0.00     0.117 C 
BRANCH  16  17
HETATM   17  C2  UNK     1      17.466   6.214  33.987  1.00  0.00     0.025 C 
HETATM   18  C4  UNK     1      16.724   7.347  33.287  1.00  0.00     0.007 C 
ENDBRANCH  16  17
BRANCH  16  19
HETATM   19  C3  UNK     1      19.228   5.526  32.311  1.00  0.00    -0.035 A 
HETATM   20  C6  UNK     1      20.302   5.954  33.072  1.00  0.00     0.009 A 
HETATM   21  C11 UNK     1      21.485   6.320  32.431  1.00  0.00     0.001 A 
HETATM   22  C15 UNK     1      21.575   6.253  31.040  1.00  0.00     0.000 A 
HETATM   23  C12 UNK     1      20.481   5.819  30.290  1.00  0.00     0.001 A 
HETATM   24  C7  UNK     1      19.298   5.452  30.932  1.00  0.00     0.009 A 
ENDBRANCH  16  19
ENDBRANCH   2  16
TORSDOF 4
ENDMDL
MODEL 6
REMARK VINA RESULT:      -8.6     22.643     24.396
REMARK  4 active torsions:
REMARK  status: ('A' for Active; 'I' for Inactive)
REMARK    1  A    between atoms: C1_5  and  N1_4 
REMARK       I    between atoms: C5_9  and  N1_4 
REMARK    2  A    between atoms: C1_5  and  C2_6 
REMARK    3  A    between atoms: C1_5  and  C3_7 
REMARK    4  A    between atoms: C5_9  and  C8_12 
ROOT
HETATM    1  O2  UNK     1      10.636   9.060   9.391  1.00  0.00    -0.267 OA
HETATM    2  N1  UNK     1      10.526   6.932   8.448  1.00  0.00    -0.348 N 
HETATM    3  C5  UNK     1      11.146   7.980   9.101  1.00  0.00     0.258 C 
HETATM    4  H4  UNK     1      11.020   6.054   8.320  1.00  0.00     0.163 HD
ENDROOT
BRANCH   3   5
HETATM    5  C8  UNK     1      12.542   7.689   9.450  1.00  0.00     0.108 A 
HETATM    6  C10 UNK     1      13.426   8.667   9.219  1.00  0.00     0.037 A 
HETATM    7  C9  UNK     1      14.833   8.473   9.531  1.00  0.00    -0.001 A 
HETATM    8  C13 UNK     1      15.241   7.257  10.072  1.00  0.00     0.089 A 
HETATM    9  C16 UNK     1      15.791   9.465   9.306  1.00  0.00     0.014 A 
HETATM   10  O1  UNK     1      14.306   6.232  10.314  1.00  0.00    -0.274 OA
HETATM   11  C17 UNK     1      16.574   7.008  10.393  1.00  0.00     0.038 A 
HETATM   12  C14 UNK     1      12.954   6.389  10.025  1.00  0.00     0.304 A 
HETATM   13  O3  UNK     1      12.146   5.490  10.238  1.00  0.00    -0.259 OA
HETATM   14  C19 UNK     1      17.522   8.003  10.165  1.00  0.00     0.003 A 
HETATM   15  C18 UNK     1      17.131   9.230   9.623  1.00  0.00     0.001 A 
ENDBRANCH   3   5
BRANCH   2  16
HETATM   16  C1  UNK     1       9.150   6.982   8.008  1.00  0.00     0.117 C 
BRANCH  16  17
HETATM   17  C2  UNK     1       8.929   6.104   6.763  1.00  0.00     0.025 C 
HETATM   18  C4  UNK     1      10.125   6.116   5.819  1.00  0.00     0.007 C 
ENDBRANCH  16  17
BRANCH  16  19
HETATM   19  C3  UNK     1       8.212   6.601   9.136  1.00  0.00    -0.035 A 
HETATM   20  C6  UNK     1       8.322   5.346   9.709  1.00  0.00     0.009 A 
HETATM   21  C11 UNK     1       7.460   4.996  10.747  1.00  0.00     0.001 A 
HETATM   22  C15 UNK     1       6.503   5.906  11.195  1.00  0.00     0.000 A 
HETATM   23  C12 UNK     1       6.407   7.166  10.605  1.00  0.00     0.001 A 
HETATM   24  C7  UNK     1       7.270   7.517   9.566  1.00  0.00     0.009 A 
ENDBRANCH  16  19
ENDBRANCH   2  16
TORSDOF 4
ENDMDL
MODEL 7
REMARK VINA RESULT:      -8.6      2.878      4.636
REMARK  4 active torsions:
REMARK  status: ('A' for Active; 'I' for Inactive)
REMARK    1  A    between atoms: C1_5  and  N1_4 
REMARK       I    between atoms: C5_9  and  N1_4 
REMARK    2  A    between atoms: C1_5  and  C2_6 
REMARK    3  A    between atoms: C1_5  and  C3_7 
REMARK    4  A    between atoms: C5_9  and  C8_12 
ROOT
HETATM    1  O2  UNK     1      17.854   3.741  32.110  1.00  0.00    -0.267 OA
HETATM    2  N1  UNK     1      18.683   4.713  34.059  1.00  0.00    -0.348 N 
HETATM    3  C5  UNK     1      18.230   3.666  33.277  1.00  0.00     0.258 C 
HETATM    4  H4  UNK     1      19.036   4.528  34.993  1.00  0.00     0.163 HD
ENDROOT
BRANCH   3   5
HETATM    5  C8  UNK     1      18.236   2.380  33.985  1.00  0.00     0.108 A 
HETATM    6  C10 UNK     1      18.011   2.430  35.304  1.00  0.00     0.037 A 
HETATM    7  C9  UNK     1      17.998   1.208  36.092  1.00  0.00    -0.001 A 
HETATM    8  C13 UNK     1      18.222  -0.008  35.453  1.00  0.00     0.089 A 
HETATM    9  C16 UNK     1      17.769   1.212  37.470  1.00  0.00     0.014 A 
HETATM   10  O1  UNK     1      18.456  -0.054  34.065  1.00  0.00    -0.274 OA
HETATM   11  C17 UNK     1      18.222  -1.214  36.150  1.00  0.00     0.038 A 
HETATM   12  C14 UNK     1      18.476   1.099  33.285  1.00  0.00     0.304 A 
HETATM   13  O3  UNK     1      18.682   1.050  32.077  1.00  0.00    -0.259 OA
HETATM   14  C19 UNK     1      17.993  -1.201  37.524  1.00  0.00     0.003 A 
HETATM   15  C18 UNK     1      17.765   0.010  38.183  1.00  0.00     0.001 A 
ENDBRANCH   3   5
BRANCH   2  16
HETATM   16  C1  UNK     1      18.771   6.074  33.580  1.00  0.00     0.117 C 
BRANCH  16  17
HETATM   17  C2  UNK     1      19.652   6.167  32.322  1.00  0.00     0.025 C 
HETATM   18  C4  UNK     1      21.114   6.444  32.652  1.00  0.00     0.007 C 
ENDBRANCH  16  17
BRANCH  16  19
HETATM   19  C3  UNK     1      17.389   6.647  33.340  1.00  0.00    -0.035 A 
HETATM   20  C6  UNK     1      16.995   6.935  32.045  1.00  0.00     0.009 A 
HETATM   21  C11 UNK     1      15.723   7.462  31.824  1.00  0.00     0.001 A 
HETATM   22  C15 UNK     1      14.867   7.693  32.900  1.00  0.00     0.000 A 
HETATM   23  C12 UNK     1      15.281   7.396  34.199  1.00  0.00     0.001 A 
HETATM   24  C7  UNK     1      16.554   6.868  34.420  1.00  0.00     0.009 A 
ENDBRANCH  16  19
ENDBRANCH   2  16
TORSDOF 4
ENDMDL
MODEL 8
REMARK VINA RESULT:      -8.5     13.474     17.604
REMARK  4 active torsions:
REMARK  status: ('A' for Active; 'I' for Inactive)
REMARK    1  A    between atoms: C1_5  and  N1_4 
REMARK       I    between atoms: C5_9  and  N1_4 
REMARK    2  A    between atoms: C1_5  and  C2_6 
REMARK    3  A    between atoms: C1_5  and  C3_7 
REMARK    4  A    between atoms: C5_9  and  C8_12 
ROOT
HETATM    1  O2  UNK     1      17.451  -2.092  16.498  1.00  0.00    -0.267 OA
HETATM    2  N1  UNK     1      19.343  -1.619  15.221  1.00  0.00    -0.348 N 
HETATM    3  C5  UNK     1      18.463  -1.432  16.271  1.00  0.00     0.258 C 
HETATM    4  H4  UNK     1      20.189  -1.059  15.167  1.00  0.00     0.163 HD
ENDROOT
BRANCH   3   5
HETATM    5  C8  UNK     1      18.852  -0.323  17.151  1.00  0.00     0.108 A 
HETATM    6  C10 UNK     1      18.894  -0.593  18.461  1.00  0.00     0.037 A 
HETATM    7  C9  UNK     1      19.268   0.441  19.412  1.00  0.00    -0.001 A 
HETATM    8  C13 UNK     1      19.580   1.711  18.936  1.00  0.00     0.089 A 
HETATM    9  C16 UNK     1      19.325   0.204  20.787  1.00  0.00     0.014 A 
HETATM   10  O1  UNK     1      19.535   1.990  17.556  1.00  0.00    -0.274 OA
HETATM   11  C17 UNK     1      19.946   2.747  19.794  1.00  0.00     0.038 A 
HETATM   12  C14 UNK     1      19.180   1.020  16.623  1.00  0.00     0.304 A 
HETATM   13  O3  UNK     1      19.142   1.272  15.423  1.00  0.00    -0.259 OA
HETATM   14  C19 UNK     1      20.000   2.502  21.164  1.00  0.00     0.003 A 
HETATM   15  C18 UNK     1      19.691   1.233  21.660  1.00  0.00     0.001 A 
ENDBRANCH   3   5
BRANCH   2  16
HETATM   16  C1  UNK     1      19.173  -2.652  14.225  1.00  0.00     0.117 C 
BRANCH  16  17
HETATM   17  C2  UNK     1      19.589  -2.156  12.829  1.00  0.00     0.025 C 
HETATM   18  C4  UNK     1      20.948  -1.468  12.835  1.00  0.00     0.007 C 
ENDBRANCH  16  17
BRANCH  16  19
HETATM   19  C3  UNK     1      19.923  -3.908  14.621  1.00  0.00    -0.035 A 
HETATM   20  C6  UNK     1      19.534  -5.123  14.085  1.00  0.00     0.009 A 
HETATM   21  C11 UNK     1      20.225  -6.278  14.449  1.00  0.00     0.001 A 
HETATM   22  C15 UNK     1      21.293  -6.199  15.343  1.00  0.00     0.000 A 
HETATM   23  C12 UNK     1      21.670  -4.965  15.873  1.00  0.00     0.001 A 
HETATM   24  C7  UNK     1      20.979  -3.809  15.509  1.00  0.00     0.009 A 
ENDBRANCH  16  19
ENDBRANCH   2  16
TORSDOF 4
ENDMDL
MODEL 9
REMARK VINA RESULT:      -8.4      3.492      8.535
REMARK  4 active torsions:
REMARK  status: ('A' for Active; 'I' for Inactive)
REMARK    1  A    between atoms: C1_5  and  N1_4 
REMARK       I    between atoms: C5_9  and  N1_4 
REMARK    2  A    between atoms: C1_5  and  C2_6 
REMARK    3  A    between atoms: C1_5  and  C3_7 
REMARK    4  A    between atoms: C5_9  and  C8_12 
ROOT
HETATM    1  O2  UNK     1      16.686   8.076  30.809  1.00  0.00    -0.267 OA
HETATM    2  N1  UNK     1      17.454   6.720  32.542  1.00  0.00    -0.348 N 
HETATM    3  C5  UNK     1      16.777   7.798  32.003  1.00  0.00     0.258 C 
HETATM    4  H4  UNK     1      17.408   6.544  33.541  1.00  0.00     0.163 HD
ENDROOT
BRANCH   3   5
HETATM    5  C8  UNK     1      16.132   8.635  33.022  1.00  0.00     0.108 A 
HETATM    6  C10 UNK     1      15.110   9.392  32.607  1.00  0.00     0.037 A 
HETATM    7  C9  UNK     1      14.408  10.255  33.543  1.00  0.00    -0.001 A 
HETATM    8  C13 UNK     1      14.817  10.277  34.874  1.00  0.00     0.089 A 
HETATM    9  C16 UNK     1      13.337  11.063  33.154  1.00  0.00     0.014 A 
HETATM   10  O1  UNK     1      15.892   9.477  35.305  1.00  0.00    -0.274 OA
HETATM   11  C17 UNK     1      14.186  11.081  35.821  1.00  0.00     0.038 A 
HETATM   12  C14 UNK     1      16.583   8.642  34.432  1.00  0.00     0.304 A 
HETATM   13  O3  UNK     1      17.519   7.949  34.816  1.00  0.00    -0.259 OA
HETATM   14  C19 UNK     1      13.120  11.884  35.424  1.00  0.00     0.003 A 
HETATM   15  C18 UNK     1      12.695  11.875  34.093  1.00  0.00     0.001 A 
ENDBRANCH   3   5
BRANCH   2  16
HETATM   16  C1  UNK     1      18.165   5.753  31.736  1.00  0.00     0.117 C 
BRANCH  16  17
HETATM   17  C2  UNK     1      19.578   6.250  31.385  1.00  0.00     0.025 C 
HETATM   18  C4  UNK     1      19.952   5.972  29.934  1.00  0.00     0.007 C 
ENDBRANCH  16  17
BRANCH  16  19
HETATM   19  C3  UNK     1      18.199   4.404  32.424  1.00  0.00    -0.035 A 
HETATM   20  C6  UNK     1      18.272   4.354  33.805  1.00  0.00     0.009 A 
HETATM   21  C11 UNK     1      18.302   3.112  34.439  1.00  0.00     0.001 A 
HETATM   22  C15 UNK     1      18.261   1.941  33.681  1.00  0.00     0.000 A 
HETATM   23  C12 UNK     1      18.188   2.012  32.290  1.00  0.00     0.001 A 
HETATM   24  C7  UNK     1      18.157   3.255  31.656  1.00  0.00     0.009 A 
ENDBRANCH  16  19
ENDBRANCH   2  16
TORSDOF 4
ENDMDL
MODEL 10
REMARK VINA RESULT:      -8.4      7.438     10.420
REMARK  4 active torsions:
REMARK  status: ('A' for Active; 'I' for Inactive)
REMARK    1  A    between atoms: C1_5  and  N1_4 
REMARK       I    between atoms: C5_9  and  N1_4 
REMARK    2  A    between atoms: C1_5  and  C2_6 
REMARK    3  A    between atoms: C1_5  and  C3_7 
REMARK    4  A    between atoms: C5_9  and  C8_12 
ROOT
HETATM    1  O2  UNK     1      21.396  -3.737  37.089  1.00  0.00    -0.267 OA
HETATM    2  N1  UNK     1      19.814  -3.705  35.377  1.00  0.00    -0.348 N 
HETATM    3  C5  UNK     1      20.574  -4.298  36.368  1.00  0.00     0.258 C 
HETATM    4  H4  UNK     1      19.112  -4.250  34.886  1.00  0.00     0.163 HD
ENDROOT
BRANCH   3   5
HETATM    5  C8  UNK     1      20.308  -5.736  36.507  1.00  0.00     0.108 A 
HETATM    6  C10 UNK     1      20.199  -6.199  37.758  1.00  0.00     0.037 A 
HETATM    7  C9  UNK     1      19.936  -7.609  37.997  1.00  0.00    -0.001 A 
HETATM    8  C13 UNK     1      19.800  -8.463  36.907  1.00  0.00     0.089 A 
HETATM    9  C16 UNK     1      19.815  -8.137  39.285  1.00  0.00     0.014 A 
HETATM   10  O1  UNK     1      19.915  -7.969  35.593  1.00  0.00    -0.274 OA
HETATM   11  C17 UNK     1      19.547  -9.824  37.067  1.00  0.00     0.038 A 
HETATM   12  C14 UNK     1      20.167  -6.625  35.333  1.00  0.00     0.304 A 
HETATM   13  O3  UNK     1      20.266  -6.204  34.185  1.00  0.00    -0.259 OA
HETATM   14  C19 UNK     1      19.429 -10.342  38.355  1.00  0.00     0.003 A 
HETATM   15  C18 UNK     1      19.562  -9.499  39.462  1.00  0.00     0.001 A 
ENDBRANCH   3   5
BRANCH   2  16
HETATM   16  C1  UNK     1      19.898  -2.298  35.057  1.00  0.00     0.117 C 
BRANCH  16  17
HETATM   17  C2  UNK     1      19.837  -2.066  33.537  1.00  0.00     0.025 C 
HETATM   18  C4  UNK     1      21.042  -2.649  32.808  1.00  0.00     0.007 C 
ENDBRANCH  16  17
BRANCH  16  19
HETATM   19  C3  UNK     1      18.824  -1.517  35.787  1.00  0.00    -0.035 A 
HETATM   20  C6  UNK     1      18.678  -1.687  37.152  1.00  0.00     0.009 A 
HETATM   21  C11 UNK     1      17.690  -0.968  37.824  1.00  0.00     0.001 A 
HETATM   22  C15 UNK     1      16.864  -0.092  37.119  1.00  0.00     0.000 A 
HETATM   23  C12 UNK     1      17.027   0.066  35.743  1.00  0.00     0.001 A 
HETATM   24  C7  UNK     1      18.016  -0.653  35.071  1.00  0.00     0.009 A 
ENDBRANCH  16  19
ENDBRANCH   2  16
TORSDOF 4
ENDMDL
