MODEL 1
REMARK VINA RESULT:      -8.6      0.000      0.000
REMARK  4 active torsions:
REMARK  status: ('A' for Active; 'I' for Inactive)
REMARK    1  A    between atoms: C18_27  and  O5_5 
REMARK    2  A    between atoms: C9_18  and  N1_7 
REMARK    3  A    between atoms: C10_19  and  N2_8 
REMARK    4  A    between atoms: C18_27  and  C9_18 
ROOT
HETATM    1  O1  UNK     1      30.717 -10.729  33.354  1.00  0.00    -0.291 OA
HETATM    2  O2  UNK     1      28.295  -7.807  31.613  1.00  0.00    -0.274 OA
HETATM    3  O3  UNK     1      27.687  -9.498  35.904  1.00  0.00    -0.271 OA
HETATM    4  O4  UNK     1      28.121  -6.718  33.595  1.00  0.00    -0.259 OA
HETATM    5  N1  UNK     1      28.517  -7.421  36.658  1.00  0.00    -0.307 N 
HETATM    6  N3  UNK     1      31.393  -9.890  38.038  1.00  0.00    -0.191 NA
HETATM    7  C1  UNK     1      29.834  -8.599  35.060  1.00  0.00     0.147 A 
HETATM    8  C2  UNK     1      30.448  -7.266  35.438  1.00  0.00    -0.003 A 
HETATM    9  C3  UNK     1      29.460  -8.700  33.590  1.00  0.00     0.080 A 
HETATM   10  C4  UNK     1      28.527  -8.610  35.906  1.00  0.00     0.248 A 
HETATM   11  C5  UNK     1      29.642  -6.627  36.384  1.00  0.00     0.046 A 
HETATM   12  C6  UNK     1      30.684  -9.774  35.545  1.00  0.00     0.100 A 
HETATM   13  C7  UNK     1      29.914  -9.726  32.849  1.00  0.00     0.105 A 
HETATM   14  C8  UNK     1      31.620  -6.679  34.989  1.00  0.00     0.011 A 
HETATM   15  C10 UNK     1      31.076 -10.753  34.697  1.00  0.00     0.160 A 
HETATM   16  C11 UNK     1      29.979  -5.391  36.910  1.00  0.00     0.030 A 
HETATM   17  C12 UNK     1      28.583  -7.664  32.967  1.00  0.00     0.299 A 
HETATM   18  C13 UNK     1      29.585  -9.854  31.431  1.00  0.00     0.033 A 
HETATM   19  C14 UNK     1      31.972  -5.431  35.509  1.00  0.00     0.001 A 
HETATM   20  C15 UNK     1      31.158  -4.794  36.461  1.00  0.00     0.002 A 
HETATM   21  C16 UNK     1      28.781  -8.882  30.850  1.00  0.00     0.092 A 
HETATM   22  C17 UNK     1      31.075  -9.838  36.923  1.00  0.00     0.101 C 
HETATM   23  C19 UNK     1      30.038 -10.903  30.620  1.00  0.00     0.017 A 
HETATM   24  C20 UNK     1      28.418  -8.923  29.503  1.00  0.00     0.038 A 
HETATM   25  C21 UNK     1      29.684 -10.961  29.268  1.00  0.00     0.001 A 
HETATM   26  C22 UNK     1      28.876  -9.971  28.711  1.00  0.00     0.003 A 
ENDROOT
BRANCH  15  27
HETATM   27  N2  UNK     1      31.838 -11.835  35.040  1.00  0.00    -0.379 N 
HETATM   28  H8  UNK     1      31.651 -12.359  35.885  1.00  0.00     0.158 HD
HETATM   29  H9  UNK     1      32.599 -12.107  34.432  1.00  0.00     0.158 HD
ENDBRANCH  15  27
BRANCH   5  30
HETATM   30  C9  UNK     1      27.480  -7.061  37.594  1.00  0.00     0.243 C 
BRANCH  30  31
HETATM   31  C18 UNK     1      27.894  -7.232  39.036  1.00  0.00     0.276 C 
HETATM   32  O6  UNK     1      28.119  -6.275  39.769  1.00  0.00    -0.263 OA
BRANCH  31  33
HETATM   33  O5  UNK     1      27.984  -8.541  39.400  1.00  0.00    -0.325 OA
HETATM   34  C23 UNK     1      26.747  -9.258  39.451  1.00  0.00     0.213 C 
ENDBRANCH  31  33
ENDBRANCH  30  31
ENDBRANCH   5  30
TORSDOF 4
ENDMDL
MODEL 2
REMARK VINA RESULT:      -8.5      2.304      2.671
REMARK  4 active torsions:
REMARK  status: ('A' for Active; 'I' for Inactive)
REMARK    1  A    between atoms: C18_27  and  O5_5 
REMARK    2  A    between atoms: C9_18  and  N1_7 
REMARK    3  A    between atoms: C10_19  and  N2_8 
REMARK    4  A    between atoms: C18_27  and  C9_18 
ROOT
HETATM    1  O1  UNK     1      31.998  -7.587  33.731  1.00  0.00    -0.291 OA
HETATM    2  O2  UNK     1      27.948  -6.722  33.197  1.00  0.00    -0.274 OA
HETATM    3  O3  UNK     1      29.603  -9.611  36.445  1.00  0.00    -0.271 OA
HETATM    4  O4  UNK     1      27.612  -6.735  35.440  1.00  0.00    -0.259 OA
HETATM    5  N1  UNK     1      29.086  -7.901  37.988  1.00  0.00    -0.307 N 
HETATM    6  N3  UNK     1      33.098  -8.046  38.387  1.00  0.00    -0.191 NA
HETATM    7  C1  UNK     1      30.415  -7.297  36.106  1.00  0.00     0.147 A 
HETATM    8  C2  UNK     1      30.118  -6.112  37.002  1.00  0.00    -0.003 A 
HETATM    9  C3  UNK     1      29.848  -7.154  34.702  1.00  0.00     0.080 A 
HETATM   10  C4  UNK     1      29.662  -8.452  36.829  1.00  0.00     0.248 A 
HETATM   11  C5  UNK     1      29.349  -6.526  38.093  1.00  0.00     0.046 A 
HETATM   12  C6  UNK     1      31.900  -7.661  36.118  1.00  0.00     0.100 A 
HETATM   13  C7  UNK     1      30.651  -7.300  33.634  1.00  0.00     0.105 A 
HETATM   14  C8  UNK     1      30.503  -4.788  36.866  1.00  0.00     0.011 A 
HETATM   15  C10 UNK     1      32.601  -7.784  34.968  1.00  0.00     0.160 A 
HETATM   16  C11 UNK     1      28.945  -5.639  39.076  1.00  0.00     0.030 A 
HETATM   17  C12 UNK     1      28.397  -6.857  34.507  1.00  0.00     0.299 A 
HETATM   18  C13 UNK     1      30.146  -7.161  32.269  1.00  0.00     0.033 A 
HETATM   19  C14 UNK     1      30.102  -3.881  37.849  1.00  0.00     0.001 A 
HETATM   20  C15 UNK     1      29.329  -4.303  38.944  1.00  0.00     0.002 A 
HETATM   21  C16 UNK     1      28.800  -6.872  32.090  1.00  0.00     0.092 A 
HETATM   22  C17 UNK     1      32.562  -7.874  37.372  1.00  0.00     0.101 C 
HETATM   23  C19 UNK     1      30.946  -7.301  31.128  1.00  0.00     0.017 A 
HETATM   24  C20 UNK     1      28.234  -6.720  30.824  1.00  0.00     0.038 A 
HETATM   25  C21 UNK     1      30.396  -7.152  29.850  1.00  0.00     0.001 A 
HETATM   26  C22 UNK     1      29.041  -6.862  29.700  1.00  0.00     0.003 A 
ENDROOT
BRANCH  15  27
HETATM   27  N2  UNK     1      33.929  -8.101  34.884  1.00  0.00    -0.379 N 
HETATM   28  H8  UNK     1      34.643  -7.436  35.151  1.00  0.00     0.158 HD
HETATM   29  H9  UNK     1      34.190  -9.019  34.547  1.00  0.00     0.158 HD
ENDBRANCH  15  27
BRANCH   5  30
HETATM   30  C9  UNK     1      28.320  -8.655  38.951  1.00  0.00     0.243 C 
BRANCH  30  31
HETATM   31  C18 UNK     1      26.882  -8.861  38.536  1.00  0.00     0.276 C 
HETATM   32  O6  UNK     1      26.034  -7.984  38.662  1.00  0.00    -0.263 OA
BRANCH  31  33
HETATM   33  O5  UNK     1      26.661 -10.103  38.025  1.00  0.00    -0.325 OA
HETATM   34  C23 UNK     1      26.128 -10.144  36.698  1.00  0.00     0.213 C 
ENDBRANCH  31  33
ENDBRANCH  30  31
ENDBRANCH   5  30
TORSDOF 4
ENDMDL
MODEL 3
REMARK VINA RESULT:      -8.5      2.615      3.103
REMARK  4 active torsions:
REMARK  status: ('A' for Active; 'I' for Inactive)
REMARK    1  A    between atoms: C18_27  and  O5_5 
REMARK    2  A    between atoms: C9_18  and  N1_7 
REMARK    3  A    between atoms: C10_19  and  N2_8 
REMARK    4  A    between atoms: C18_27  and  C9_18 
ROOT
HETATM    1  O1  UNK     1      33.731  -7.577  33.177  1.00  0.00    -0.291 OA
HETATM    2  O2  UNK     1      29.882  -6.468  31.998  1.00  0.00    -0.274 OA
HETATM    3  O3  UNK     1      30.839  -8.945  35.816  1.00  0.00    -0.271 OA
HETATM    4  O4  UNK     1      29.285  -6.103  34.156  1.00  0.00    -0.259 OA
HETATM    5  N1  UNK     1      30.325  -6.977  37.016  1.00  0.00    -0.307 N 
HETATM    6  N3  UNK     1      34.226  -7.395  37.953  1.00  0.00    -0.191 NA
HETATM    7  C1  UNK     1      31.919  -6.788  35.257  1.00  0.00     0.147 A 
HETATM    8  C2  UNK     1      31.643  -5.457  35.925  1.00  0.00    -0.003 A 
HETATM    9  C3  UNK     1      31.538  -6.819  33.785  1.00  0.00     0.080 A 
HETATM   10  C4  UNK     1      30.972  -7.749  36.034  1.00  0.00     0.248 A 
HETATM   11  C5  UNK     1      30.714  -5.630  36.955  1.00  0.00     0.046 A 
HETATM   12  C6  UNK     1      33.347  -7.269  35.516  1.00  0.00     0.100 A 
HETATM   13  C7  UNK     1      32.441  -7.196  32.863  1.00  0.00     0.105 A 
HETATM   14  C8  UNK     1      32.176  -4.208  35.652  1.00  0.00     0.011 A 
HETATM   15  C10 UNK     1      34.162  -7.629  34.497  1.00  0.00     0.160 A 
HETATM   16  C11 UNK     1      30.291  -4.570  37.738  1.00  0.00     0.030 A 
HETATM   17  C12 UNK     1      30.158  -6.435  33.361  1.00  0.00     0.299 A 
HETATM   18  C13 UNK     1      32.116  -7.230  31.438  1.00  0.00     0.033 A 
HETATM   19  C14 UNK     1      31.758  -3.128  36.433  1.00  0.00     0.001 A 
HETATM   20  C15 UNK     1      30.824  -3.308  37.467  1.00  0.00     0.002 A 
HETATM   21  C16 UNK     1      30.837  -6.859  31.045  1.00  0.00     0.092 A 
HETATM   22  C17 UNK     1      33.833  -7.339  36.863  1.00  0.00     0.101 C 
HETATM   23  C19 UNK     1      33.025  -7.613  30.444  1.00  0.00     0.017 A 
HETATM   24  C20 UNK     1      30.440  -6.860  29.707  1.00  0.00     0.038 A 
HETATM   25  C21 UNK     1      32.645  -7.619  29.097  1.00  0.00     0.001 A 
HETATM   26  C22 UNK     1      31.354  -7.242  28.730  1.00  0.00     0.003 A 
ENDROOT
BRANCH  15  27
HETATM   27  N2  UNK     1      35.450  -8.066  34.634  1.00  0.00    -0.379 N 
HETATM   28  H8  UNK     1      36.232  -7.476  34.378  1.00  0.00     0.158 HD
HETATM   29  H9  UNK     1      35.613  -8.996  34.998  1.00  0.00     0.158 HD
ENDBRANCH  15  27
BRANCH   5  30
HETATM   30  C9  UNK     1      29.378  -7.505  37.969  1.00  0.00     0.243 C 
BRANCH  30  31
HETATM   31  C18 UNK     1      28.009  -7.743  37.376  1.00  0.00     0.276 C 
HETATM   32  O6  UNK     1      27.295  -6.823  36.992  1.00  0.00    -0.263 OA
BRANCH  31  33
HETATM   33  O5  UNK     1      27.684  -9.064  37.329  1.00  0.00    -0.325 OA
HETATM   34  C23 UNK     1      27.424  -9.595  36.027  1.00  0.00     0.213 C 
ENDBRANCH  31  33
ENDBRANCH  30  31
ENDBRANCH   5  30
TORSDOF 4
ENDMDL
MODEL 4
REMARK VINA RESULT:      -8.4      2.905      7.215
REMARK  4 active torsions:
REMARK  status: ('A' for Active; 'I' for Inactive)
REMARK    1  A    between atoms: C18_27  and  O5_5 
REMARK    2  A    between atoms: C9_18  and  N1_7 
REMARK    3  A    between atoms: C10_19  and  N2_8 
REMARK    4  A    between atoms: C18_27  and  C9_18 
ROOT
HETATM    1  O1  UNK     1      31.192  -9.047  35.358  1.00  0.00    -0.291 OA
HETATM    2  O2  UNK     1      31.458  -4.922  34.765  1.00  0.00    -0.274 OA
HETATM    3  O3  UNK     1      33.055  -8.107  31.775  1.00  0.00    -0.271 OA
HETATM    4  O4  UNK     1      31.041  -5.176  32.550  1.00  0.00    -0.259 OA
HETATM    5  N1  UNK     1      31.212  -7.516  30.423  1.00  0.00    -0.307 N 
HETATM    6  N3  UNK     1      30.305 -11.361  31.241  1.00  0.00    -0.191 NA
HETATM    7  C1  UNK     1      30.754  -8.095  32.688  1.00  0.00     0.147 A 
HETATM    8  C2  UNK     1      29.501  -7.698  31.933  1.00  0.00    -0.003 A 
HETATM    9  C3  UNK     1      31.073  -7.179  33.859  1.00  0.00     0.080 A 
HETATM   10  C4  UNK     1      31.859  -7.919  31.606  1.00  0.00     0.248 A 
HETATM   11  C5  UNK     1      29.827  -7.383  30.611  1.00  0.00     0.046 A 
HETATM   12  C6  UNK     1      30.742  -9.575  33.071  1.00  0.00     0.100 A 
HETATM   13  C7  UNK     1      31.263  -7.695  35.085  1.00  0.00     0.105 A 
HETATM   14  C8  UNK     1      28.191  -7.633  32.377  1.00  0.00     0.011 A 
HETATM   15  C10 UNK     1      30.953  -9.971  34.347  1.00  0.00     0.160 A 
HETATM   16  C11 UNK     1      28.863  -6.996  29.697  1.00  0.00     0.030 A 
HETATM   17  C12 UNK     1      31.182  -5.704  33.648  1.00  0.00     0.299 A 
HETATM   18  C13 UNK     1      31.562  -6.847  36.238  1.00  0.00     0.033 A 
HETATM   19  C14 UNK     1      27.206  -7.243  31.466  1.00  0.00     0.001 A 
HETATM   20  C15 UNK     1      27.540  -6.927  30.139  1.00  0.00     0.002 A 
HETATM   21  C16 UNK     1      31.649  -5.475  36.043  1.00  0.00     0.092 A 
HETATM   22  C17 UNK     1      30.501 -10.562  32.059  1.00  0.00     0.101 C 
HETATM   23  C19 UNK     1      31.763  -7.341  37.533  1.00  0.00     0.017 A 
HETATM   24  C20 UNK     1      31.928  -4.591  37.085  1.00  0.00     0.038 A 
HETATM   25  C21 UNK     1      32.044  -6.470  38.591  1.00  0.00     0.001 A 
HETATM   26  C22 UNK     1      32.126  -5.096  38.366  1.00  0.00     0.003 A 
ENDROOT
BRANCH  15  27
HETATM   27  N2  UNK     1      30.956 -11.268  34.781  1.00  0.00    -0.379 N 
HETATM   28  H8  UNK     1      31.601 -11.578  35.496  1.00  0.00     0.158 HD
HETATM   29  H9  UNK     1      30.299 -11.919  34.372  1.00  0.00     0.158 HD
ENDBRANCH  15  27
BRANCH   5  30
HETATM   30  C9  UNK     1      31.887  -7.270  29.172  1.00  0.00     0.243 C 
BRANCH  30  31
HETATM   31  C18 UNK     1      32.270  -8.537  28.444  1.00  0.00     0.276 C 
HETATM   32  O6  UNK     1      33.309  -9.142  28.688  1.00  0.00    -0.263 OA
BRANCH  31  33
HETATM   33  O5  UNK     1      31.345  -8.904  27.515  1.00  0.00    -0.325 OA
HETATM   34  C23 UNK     1      30.424  -9.920  27.921  1.00  0.00     0.213 C 
ENDBRANCH  31  33
ENDBRANCH  30  31
ENDBRANCH   5  30
TORSDOF 4
ENDMDL
MODEL 5
REMARK VINA RESULT:      -8.2      2.727      7.156
REMARK  4 active torsions:
REMARK  status: ('A' for Active; 'I' for Inactive)
REMARK    1  A    between atoms: C18_27  and  O5_5 
REMARK    2  A    between atoms: C9_18  and  N1_7 
REMARK    3  A    between atoms: C10_19  and  N2_8 
REMARK    4  A    between atoms: C18_27  and  C9_18 
ROOT
HETATM    1  O1  UNK     1      32.460  -5.871  35.194  1.00  0.00    -0.291 OA
HETATM    2  O2  UNK     1      28.482  -6.776  36.086  1.00  0.00    -0.274 OA
HETATM    3  O3  UNK     1      30.069  -5.882  31.806  1.00  0.00    -0.271 OA
HETATM    4  O4  UNK     1      28.293  -7.993  34.180  1.00  0.00    -0.259 OA
HETATM    5  N1  UNK     1      29.817  -8.197  31.412  1.00  0.00    -0.307 N 
HETATM    6  N3  UNK     1      33.815  -7.830  31.020  1.00  0.00    -0.191 NA
HETATM    7  C1  UNK     1      31.069  -7.554  33.333  1.00  0.00     0.147 A 
HETATM    8  C2  UNK     1      30.944  -9.059  33.208  1.00  0.00    -0.003 A 
HETATM    9  C3  UNK     1      30.427  -6.994  34.593  1.00  0.00     0.080 A 
HETATM   10  C4  UNK     1      30.261  -7.053  32.101  1.00  0.00     0.248 A 
HETATM   11  C5  UNK     1      30.213  -9.377  32.059  1.00  0.00     0.046 A 
HETATM   12  C6  UNK     1      32.512  -7.086  33.137  1.00  0.00     0.100 A 
HETATM   13  C7  UNK     1      31.142  -6.214  35.422  1.00  0.00     0.105 A 
HETATM   14  C8  UNK     1      31.441 -10.055  34.032  1.00  0.00     0.011 A 
HETATM   15  C10 UNK     1      33.122  -6.293  34.047  1.00  0.00     0.160 A 
HETATM   16  C11 UNK     1      29.958 -10.689  31.701  1.00  0.00     0.030 A 
HETATM   17  C12 UNK     1      29.001  -7.305  34.908  1.00  0.00     0.299 A 
HETATM   18  C13 UNK     1      30.564  -5.664  36.647  1.00  0.00     0.033 A 
HETATM   19  C14 UNK     1      31.192 -11.384  33.684  1.00  0.00     0.001 A 
HETATM   20  C15 UNK     1      30.456 -11.698  32.528  1.00  0.00     0.002 A 
HETATM   21  C16 UNK     1      29.242  -5.966  36.946  1.00  0.00     0.092 A 
HETATM   22  C17 UNK     1      33.232  -7.497  31.967  1.00  0.00     0.101 C 
HETATM   23  C19 UNK     1      31.270  -4.850  37.542  1.00  0.00     0.017 A 
HETATM   24  C20 UNK     1      28.610  -5.486  38.094  1.00  0.00     0.038 A 
HETATM   25  C21 UNK     1      30.654  -4.360  38.698  1.00  0.00     0.001 A 
HETATM   26  C22 UNK     1      29.325  -4.679  38.973  1.00  0.00     0.003 A 
ENDROOT
BRANCH  15  27
HETATM   27  N2  UNK     1      34.406  -5.830  33.956  1.00  0.00    -0.379 N 
HETATM   28  H8  UNK     1      35.194  -6.457  34.053  1.00  0.00     0.158 HD
HETATM   29  H9  UNK     1      34.557  -4.844  33.790  1.00  0.00     0.158 HD
ENDBRANCH  15  27
BRANCH   5  30
HETATM   30  C9  UNK     1      29.048  -8.161  30.191  1.00  0.00     0.243 C 
BRANCH  30  31
HETATM   31  C18 UNK     1      29.905  -8.213  28.948  1.00  0.00     0.276 C 
HETATM   32  O6  UNK     1      30.708  -7.328  28.671  1.00  0.00    -0.263 OA
BRANCH  31  33
HETATM   33  O5  UNK     1      29.675  -9.329  28.203  1.00  0.00    -0.325 OA
HETATM   34  C23 UNK     1      28.404  -9.956  28.399  1.00  0.00     0.213 C 
ENDBRANCH  31  33
ENDBRANCH  30  31
ENDBRANCH   5  30
TORSDOF 4
ENDMDL
MODEL 6
REMARK VINA RESULT:      -8.2     32.419     34.612
REMARK  4 active torsions:
REMARK  status: ('A' for Active; 'I' for Inactive)
REMARK    1  A    between atoms: C18_27  and  O5_5 
REMARK    2  A    between atoms: C9_18  and  N1_7 
REMARK    3  A    between atoms: C10_19  and  N2_8 
REMARK    4  A    between atoms: C18_27  and  C9_18 
ROOT
HETATM    1  O1  UNK     1      17.889   9.207   9.452  1.00  0.00    -0.291 OA
HETATM    2  O2  UNK     1      16.045  12.896   8.799  1.00  0.00    -0.274 OA
HETATM    3  O3  UNK     1      14.160   8.792   7.686  1.00  0.00    -0.271 OA
HETATM    4  O4  UNK     1      14.024  12.025   9.351  1.00  0.00    -0.259 OA
HETATM    5  N1  UNK     1      12.723   9.144   9.525  1.00  0.00    -0.307 N 
HETATM    6  N3  UNK     1      14.704   5.860  10.775  1.00  0.00    -0.191 NA
HETATM    7  C1  UNK     1      15.063   9.340   9.925  1.00  0.00     0.147 A 
HETATM    8  C2  UNK     1      14.243   9.625  11.167  1.00  0.00    -0.003 A 
HETATM    9  C3  UNK     1      15.887  10.528   9.456  1.00  0.00     0.080 A 
HETATM   10  C4  UNK     1      13.961   9.052   8.863  1.00  0.00     0.248 A 
HETATM   11  C5  UNK     1      12.883   9.482  10.878  1.00  0.00     0.046 A 
HETATM   12  C6  UNK     1      15.885   8.059  10.068  1.00  0.00     0.100 A 
HETATM   13  C7  UNK     1      17.210  10.393   9.258  1.00  0.00     0.105 A 
HETATM   14  C8  UNK     1      14.667   9.969  12.440  1.00  0.00     0.011 A 
HETATM   15  C10 UNK     1      17.217   8.051   9.834  1.00  0.00     0.160 A 
HETATM   16  C11 UNK     1      11.911   9.677  11.843  1.00  0.00     0.030 A 
HETATM   17  C12 UNK     1      15.229  11.846   9.209  1.00  0.00     0.299 A 
HETATM   18  C13 UNK     1      18.039  11.514   8.817  1.00  0.00     0.033 A 
HETATM   19  C14 UNK     1      13.697  10.170  13.425  1.00  0.00     0.001 A 
HETATM   20  C15 UNK     1      12.331  10.025  13.129  1.00  0.00     0.002 A 
HETATM   21  C16 UNK     1      17.427  12.742   8.601  1.00  0.00     0.092 A 
HETATM   22  C17 UNK     1      15.232   6.844  10.459  1.00  0.00     0.101 C 
HETATM   23  C19 UNK     1      19.420  11.420   8.601  1.00  0.00     0.017 A 
HETATM   24  C20 UNK     1      18.141  13.865   8.181  1.00  0.00     0.038 A 
HETATM   25  C21 UNK     1      20.152  12.536   8.181  1.00  0.00     0.001 A 
HETATM   26  C22 UNK     1      19.512  13.757   7.971  1.00  0.00     0.003 A 
ENDROOT
BRANCH  15  27
HETATM   27  N2  UNK     1      18.031   6.957   9.940  1.00  0.00    -0.379 N 
HETATM   28  H8  UNK     1      18.014   6.224   9.243  1.00  0.00     0.158 HD
HETATM   29  H9  UNK     1      18.654   6.889  10.734  1.00  0.00     0.158 HD
ENDBRANCH  15  27
BRANCH   5  30
HETATM   30  C9  UNK     1      11.446   8.918   8.892  1.00  0.00     0.243 C 
BRANCH  30  31
HETATM   31  C18 UNK     1      11.160   7.457   8.632  1.00  0.00     0.276 C 
HETATM   32  O6  UNK     1      11.325   6.597   9.491  1.00  0.00    -0.263 OA
BRANCH  31  33
HETATM   33  O5  UNK     1      10.715   7.232   7.366  1.00  0.00    -0.325 OA
HETATM   34  C23 UNK     1      11.589   6.475   6.524  1.00  0.00     0.213 C 
ENDBRANCH  31  33
ENDBRANCH  30  31
ENDBRANCH   5  30
TORSDOF 4
ENDMDL
MODEL 7
REMARK VINA RESULT:      -8.1      3.090      6.649
REMARK  4 active torsions:
REMARK  status: ('A' for Active; 'I' for Inactive)
REMARK    1  A    between atoms: C18_27  and  O5_5 
REMARK    2  A    between atoms: C9_18  and  N1_7 
REMARK    3  A    between atoms: C10_19  and  N2_8 
REMARK    4  A    between atoms: C18_27  and  C9_18 
ROOT
HETATM    1  O1  UNK     1      28.034  -7.104  35.240  1.00  0.00    -0.291 OA
HETATM    2  O2  UNK     1      30.720  -9.077  37.756  1.00  0.00    -0.274 OA
HETATM    3  O3  UNK     1      31.095  -8.932  33.122  1.00  0.00    -0.271 OA
HETATM    4  O4  UNK     1      32.466  -8.435  36.457  1.00  0.00    -0.259 OA
HETATM    5  N1  UNK     1      32.882  -7.432  33.483  1.00  0.00    -0.307 N 
HETATM    6  N3  UNK     1      30.294  -5.018  31.547  1.00  0.00    -0.191 NA
HETATM    7  C1  UNK     1      30.814  -6.931  34.553  1.00  0.00     0.147 A 
HETATM    8  C2  UNK     1      31.893  -5.921  34.889  1.00  0.00    -0.003 A 
HETATM    9  C3  UNK     1      30.300  -7.695  35.762  1.00  0.00     0.080 A 
HETATM   10  C4  UNK     1      31.572  -7.925  33.625  1.00  0.00     0.248 A 
HETATM   11  C5  UNK     1      33.077  -6.257  34.225  1.00  0.00     0.046 A 
HETATM   12  C6  UNK     1      29.695  -6.310  33.716  1.00  0.00     0.100 A 
HETATM   13  C7  UNK     1      28.982  -7.730  36.026  1.00  0.00     0.105 A 
HETATM   14  C8  UNK     1      31.827  -4.801  35.702  1.00  0.00     0.011 A 
HETATM   15  C10 UNK     1      28.399  -6.420  34.086  1.00  0.00     0.160 A 
HETATM   16  C11 UNK     1      34.222  -5.490  34.351  1.00  0.00     0.030 A 
HETATM   17  C12 UNK     1      31.256  -8.413  36.657  1.00  0.00     0.299 A 
HETATM   18  C13 UNK     1      28.449  -8.446  37.184  1.00  0.00     0.033 A 
HETATM   19  C14 UNK     1      32.975  -4.018  35.839  1.00  0.00     0.001 A 
HETATM   20  C15 UNK     1      34.162  -4.361  35.169  1.00  0.00     0.002 A 
HETATM   21  C16 UNK     1      29.341  -9.101  38.022  1.00  0.00     0.092 A 
HETATM   22  C17 UNK     1      30.026  -5.596  32.517  1.00  0.00     0.101 C 
HETATM   23  C19 UNK     1      27.085  -8.506  37.498  1.00  0.00     0.017 A 
HETATM   24  C20 UNK     1      28.921  -9.807  39.150  1.00  0.00     0.038 A 
HETATM   25  C21 UNK     1      26.645  -9.209  38.626  1.00  0.00     0.001 A 
HETATM   26  C22 UNK     1      27.563  -9.858  39.450  1.00  0.00     0.003 A 
ENDROOT
BRANCH  15  27
HETATM   27  N2  UNK     1      27.336  -5.895  33.404  1.00  0.00    -0.379 N 
HETATM   28  H8  UNK     1      26.932  -5.006  33.670  1.00  0.00     0.158 HD
HETATM   29  H9  UNK     1      26.955  -6.413  32.623  1.00  0.00     0.158 HD
ENDBRANCH  15  27
BRANCH   5  30
HETATM   30  C9  UNK     1      33.901  -8.057  32.674  1.00  0.00     0.243 C 
BRANCH  30  31
HETATM   31  C18 UNK     1      34.672  -9.127  33.411  1.00  0.00     0.276 C 
HETATM   32  O6  UNK     1      34.221 -10.256  33.581  1.00  0.00    -0.263 OA
BRANCH  31  33
HETATM   33  O5  UNK     1      35.885  -8.690  33.846  1.00  0.00    -0.325 OA
HETATM   34  C23 UNK     1      36.625  -7.886  32.922  1.00  0.00     0.213 C 
ENDBRANCH  31  33
ENDBRANCH  30  31
ENDBRANCH   5  30
TORSDOF 4
ENDMDL
MODEL 8
REMARK VINA RESULT:      -8.0      3.374      7.005
REMARK  4 active torsions:
REMARK  status: ('A' for Active; 'I' for Inactive)
REMARK    1  A    between atoms: C18_27  and  O5_5 
REMARK    2  A    between atoms: C9_18  and  N1_7 
REMARK    3  A    between atoms: C10_19  and  N2_8 
REMARK    4  A    between atoms: C18_27  and  C9_18 
ROOT
HETATM    1  O1  UNK     1      29.297  -8.065  35.551  1.00  0.00    -0.291 OA
HETATM    2  O2  UNK     1      32.027  -4.908  35.670  1.00  0.00    -0.274 OA
HETATM    3  O3  UNK     1      33.166  -9.322  34.746  1.00  0.00    -0.271 OA
HETATM    4  O4  UNK     1      33.167  -5.779  33.913  1.00  0.00    -0.259 OA
HETATM    5  N1  UNK     1      33.441  -8.606  32.513  1.00  0.00    -0.307 N 
HETATM    6  N3  UNK     1      30.379 -11.195  32.068  1.00  0.00    -0.191 NA
HETATM    7  C1  UNK     1      31.374  -8.079  33.573  1.00  0.00     0.147 A 
HETATM    8  C2  UNK     1      31.449  -7.535  32.160  1.00  0.00    -0.003 A 
HETATM    9  C3  UNK     1      31.238  -6.997  34.633  1.00  0.00     0.080 A 
HETATM   10  C4  UNK     1      32.764  -8.760  33.736  1.00  0.00     0.248 A 
HETATM   11  C5  UNK     1      32.673  -7.885  31.584  1.00  0.00     0.046 A 
HETATM   12  C6  UNK     1      30.323  -9.181  33.704  1.00  0.00     0.100 A 
HETATM   13  C7  UNK     1      30.236  -7.053  35.527  1.00  0.00     0.105 A 
HETATM   14  C8  UNK     1      30.511  -6.806  31.448  1.00  0.00     0.011 A 
HETATM   15  C10 UNK     1      29.363  -9.125  34.655  1.00  0.00     0.160 A 
HETATM   16  C11 UNK     1      32.997  -7.521  30.289  1.00  0.00     0.030 A 
HETATM   17  C12 UNK     1      32.220  -5.873  34.687  1.00  0.00     0.299 A 
HETATM   18  C13 UNK     1      30.066  -6.028  36.555  1.00  0.00     0.033 A 
HETATM   19  C14 UNK     1      30.824  -6.431  30.140  1.00  0.00     0.001 A 
HETATM   20  C15 UNK     1      32.056  -6.785  29.566  1.00  0.00     0.002 A 
HETATM   21  C16 UNK     1      30.972  -4.977  36.595  1.00  0.00     0.092 A 
HETATM   22  C17 UNK     1      30.354 -10.294  32.800  1.00  0.00     0.101 C 
HETATM   23  C19 UNK     1      29.036  -6.044  37.505  1.00  0.00     0.017 A 
HETATM   24  C20 UNK     1      30.884  -3.954  37.540  1.00  0.00     0.038 A 
HETATM   25  C21 UNK     1      28.932  -5.027  38.460  1.00  0.00     0.001 A 
HETATM   26  C22 UNK     1      29.856  -3.984  38.476  1.00  0.00     0.003 A 
ENDROOT
BRANCH  15  27
HETATM   27  N2  UNK     1      28.382 -10.061  34.842  1.00  0.00    -0.379 N 
HETATM   28  H8  UNK     1      28.222 -10.793  34.163  1.00  0.00     0.158 HD
HETATM   29  H9  UNK     1      27.814 -10.010  35.677  1.00  0.00     0.158 HD
ENDBRANCH  15  27
BRANCH   5  30
HETATM   30  C9  UNK     1      34.761  -9.124  32.244  1.00  0.00     0.243 C 
BRANCH  30  31
HETATM   31  C18 UNK     1      35.865  -8.174  32.645  1.00  0.00     0.276 C 
HETATM   32  O6  UNK     1      36.246  -7.269  31.910  1.00  0.00    -0.263 OA
BRANCH  31  33
HETATM   33  O5  UNK     1      36.363  -8.448  33.882  1.00  0.00    -0.325 OA
HETATM   34  C23 UNK     1      37.006  -7.358  34.549  1.00  0.00     0.213 C 
ENDBRANCH  31  33
ENDBRANCH  30  31
ENDBRANCH   5  30
TORSDOF 4
ENDMDL
MODEL 9
REMARK VINA RESULT:      -8.0      3.692      7.651
REMARK  4 active torsions:
REMARK  status: ('A' for Active; 'I' for Inactive)
REMARK    1  A    between atoms: C18_27  and  O5_5 
REMARK    2  A    between atoms: C9_18  and  N1_7 
REMARK    3  A    between atoms: C10_19  and  N2_8 
REMARK    4  A    between atoms: C18_27  and  C9_18 
ROOT
HETATM    1  O1  UNK     1      34.308  -6.327  33.275  1.00  0.00    -0.291 OA
HETATM    2  O2  UNK     1      30.318  -7.241  34.098  1.00  0.00    -0.274 OA
HETATM    3  O3  UNK     1      32.036  -6.632  29.819  1.00  0.00    -0.271 OA
HETATM    4  O4  UNK     1      30.215  -8.597  32.283  1.00  0.00    -0.259 OA
HETATM    5  N1  UNK     1      31.837  -8.973  29.589  1.00  0.00    -0.307 N 
HETATM    6  N3  UNK     1      35.839  -8.559  29.304  1.00  0.00    -0.191 NA
HETATM    7  C1  UNK     1      33.011  -8.168  31.498  1.00  0.00     0.147 A 
HETATM    8  C2  UNK     1      32.915  -9.681  31.480  1.00  0.00    -0.003 A 
HETATM    9  C3  UNK     1      32.317  -7.530  32.691  1.00  0.00     0.080 A 
HETATM   10  C4  UNK     1      32.238  -7.774  30.206  1.00  0.00     0.248 A 
HETATM   11  C5  UNK     1      32.230 -10.096  30.334  1.00  0.00     0.046 A 
HETATM   12  C6  UNK     1      34.451  -7.688  31.316  1.00  0.00     0.100 A 
HETATM   13  C7  UNK     1      32.989  -6.678  33.484  1.00  0.00     0.105 A 
HETATM   14  C8  UNK     1      33.400 -10.604  32.391  1.00  0.00     0.011 A 
HETATM   15  C10 UNK     1      35.016  -6.819  32.185  1.00  0.00     0.160 A 
HETATM   16  C11 UNK     1      32.010 -11.435  30.065  1.00  0.00     0.030 A 
HETATM   17  C12 UNK     1      30.886  -7.845  32.981  1.00  0.00     0.299 A 
HETATM   18  C13 UNK     1      32.360  -6.052  34.646  1.00  0.00     0.033 A 
HETATM   19  C14 UNK     1      33.185 -11.960  32.133  1.00  0.00     0.001 A 
HETATM   20  C15 UNK     1      32.496 -12.371  30.980  1.00  0.00     0.002 A 
HETATM   21  C16 UNK     1      31.033  -6.356  34.922  1.00  0.00     0.092 A 
HETATM   22  C17 UNK     1      35.218  -8.169  30.204  1.00  0.00     0.101 C 
HETATM   23  C19 UNK     1      33.021  -5.161  35.501  1.00  0.00     0.017 A 
HETATM   24  C20 UNK     1      30.354  -5.806  36.010  1.00  0.00     0.038 A 
HETATM   25  C21 UNK     1      32.357  -4.600  36.597  1.00  0.00     0.001 A 
HETATM   26  C22 UNK     1      31.025  -4.923  36.850  1.00  0.00     0.003 A 
ENDROOT
BRANCH  15  27
HETATM   27  N2  UNK     1      36.295  -6.340  32.103  1.00  0.00    -0.379 N 
HETATM   28  H8  UNK     1      36.495  -5.462  31.643  1.00  0.00     0.158 HD
HETATM   29  H9  UNK     1      37.044  -6.882  32.513  1.00  0.00     0.158 HD
ENDBRANCH  15  27
BRANCH   5  30
HETATM   30  C9  UNK     1      31.110  -9.041  28.344  1.00  0.00     0.243 C 
BRANCH  30  31
HETATM   31  C18 UNK     1      29.630  -9.281  28.531  1.00  0.00     0.276 C 
HETATM   32  O6  UNK     1      29.078 -10.299  28.128  1.00  0.00    -0.263 OA
BRANCH  31  33
HETATM   33  O5  UNK     1      29.015  -8.255  29.181  1.00  0.00    -0.325 OA
HETATM   34  C23 UNK     1      27.778  -8.578  29.822  1.00  0.00     0.213 C 
ENDBRANCH  31  33
ENDBRANCH  30  31
ENDBRANCH   5  30
TORSDOF 4
ENDMDL
MODEL 10
REMARK VINA RESULT:      -8.0      2.098      2.254
REMARK  4 active torsions:
REMARK  status: ('A' for Active; 'I' for Inactive)
REMARK    1  A    between atoms: C18_27  and  O5_5 
REMARK    2  A    between atoms: C9_18  and  N1_7 
REMARK    3  A    between atoms: C10_19  and  N2_8 
REMARK    4  A    between atoms: C18_27  and  C9_18 
ROOT
HETATM    1  O1  UNK     1      31.974 -10.271  33.956  1.00  0.00    -0.291 OA
HETATM    2  O2  UNK     1      31.422  -6.492  32.268  1.00  0.00    -0.274 OA
HETATM    3  O3  UNK     1      28.600  -8.378  35.449  1.00  0.00    -0.271 OA
HETATM    4  O4  UNK     1      30.716  -5.665  34.259  1.00  0.00    -0.259 OA
HETATM    5  N1  UNK     1      29.553  -6.836  36.962  1.00  0.00    -0.307 N 
HETATM    6  N3  UNK     1      30.772 -10.311  38.608  1.00  0.00    -0.191 NA
HETATM    7  C1  UNK     1      31.056  -8.195  35.709  1.00  0.00     0.147 A 
HETATM    8  C2  UNK     1      31.783  -7.221  36.615  1.00  0.00    -0.003 A 
HETATM    9  C3  UNK     1      31.337  -7.975  34.231  1.00  0.00     0.080 A 
HETATM   10  C4  UNK     1      29.563  -7.849  35.986  1.00  0.00     0.248 A 
HETATM   11  C5  UNK     1      30.854  -6.462  37.333  1.00  0.00     0.046 A 
HETATM   12  C6  UNK     1      31.263  -9.644  36.150  1.00  0.00     0.100 A 
HETATM   13  C7  UNK     1      31.769  -8.995  33.470  1.00  0.00     0.105 A 
HETATM   14  C8  UNK     1      33.144  -7.034  36.793  1.00  0.00     0.011 A 
HETATM   15  C10 UNK     1      31.700 -10.585  35.282  1.00  0.00     0.160 A 
HETATM   16  C11 UNK     1      31.252  -5.499  38.244  1.00  0.00     0.030 A 
HETATM   17  C12 UNK     1      31.129  -6.627  33.621  1.00  0.00     0.299 A 
HETATM   18  C13 UNK     1      32.060  -8.822  32.047  1.00  0.00     0.033 A 
HETATM   19  C14 UNK     1      33.561  -6.065  37.708  1.00  0.00     0.001 A 
HETATM   20  C15 UNK     1      32.623  -5.305  38.427  1.00  0.00     0.002 A 
HETATM   21  C16 UNK     1      31.879  -7.565  31.485  1.00  0.00     0.092 A 
HETATM   22  C17 UNK     1      30.992 -10.013  37.509  1.00  0.00     0.101 C 
HETATM   23  C19 UNK     1      32.515  -9.854  31.217  1.00  0.00     0.017 A 
HETATM   24  C20 UNK     1      32.133  -7.309  30.137  1.00  0.00     0.038 A 
HETATM   25  C21 UNK     1      32.776  -9.616  29.863  1.00  0.00     0.001 A 
HETATM   26  C22 UNK     1      32.585  -8.344  29.325  1.00  0.00     0.003 A 
ENDROOT
BRANCH  15  27
HETATM   27  N2  UNK     1      31.918 -11.900  35.587  1.00  0.00    -0.379 N 
HETATM   28  H8  UNK     1      32.588 -12.453  35.069  1.00  0.00     0.158 HD
HETATM   29  H9  UNK     1      31.393 -12.317  36.346  1.00  0.00     0.158 HD
ENDBRANCH  15  27
BRANCH   5  30
HETATM   30  C9  UNK     1      28.354  -6.252  37.514  1.00  0.00     0.243 C 
BRANCH  30  31
HETATM   31  C18 UNK     1      27.483  -7.254  38.236  1.00  0.00     0.276 C 
HETATM   32  O6  UNK     1      26.333  -7.492  37.883  1.00  0.00    -0.263 OA
BRANCH  31  33
HETATM   33  O5  UNK     1      28.120  -7.833  39.290  1.00  0.00    -0.325 OA
HETATM   34  C23 UNK     1      27.580  -9.080  39.735  1.00  0.00     0.213 C 
ENDBRANCH  31  33
ENDBRANCH  30  31
ENDBRANCH   5  30
TORSDOF 4
ENDMDL
