MODEL 1
REMARK VINA RESULT:      -8.5      0.000      0.000
REMARK  1 active torsions:
REMARK  status: ('A' for Active; 'I' for Inactive)
REMARK    1  A    between atoms: C3_6  and  C7_10 
ROOT
HETATM    1  O1  UNK     1      18.976   3.397  30.615  1.00  0.00    -0.309 OA
HETATM    2  O2  UNK     1      17.859   2.939  34.506  1.00  0.00    -0.287 OA
HETATM    3  C1  UNK     1      18.237   4.410  32.695  1.00  0.00     0.048 A 
HETATM    4  C2  UNK     1      18.627   4.495  31.359  1.00  0.00     0.090 A 
HETATM    5  C3  UNK     1      18.947   2.151  31.222  1.00  0.00     0.091 A 
HETATM    6  C4  UNK     1      17.892   5.562  33.405  1.00  0.00     0.025 A 
HETATM    7  C5  UNK     1      17.940   6.803  32.768  1.00  0.00    -0.061 A 
HETATM    8  C6  UNK     1      18.194   3.089  33.339  1.00  0.00     0.187 A 
HETATM    9  C8  UNK     1      18.583   1.939  32.496  1.00  0.00     0.093 A 
HETATM   10  C9  UNK     1      18.674   5.737  30.725  1.00  0.00     0.039 A 
HETATM   11  C10 UNK     1      18.331   6.890  31.431  1.00  0.00     0.009 A 
HETATM   12  C11 UNK     1      17.574   8.040  33.517  1.00  0.00     0.048 C 
ENDROOT
BRANCH   5  13
HETATM   13  C7  UNK     1      19.334   1.040  30.329  1.00  0.00     0.020 A 
HETATM   14  C12 UNK     1      18.813   0.896  29.039  1.00  0.00     0.047 A 
HETATM   15 Cl1  UNK     1      17.668   2.017  28.392  1.00  0.00    -0.083 Cl
HETATM   16  C14 UNK     1      19.211  -0.173  28.235  1.00  0.00     0.025 A 
HETATM   17  C16 UNK     1      20.134  -1.102  28.717  1.00  0.00     0.002 A 
HETATM   18  C15 UNK     1      20.657  -0.964  30.001  1.00  0.00     0.001 A 
HETATM   19  C13 UNK     1      20.258   0.104  30.806  1.00  0.00     0.016 A 
ENDBRANCH   5  13
TORSDOF 1
ENDMDL
MODEL 2
REMARK VINA RESULT:      -8.2      2.577      6.873
REMARK  1 active torsions:
REMARK  status: ('A' for Active; 'I' for Inactive)
REMARK    1  A    between atoms: C3_6  and  C7_10 
ROOT
HETATM    1  O1  UNK     1      18.931   6.438  31.669  1.00  0.00    -0.309 OA
HETATM    2  O2  UNK     1      17.894   3.289  34.035  1.00  0.00    -0.287 OA
HETATM    3  C1  UNK     1      18.413   4.074  31.868  1.00  0.00     0.048 A 
HETATM    4  C2  UNK     1      18.768   5.193  31.116  1.00  0.00     0.090 A 
HETATM    5  C3  UNK     1      18.725   6.589  33.031  1.00  0.00     0.091 A 
HETATM    6  C4  UNK     1      18.260   2.829  31.252  1.00  0.00     0.025 A 
HETATM    7  C5  UNK     1      18.465   2.712  29.877  1.00  0.00    -0.061 A 
HETATM    8  C6  UNK     1      18.204   4.227  33.315  1.00  0.00     0.187 A 
HETATM    9  C8  UNK     1      18.388   5.588  33.860  1.00  0.00     0.093 A 
HETATM   10  C9  UNK     1      18.973   5.074  29.742  1.00  0.00     0.039 A 
HETATM   11  C10 UNK     1      18.821   3.832  29.123  1.00  0.00     0.009 A 
HETATM   12  C11 UNK     1      18.305   1.388  29.209  1.00  0.00     0.048 C 
ENDROOT
BRANCH   5  13
HETATM   13  C7  UNK     1      18.934   7.967  33.520  1.00  0.00     0.020 A 
HETATM   14  C12 UNK     1      17.936   8.945  33.460  1.00  0.00     0.047 A 
HETATM   15 Cl1  UNK     1      16.373   8.607  32.802  1.00  0.00    -0.083 Cl
HETATM   16  C14 UNK     1      18.184  10.233  33.934  1.00  0.00     0.025 A 
HETATM   17  C16 UNK     1      19.432  10.550  34.473  1.00  0.00     0.002 A 
HETATM   18  C15 UNK     1      20.430   9.579  34.536  1.00  0.00     0.001 A 
HETATM   19  C13 UNK     1      20.183   8.291  34.061  1.00  0.00     0.016 A 
ENDBRANCH   5  13
TORSDOF 1
ENDMDL
MODEL 3
REMARK VINA RESULT:      -8.1      4.711      6.399
REMARK  1 active torsions:
REMARK  status: ('A' for Active; 'I' for Inactive)
REMARK    1  A    between atoms: C3_6  and  C7_10 
ROOT
HETATM    1  O1  UNK     1      17.493   8.932  33.062  1.00  0.00    -0.309 OA
HETATM    2  O2  UNK     1      13.907   7.204  33.929  1.00  0.00    -0.287 OA
HETATM    3  C1  UNK     1      15.295   9.111  34.078  1.00  0.00     0.048 A 
HETATM    4  C2  UNK     1      16.542   9.642  33.749  1.00  0.00     0.090 A 
HETATM    5  C3  UNK     1      17.205   7.629  32.688  1.00  0.00     0.091 A 
HETATM    6  C4  UNK     1      14.363   9.880  34.780  1.00  0.00     0.025 A 
HETATM    7  C5  UNK     1      14.688  11.186  35.149  1.00  0.00    -0.061 A 
HETATM    8  C6  UNK     1      14.981   7.733  33.675  1.00  0.00     0.187 A 
HETATM    9  C8  UNK     1      16.041   7.010  32.942  1.00  0.00     0.093 A 
HETATM   10  C9  UNK     1      16.863  10.948  34.118  1.00  0.00     0.039 A 
HETATM   11  C10 UNK     1      15.935  11.719  34.819  1.00  0.00     0.009 A 
HETATM   12  C11 UNK     1      13.700  12.016  35.898  1.00  0.00     0.048 C 
ENDROOT
BRANCH   5  13
HETATM   13  C7  UNK     1      18.296   6.961  31.950  1.00  0.00     0.020 A 
HETATM   14  C12 UNK     1      19.525   6.651  32.542  1.00  0.00     0.047 A 
HETATM   15 Cl1  UNK     1      19.856   7.031  34.196  1.00  0.00    -0.083 Cl
HETATM   16  C14 UNK     1      20.524   6.021  31.801  1.00  0.00     0.025 A 
HETATM   17  C16 UNK     1      20.300   5.696  30.462  1.00  0.00     0.002 A 
HETATM   18  C15 UNK     1      19.077   6.002  29.867  1.00  0.00     0.001 A 
HETATM   19  C13 UNK     1      18.078   6.633  30.607  1.00  0.00     0.016 A 
ENDBRANCH   5  13
TORSDOF 1
ENDMDL
MODEL 4
REMARK VINA RESULT:      -7.9      2.488      4.089
REMARK  1 active torsions:
REMARK  status: ('A' for Active; 'I' for Inactive)
REMARK    1  A    between atoms: C3_6  and  C7_10 
ROOT
HETATM    1  O1  UNK     1      16.581   5.845  32.511  1.00  0.00    -0.309 OA
HETATM    2  O2  UNK     1      19.061   7.719  35.144  1.00  0.00    -0.287 OA
HETATM    3  C1  UNK     1      16.938   7.639  34.108  1.00  0.00     0.048 A 
HETATM    4  C2  UNK     1      16.142   6.949  33.195  1.00  0.00     0.090 A 
HETATM    5  C3  UNK     1      17.876   5.401  32.733  1.00  0.00     0.091 A 
HETATM    6  C4  UNK     1      16.438   8.759  34.777  1.00  0.00     0.025 A 
HETATM    7  C5  UNK     1      15.134   9.185  34.525  1.00  0.00    -0.061 A 
HETATM    8  C6  UNK     1      18.308   7.165  34.354  1.00  0.00     0.187 A 
HETATM    9  C8  UNK     1      18.734   5.974  33.591  1.00  0.00     0.093 A 
HETATM   10  C9  UNK     1      14.838   7.377  32.945  1.00  0.00     0.039 A 
HETATM   11  C10 UNK     1      14.335   8.496  33.610  1.00  0.00     0.009 A 
HETATM   12  C11 UNK     1      14.590  10.380  35.233  1.00  0.00     0.048 C 
ENDROOT
BRANCH   5  13
HETATM   13  C7  UNK     1      18.241   4.203  31.951  1.00  0.00     0.020 A 
HETATM   14  C12 UNK     1      18.715   4.279  30.636  1.00  0.00     0.047 A 
HETATM   15 Cl1  UNK     1      18.907   5.794  29.828  1.00  0.00    -0.083 Cl
HETATM   16  C14 UNK     1      19.045   3.116  29.940  1.00  0.00     0.025 A 
HETATM   17  C16 UNK     1      18.905   1.871  30.554  1.00  0.00     0.002 A 
HETATM   18  C15 UNK     1      18.434   1.789  31.864  1.00  0.00     0.001 A 
HETATM   19  C13 UNK     1      18.102   2.951  32.560  1.00  0.00     0.016 A 
ENDBRANCH   5  13
TORSDOF 1
ENDMDL
MODEL 5
REMARK VINA RESULT:      -7.8      2.378      6.734
REMARK  1 active torsions:
REMARK  status: ('A' for Active; 'I' for Inactive)
REMARK    1  A    between atoms: C3_6  and  C7_10 
ROOT
HETATM    1  O1  UNK     1      17.933   3.887  33.262  1.00  0.00    -0.309 OA
HETATM    2  O2  UNK     1      18.984   2.757  29.492  1.00  0.00    -0.287 OA
HETATM    3  C1  UNK     1      18.594   2.119  31.734  1.00  0.00     0.048 A 
HETATM    4  C2  UNK     1      18.226   2.573  33.000  1.00  0.00     0.090 A 
HETATM    5  C3  UNK     1      18.014   4.802  32.224  1.00  0.00     0.091 A 
HETATM    6  C4  UNK     1      18.882   0.768  31.524  1.00  0.00     0.025 A 
HETATM    7  C5  UNK     1      18.799  -0.126  32.592  1.00  0.00    -0.061 A 
HETATM    8  C6  UNK     1      18.671   3.085  30.629  1.00  0.00     0.187 A 
HETATM    9  C8  UNK     1      18.349   4.488  30.964  1.00  0.00     0.093 A 
HETATM   10  C9  UNK     1      18.144   1.677  34.065  1.00  0.00     0.039 A 
HETATM   11  C10 UNK     1      18.431   0.327  33.860  1.00  0.00     0.009 A 
HETATM   12  C11 UNK     1      19.104  -1.571  32.379  1.00  0.00     0.048 C 
ENDROOT
BRANCH   5  13
HETATM   13  C7  UNK     1      17.672   6.185  32.616  1.00  0.00     0.020 A 
HETATM   14  C12 UNK     1      18.637   7.111  33.027  1.00  0.00     0.047 A 
HETATM   15 Cl1  UNK     1      20.314   6.699  33.104  1.00  0.00    -0.083 Cl
HETATM   16  C14 UNK     1      18.261   8.404  33.388  1.00  0.00     0.025 A 
HETATM   17  C16 UNK     1      16.918   8.780  33.340  1.00  0.00     0.002 A 
HETATM   18  C15 UNK     1      15.952   7.862  32.932  1.00  0.00     0.001 A 
HETATM   19  C13 UNK     1      16.327   6.568  32.571  1.00  0.00     0.016 A 
ENDBRANCH   5  13
TORSDOF 1
ENDMDL
MODEL 6
REMARK VINA RESULT:      -7.8      2.657      4.388
REMARK  1 active torsions:
REMARK  status: ('A' for Active; 'I' for Inactive)
REMARK    1  A    between atoms: C3_6  and  C7_10 
ROOT
HETATM    1  O1  UNK     1      18.871  -0.193  33.294  1.00  0.00    -0.309 OA
HETATM    2  O2  UNK     1      18.048   3.734  34.002  1.00  0.00    -0.287 OA
HETATM    3  C1  UNK     1      18.245   1.545  34.871  1.00  0.00     0.048 A 
HETATM    4  C2  UNK     1      18.538   0.218  34.560  1.00  0.00     0.090 A 
HETATM    5  C3  UNK     1      18.907   0.753  32.281  1.00  0.00     0.091 A 
HETATM    6  C4  UNK     1      17.912   1.907  36.179  1.00  0.00     0.025 A 
HETATM    7  C5  UNK     1      17.876   0.931  37.175  1.00  0.00    -0.061 A 
HETATM    8  C6  UNK     1      18.292   2.552  33.801  1.00  0.00     0.187 A 
HETATM    9  C8  UNK     1      18.651   2.058  32.455  1.00  0.00     0.093 A 
HETATM   10  C9  UNK     1      18.502  -0.756  35.557  1.00  0.00     0.039 A 
HETATM   11  C10 UNK     1      18.170  -0.398  36.865  1.00  0.00     0.009 A 
HETATM   12  C11 UNK     1      17.523   1.306  38.574  1.00  0.00     0.048 C 
ENDROOT
BRANCH   5  13
HETATM   13  C7  UNK     1      19.281   0.203  30.962  1.00  0.00     0.020 A 
HETATM   14  C12 UNK     1      18.920   0.821  29.760  1.00  0.00     0.047 A 
HETATM   15 Cl1  UNK     1      18.003   2.286  29.733  1.00  0.00    -0.083 Cl
HETATM   16  C14 UNK     1      19.298   0.260  28.540  1.00  0.00     0.025 A 
HETATM   17  C16 UNK     1      20.039  -0.922  28.515  1.00  0.00     0.002 A 
HETATM   18  C15 UNK     1      20.402  -1.542  29.709  1.00  0.00     0.001 A 
HETATM   19  C13 UNK     1      20.024  -0.983  30.930  1.00  0.00     0.016 A 
ENDBRANCH   5  13
TORSDOF 1
ENDMDL
MODEL 7
REMARK VINA RESULT:      -7.8      2.725      4.748
REMARK  1 active torsions:
REMARK  status: ('A' for Active; 'I' for Inactive)
REMARK    1  A    between atoms: C3_6  and  C7_10 
ROOT
HETATM    1  O1  UNK     1      17.124   6.974  32.499  1.00  0.00    -0.309 OA
HETATM    2  O2  UNK     1      20.170   8.847  34.451  1.00  0.00    -0.287 OA
HETATM    3  C1  UNK     1      17.936   8.931  33.685  1.00  0.00     0.048 A 
HETATM    4  C2  UNK     1      16.936   8.233  33.008  1.00  0.00     0.090 A 
HETATM    5  C3  UNK     1      18.364   6.374  32.658  1.00  0.00     0.091 A 
HETATM    6  C4  UNK     1      17.689  10.213  34.183  1.00  0.00     0.025 A 
HETATM    7  C5  UNK     1      16.434  10.792  33.999  1.00  0.00    -0.061 A 
HETATM    8  C6  UNK     1      19.249   8.294  33.865  1.00  0.00     0.187 A 
HETATM    9  C8  UNK     1      19.401   6.940  33.295  1.00  0.00     0.093 A 
HETATM   10  C9  UNK     1      15.682   8.815  32.825  1.00  0.00     0.039 A 
HETATM   11  C10 UNK     1      15.432  10.095  33.321  1.00  0.00     0.009 A 
HETATM   12  C11 UNK     1      16.159  12.160  34.526  1.00  0.00     0.048 C 
ENDROOT
BRANCH   5  13
HETATM   13  C7  UNK     1      18.453   5.019  32.078  1.00  0.00     0.020 A 
HETATM   14  C12 UNK     1      18.868   4.790  30.762  1.00  0.00     0.047 A 
HETATM   15 Cl1  UNK     1      19.311   6.089  29.712  1.00  0.00    -0.083 Cl
HETATM   16  C14 UNK     1      18.934   3.490  30.261  1.00  0.00     0.025 A 
HETATM   17  C16 UNK     1      18.585   2.410  31.074  1.00  0.00     0.002 A 
HETATM   18  C15 UNK     1      18.171   2.632  32.387  1.00  0.00     0.001 A 
HETATM   19  C13 UNK     1      18.104   3.932  32.888  1.00  0.00     0.016 A 
ENDBRANCH   5  13
TORSDOF 1
ENDMDL
MODEL 8
REMARK VINA RESULT:      -7.8     23.845     24.870
REMARK  1 active torsions:
REMARK  status: ('A' for Active; 'I' for Inactive)
REMARK    1  A    between atoms: C3_6  and  C7_10 
ROOT
HETATM    1  O1  UNK     1       7.746   4.470   9.030  1.00  0.00    -0.309 OA
HETATM    2  O2  UNK     1       6.566   7.421  11.579  1.00  0.00    -0.287 OA
HETATM    3  C1  UNK     1       6.328   5.179  10.870  1.00  0.00     0.048 A 
HETATM    4  C2  UNK     1       6.779   4.215   9.969  1.00  0.00     0.090 A 
HETATM    5  C3  UNK     1       8.291   5.743   8.971  1.00  0.00     0.091 A 
HETATM    6  C4  UNK     1       5.340   4.864  11.806  1.00  0.00     0.025 A 
HETATM    7  C5  UNK     1       4.805   3.576  11.834  1.00  0.00    -0.061 A 
HETATM    8  C6  UNK     1       6.912   6.528  10.818  1.00  0.00     0.187 A 
HETATM    9  C8  UNK     1       7.946   6.752   9.787  1.00  0.00     0.093 A 
HETATM   10  C9  UNK     1       6.242   2.929   9.999  1.00  0.00     0.039 A 
HETATM   11  C10 UNK     1       5.255   2.610  10.933  1.00  0.00     0.009 A 
HETATM   12  C11 UNK     1       3.749   3.229  12.829  1.00  0.00     0.048 C 
ENDROOT
BRANCH   5  13
HETATM   13  C7  UNK     1       9.326   5.905   7.930  1.00  0.00     0.020 A 
HETATM   14  C12 UNK     1      10.673   5.600   8.154  1.00  0.00     0.047 A 
HETATM   15 Cl1  UNK     1      11.226   5.008   9.680  1.00  0.00    -0.083 Cl
HETATM   16  C14 UNK     1      11.611   5.772   7.137  1.00  0.00     0.025 A 
HETATM   17  C16 UNK     1      11.208   6.248   5.888  1.00  0.00     0.002 A 
HETATM   18  C15 UNK     1       9.867   6.552   5.658  1.00  0.00     0.001 A 
HETATM   19  C13 UNK     1       8.928   6.382   6.676  1.00  0.00     0.016 A 
ENDBRANCH   5  13
TORSDOF 1
ENDMDL
MODEL 9
REMARK VINA RESULT:      -7.8      2.571      4.088
REMARK  1 active torsions:
REMARK  status: ('A' for Active; 'I' for Inactive)
REMARK    1  A    between atoms: C3_6  and  C7_10 
ROOT
HETATM    1  O1  UNK     1      16.660   5.691  32.402  1.00  0.00    -0.309 OA
HETATM    2  O2  UNK     1      19.264   7.532  34.938  1.00  0.00    -0.287 OA
HETATM    3  C1  UNK     1      17.105   7.485  33.978  1.00  0.00     0.048 A 
HETATM    4  C2  UNK     1      16.265   6.806  33.096  1.00  0.00     0.090 A 
HETATM    5  C3  UNK     1      17.954   5.226  32.581  1.00  0.00     0.091 A 
HETATM    6  C4  UNK     1      16.649   8.616  34.659  1.00  0.00     0.025 A 
HETATM    7  C5  UNK     1      15.344   9.064  34.451  1.00  0.00    -0.061 A 
HETATM    8  C6  UNK     1      18.474   6.988  34.178  1.00  0.00     0.187 A 
HETATM    9  C8  UNK     1      18.852   5.787  33.405  1.00  0.00     0.093 A 
HETATM   10  C9  UNK     1      14.961   7.256  32.890  1.00  0.00     0.039 A 
HETATM   11  C10 UNK     1      14.502   8.386  33.568  1.00  0.00     0.009 A 
HETATM   12  C11 UNK     1      14.847  10.271  35.172  1.00  0.00     0.048 C 
ENDROOT
BRANCH   5  13
HETATM   13  C7  UNK     1      18.271   4.018  31.792  1.00  0.00     0.020 A 
HETATM   14  C12 UNK     1      18.343   2.743  32.363  1.00  0.00     0.047 A 
HETATM   15 Cl1  UNK     1      18.063   2.489  34.049  1.00  0.00    -0.083 Cl
HETATM   16  C14 UNK     1      18.648   1.635  31.573  1.00  0.00     0.025 A 
HETATM   17  C16 UNK     1      18.881   1.795  30.207  1.00  0.00     0.002 A 
HETATM   18  C15 UNK     1      18.811   3.062  29.631  1.00  0.00     0.001 A 
HETATM   19  C13 UNK     1      18.507   4.172  30.421  1.00  0.00     0.016 A 
ENDBRANCH   5  13
TORSDOF 1
ENDMDL
MODEL 10
REMARK VINA RESULT:      -7.7     22.433     24.177
REMARK  1 active torsions:
REMARK  status: ('A' for Active; 'I' for Inactive)
REMARK    1  A    between atoms: C3_6  and  C7_10 
ROOT
HETATM    1  O1  UNK     1      12.639   8.534   8.312  1.00  0.00    -0.309 OA
HETATM    2  O2  UNK     1      14.689   5.903  10.651  1.00  0.00    -0.287 OA
HETATM    3  C1  UNK     1      14.671   7.978   9.520  1.00  0.00     0.048 A 
HETATM    4  C2  UNK     1      13.913   8.833   8.720  1.00  0.00     0.090 A 
HETATM    5  C3  UNK     1      12.085   7.325   8.705  1.00  0.00     0.091 A 
HETATM    6  C4  UNK     1      15.965   8.335   9.907  1.00  0.00     0.025 A 
HETATM    7  C5  UNK     1      16.497   9.555   9.488  1.00  0.00    -0.061 A 
HETATM    8  C6  UNK     1      14.084   6.700   9.947  1.00  0.00     0.187 A 
HETATM    9  C8  UNK     1      12.710   6.423   9.477  1.00  0.00     0.093 A 
HETATM   10  C9  UNK     1      14.447  10.052   8.303  1.00  0.00     0.039 A 
HETATM   11  C10 UNK     1      15.740  10.412   8.687  1.00  0.00     0.009 A 
HETATM   12  C11 UNK     1      17.877   9.945   9.895  1.00  0.00     0.048 C 
ENDROOT
BRANCH   5  13
HETATM   13  C7  UNK     1      10.709   7.108   8.214  1.00  0.00     0.020 A 
HETATM   14  C12 UNK     1      10.437   6.543   6.964  1.00  0.00     0.047 A 
HETATM   15 Cl1  UNK     1      11.703   6.052   5.895  1.00  0.00    -0.083 Cl
HETATM   16  C14 UNK     1       9.118   6.360   6.547  1.00  0.00     0.025 A 
HETATM   17  C16 UNK     1       8.064   6.742   7.378  1.00  0.00     0.002 A 
HETATM   18  C15 UNK     1       8.329   7.306   8.625  1.00  0.00     0.001 A 
HETATM   19  C13 UNK     1       9.647   7.490   9.043  1.00  0.00     0.016 A 
ENDBRANCH   5  13
TORSDOF 1
ENDMDL
