MODEL 1
REMARK VINA RESULT:      -9.8      0.000      0.000
REMARK  7 active torsions:
REMARK  status: ('A' for Active; 'I' for Inactive)
REMARK    1  A    between atoms: C19_27  and  O4_4 
REMARK    2  A    between atoms: C23_31  and  O5_5 
REMARK    3  A    between atoms: C5_13  and  N1_6 
REMARK    4  A    between atoms: C6_14  and  N2_7 
REMARK    5  A    between atoms: C17_25  and  N3_8 
REMARK       I    between atoms: C9_17  and  N3_8 
REMARK    6  A    between atoms: C5_13  and  C7_15 
REMARK    7  A    between atoms: C6_14  and  C9_17 
ROOT
HETATM    1  N1  UNK     1      19.417  -3.379  36.388  1.00  0.00     0.096 N 
HETATM    2  N2  UNK     1      18.402  -0.727  35.849  1.00  0.00     0.100 N 
HETATM    3  C1  UNK     1      20.102  -2.475  35.457  1.00  0.00     0.303 C 
HETATM    4  C2  UNK     1      18.703  -2.613  37.417  1.00  0.00     0.303 C 
HETATM    5  C3  UNK     1      19.112  -1.494  34.820  1.00  0.00     0.303 C 
HETATM    6  C4  UNK     1      17.715  -1.631  36.778  1.00  0.00     0.303 C 
ENDROOT
BRANCH   2   7
HETATM    7  C6  UNK     1      17.457   0.207  35.240  1.00  0.00     0.375 C 
BRANCH   7   8
HETATM    8  C9  UNK     1      18.206   1.427  34.734  1.00  0.00     0.250 C 
HETATM    9  O2  UNK     1      19.165   1.909  35.329  1.00  0.00    -0.271 OA
HETATM   10  N3  UNK     1      17.648   1.872  33.537  1.00  0.00    -0.323 N 
HETATM   11  H15 UNK     1      16.850   1.357  33.171  1.00  0.00     0.169 HD
BRANCH  10  12
HETATM   12  C17 UNK     1      18.058   2.976  32.751  1.00  0.00     0.068 A 
HETATM   13  C19 UNK     1      18.406   2.804  31.411  1.00  0.00     0.097 A 
HETATM   14  C21 UNK     1      18.807   3.901  30.649  1.00  0.00     0.075 A 
HETATM   15  C23 UNK     1      18.858   5.170  31.226  1.00  0.00     0.070 A 
HETATM   16  C22 UNK     1      18.510   5.341  32.566  1.00  0.00     0.039 A 
HETATM   17  C20 UNK     1      18.109   4.244  33.328  1.00  0.00     0.035 A 
BRANCH  13  18
HETATM   18  O4  UNK     1      18.363   1.573  30.828  1.00  0.00    -0.354 OA
HETATM   19  C24 UNK     1      18.746   1.492  29.457  1.00  0.00     0.210 C 
ENDBRANCH  13  18
BRANCH  15  20
HETATM   20  O5  UNK     1      19.250   6.240  30.482  1.00  0.00    -0.356 OA
HETATM   21  C25 UNK     1      20.387   6.063  29.638  1.00  0.00     0.210 C 
ENDBRANCH  15  20
ENDBRANCH  10  12
ENDBRANCH   7   8
ENDBRANCH   2   7
BRANCH   1  22
HETATM   22  C5  UNK     1      20.363  -4.312  36.998  1.00  0.00     0.312 C 
BRANCH  22  23
HETATM   23  C7  UNK     1      20.286  -5.669  36.388  1.00  0.00    -0.011 A 
HETATM   24  C10 UNK     1      20.390  -5.839  35.062  1.00  0.00     0.092 A 
HETATM   25  C13 UNK     1      20.320  -7.159  34.414  1.00  0.00     0.288 A 
HETATM   26  O1  UNK     1      20.138  -8.253  35.247  1.00  0.00    -0.275 OA
HETATM   27  O3  UNK     1      20.418  -7.277  33.198  1.00  0.00    -0.260 OA
HETATM   28  C11 UNK     1      20.026  -8.105  36.644  1.00  0.00     0.090 A 
HETATM   29  C8  UNK     1      20.095  -6.847  37.244  1.00  0.00     0.006 A 
HETATM   30  C14 UNK     1      19.845  -9.275  37.384  1.00  0.00     0.045 A 
HETATM   31  C12 UNK     1      19.974  -6.785  38.638  1.00  0.00     0.015 A 
HETATM   32  C16 UNK     1      19.792  -7.949  39.394  1.00  0.00     0.007 A 
HETATM   33  C15 UNK     1      19.728  -9.193  38.767  1.00  0.00    -0.059 A 
HETATM   34  C18 UNK     1      19.536 -10.429  39.577  1.00  0.00     0.048 C 
ENDBRANCH  22  23
ENDBRANCH   1  22
TORSDOF 7
ENDMDL
MODEL 2
REMARK VINA RESULT:      -9.5      3.617     12.549
REMARK  7 active torsions:
REMARK  status: ('A' for Active; 'I' for Inactive)
REMARK    1  A    between atoms: C19_27  and  O4_4 
REMARK    2  A    between atoms: C23_31  and  O5_5 
REMARK    3  A    between atoms: C5_13  and  N1_6 
REMARK    4  A    between atoms: C6_14  and  N2_7 
REMARK    5  A    between atoms: C17_25  and  N3_8 
REMARK       I    between atoms: C9_17  and  N3_8 
REMARK    6  A    between atoms: C5_13  and  C7_15 
REMARK    7  A    between atoms: C6_14  and  C9_17 
ROOT
HETATM    1  N1  UNK     1      18.052   5.446  31.576  1.00  0.00     0.096 N 
HETATM    2  N2  UNK     1      19.005   2.806  30.883  1.00  0.00     0.100 N 
HETATM    3  C1  UNK     1      18.279   4.423  32.604  1.00  0.00     0.303 C 
HETATM    4  C2  UNK     1      18.952   5.235  30.435  1.00  0.00     0.303 C 
HETATM    5  C3  UNK     1      18.103   3.016  32.022  1.00  0.00     0.303 C 
HETATM    6  C4  UNK     1      18.777   3.828  29.855  1.00  0.00     0.303 C 
ENDROOT
BRANCH   2   7
HETATM    7  C6  UNK     1      18.836   1.464  30.329  1.00  0.00     0.375 C 
BRANCH   7   8
HETATM    8  C9  UNK     1      19.646   0.473  31.145  1.00  0.00     0.250 C 
HETATM    9  O2  UNK     1      20.809   0.191  30.879  1.00  0.00    -0.271 OA
HETATM   10  N3  UNK     1      18.878  -0.025  32.196  1.00  0.00    -0.323 N 
HETATM   11  H15 UNK     1      17.922   0.314  32.282  1.00  0.00     0.169 HD
BRANCH  10  12
HETATM   12  C17 UNK     1      19.267  -0.966  33.180  1.00  0.00     0.068 A 
HETATM   13  C19 UNK     1      18.821  -0.845  34.496  1.00  0.00     0.097 A 
HETATM   14  C21 UNK     1      19.213  -1.780  35.454  1.00  0.00     0.075 A 
HETATM   15  C23 UNK     1      20.049  -2.837  35.095  1.00  0.00     0.070 A 
HETATM   16  C22 UNK     1      20.496  -2.958  33.779  1.00  0.00     0.039 A 
HETATM   17  C20 UNK     1      20.104  -2.023  32.821  1.00  0.00     0.035 A 
BRANCH  13  18
HETATM   18  O4  UNK     1      18.003   0.180  34.867  1.00  0.00    -0.354 OA
HETATM   19  C24 UNK     1      16.617  -0.119  35.019  1.00  0.00     0.210 C 
ENDBRANCH  13  18
BRANCH  15  20
HETATM   20  O5  UNK     1      20.432  -3.749  36.030  1.00  0.00    -0.356 OA
HETATM   21  C25 UNK     1      20.115  -3.456  37.390  1.00  0.00     0.210 C 
ENDBRANCH  15  20
ENDBRANCH  10  12
ENDBRANCH   7   8
ENDBRANCH   2   7
BRANCH   1  22
HETATM   22  C5  UNK     1      18.223   6.788  32.131  1.00  0.00     0.312 C 
BRANCH  22  23
HETATM   23  C7  UNK     1      16.919   7.442  32.431  1.00  0.00    -0.011 A 
HETATM   24  C10 UNK     1      15.759   6.867  32.082  1.00  0.00     0.092 A 
HETATM   25  C13 UNK     1      14.447   7.475  32.357  1.00  0.00     0.288 A 
HETATM   26  O1  UNK     1      14.452   8.700  33.007  1.00  0.00    -0.275 OA
HETATM   27  O3  UNK     1      13.406   6.920  32.023  1.00  0.00    -0.260 OA
HETATM   28  C11 UNK     1      15.655   9.328  33.387  1.00  0.00     0.090 A 
HETATM   29  C8  UNK     1      16.892   8.739  33.120  1.00  0.00     0.006 A 
HETATM   30  C14 UNK     1      15.540  10.558  34.036  1.00  0.00     0.045 A 
HETATM   31  C12 UNK     1      18.041   9.428  33.528  1.00  0.00     0.015 A 
HETATM   32  C16 UNK     1      17.942  10.663  34.180  1.00  0.00     0.007 A 
HETATM   33  C15 UNK     1      16.693  11.227  34.434  1.00  0.00    -0.059 A 
HETATM   34  C18 UNK     1      16.594  12.541  35.130  1.00  0.00     0.048 C 
ENDBRANCH  22  23
ENDBRANCH   1  22
TORSDOF 7
ENDMDL
MODEL 3
REMARK VINA RESULT:      -9.4      1.288      1.532
REMARK  7 active torsions:
REMARK  status: ('A' for Active; 'I' for Inactive)
REMARK    1  A    between atoms: C19_27  and  O4_4 
REMARK    2  A    between atoms: C23_31  and  O5_5 
REMARK    3  A    between atoms: C5_13  and  N1_6 
REMARK    4  A    between atoms: C6_14  and  N2_7 
REMARK    5  A    between atoms: C17_25  and  N3_8 
REMARK       I    between atoms: C9_17  and  N3_8 
REMARK    6  A    between atoms: C5_13  and  C7_15 
REMARK    7  A    between atoms: C6_14  and  C9_17 
ROOT
HETATM    1  N1  UNK     1      19.706  -3.120  36.300  1.00  0.00     0.096 N 
HETATM    2  N2  UNK     1      18.570  -0.492  35.902  1.00  0.00     0.100 N 
HETATM    3  C1  UNK     1      20.188  -2.235  35.234  1.00  0.00     0.303 C 
HETATM    4  C2  UNK     1      19.193  -2.333  37.428  1.00  0.00     0.303 C 
HETATM    5  C3  UNK     1      19.080  -1.281  34.774  1.00  0.00     0.303 C 
HETATM    6  C4  UNK     1      18.087  -1.377  36.968  1.00  0.00     0.303 C 
ENDROOT
BRANCH   2   7
HETATM    7  C6  UNK     1      17.514   0.417  35.463  1.00  0.00     0.375 C 
BRANCH   7   8
HETATM    8  C9  UNK     1      18.137   1.644  34.821  1.00  0.00     0.250 C 
HETATM    9  O2  UNK     1      18.884   2.403  35.431  1.00  0.00    -0.271 OA
HETATM   10  N3  UNK     1      17.736   1.747  33.490  1.00  0.00    -0.323 N 
HETATM   11  H15 UNK     1      17.109   1.030  33.132  1.00  0.00     0.169 HD
BRANCH  10  12
HETATM   12  C17 UNK     1      18.097   2.746  32.554  1.00  0.00     0.068 A 
HETATM   13  C19 UNK     1      18.476   2.401  31.257  1.00  0.00     0.097 A 
HETATM   14  C21 UNK     1      18.828   3.396  30.345  1.00  0.00     0.075 A 
HETATM   15  C23 UNK     1      18.801   4.736  30.732  1.00  0.00     0.070 A 
HETATM   16  C22 UNK     1      18.423   5.081  32.030  1.00  0.00     0.039 A 
HETATM   17  C20 UNK     1      18.071   4.086  32.941  1.00  0.00     0.035 A 
BRANCH  13  18
HETATM   18  O4  UNK     1      18.509   1.097  30.859  1.00  0.00    -0.354 OA
HETATM   19  C24 UNK     1      19.199   0.807  29.646  1.00  0.00     0.210 C 
ENDBRANCH  13  18
BRANCH  15  20
HETATM   20  O5  UNK     1      19.146   5.707  29.842  1.00  0.00    -0.356 OA
HETATM   21  C25 UNK     1      20.517   6.101  29.809  1.00  0.00     0.210 C 
ENDBRANCH  15  20
ENDBRANCH  10  12
ENDBRANCH   7   8
ENDBRANCH   2   7
BRANCH   1  22
HETATM   22  C5  UNK     1      20.764  -4.029  36.740  1.00  0.00     0.312 C 
BRANCH  22  23
HETATM   23  C7  UNK     1      20.265  -5.417  36.942  1.00  0.00    -0.011 A 
HETATM   24  C10 UNK     1      19.221  -5.887  36.244  1.00  0.00     0.092 A 
HETATM   25  C13 UNK     1      18.692  -7.250  36.409  1.00  0.00     0.288 A 
HETATM   26  O1  UNK     1      19.329  -8.057  37.340  1.00  0.00    -0.275 OA
HETATM   27  O3  UNK     1      17.735  -7.646  35.753  1.00  0.00    -0.260 OA
HETATM   28  C11 UNK     1      20.429  -7.592  38.089  1.00  0.00     0.090 A 
HETATM   29  C8  UNK     1      20.919  -6.296  37.920  1.00  0.00     0.006 A 
HETATM   30  C14 UNK     1      20.992  -8.490  38.997  1.00  0.00     0.045 A 
HETATM   31  C12 UNK     1      22.015  -5.909  38.704  1.00  0.00     0.015 A 
HETATM   32  C16 UNK     1      22.590  -6.799  39.618  1.00  0.00     0.007 A 
HETATM   33  C15 UNK     1      22.079  -8.087  39.764  1.00  0.00    -0.059 A 
HETATM   34  C18 UNK     1      22.697  -9.030  40.740  1.00  0.00     0.048 C 
ENDBRANCH  22  23
ENDBRANCH   1  22
TORSDOF 7
ENDMDL
MODEL 4
REMARK VINA RESULT:      -9.2      1.812      2.357
REMARK  7 active torsions:
REMARK  status: ('A' for Active; 'I' for Inactive)
REMARK    1  A    between atoms: C19_27  and  O4_4 
REMARK    2  A    between atoms: C23_31  and  O5_5 
REMARK    3  A    between atoms: C5_13  and  N1_6 
REMARK    4  A    between atoms: C6_14  and  N2_7 
REMARK    5  A    between atoms: C17_25  and  N3_8 
REMARK       I    between atoms: C9_17  and  N3_8 
REMARK    6  A    between atoms: C5_13  and  C7_15 
REMARK    7  A    between atoms: C6_14  and  C9_17 
ROOT
HETATM    1  N1  UNK     1      19.545  -3.577  36.611  1.00  0.00     0.096 N 
HETATM    2  N2  UNK     1      18.471  -0.909  36.330  1.00  0.00     0.100 N 
HETATM    3  C1  UNK     1      18.120  -3.301  36.831  1.00  0.00     0.303 C 
HETATM    4  C2  UNK     1      20.108  -2.628  35.643  1.00  0.00     0.303 C 
HETATM    5  C3  UNK     1      17.911  -1.857  37.298  1.00  0.00     0.303 C 
HETATM    6  C4  UNK     1      19.896  -1.184  36.110  1.00  0.00     0.303 C 
ENDROOT
BRANCH   2   7
HETATM    7  C6  UNK     1      18.271   0.469  36.776  1.00  0.00     0.375 C 
BRANCH   7   8
HETATM    8  C9  UNK     1      18.828   1.424  35.736  1.00  0.00     0.250 C 
HETATM    9  O2  UNK     1      19.816   2.122  35.940  1.00  0.00    -0.271 OA
HETATM   10  N3  UNK     1      18.065   1.365  34.571  1.00  0.00    -0.323 N 
HETATM   11  H15 UNK     1      17.271   0.728  34.562  1.00  0.00     0.169 HD
BRANCH  10  12
HETATM   12  C17 UNK     1      18.256   2.098  33.375  1.00  0.00     0.068 A 
HETATM   13  C19 UNK     1      18.605   1.448  32.191  1.00  0.00     0.097 A 
HETATM   14  C21 UNK     1      18.790   2.183  31.020  1.00  0.00     0.075 A 
HETATM   15  C23 UNK     1      18.624   3.568  31.034  1.00  0.00     0.070 A 
HETATM   16  C22 UNK     1      18.276   4.218  32.218  1.00  0.00     0.039 A 
HETATM   17  C20 UNK     1      18.091   3.483  33.389  1.00  0.00     0.035 A 
BRANCH  13  18
HETATM   18  O4  UNK     1      18.771   0.095  32.157  1.00  0.00    -0.354 OA
HETATM   19  C24 UNK     1      19.650  -0.424  31.161  1.00  0.00     0.210 C 
ENDBRANCH  13  18
BRANCH  15  20
HETATM   20  O5  UNK     1      18.805   4.286  29.891  1.00  0.00    -0.356 OA
HETATM   21  C25 UNK     1      19.263   5.630  30.034  1.00  0.00     0.210 C 
ENDBRANCH  15  20
ENDBRANCH  10  12
ENDBRANCH   7   8
ENDBRANCH   2   7
BRANCH   1  22
HETATM   22  C5  UNK     1      19.744  -4.955  36.162  1.00  0.00     0.312 C 
BRANCH  22  23
HETATM   23  C7  UNK     1      20.604  -5.732  37.098  1.00  0.00    -0.011 A 
HETATM   24  C10 UNK     1      21.692  -5.183  37.657  1.00  0.00     0.092 A 
HETATM   25  C13 UNK     1      22.571  -5.911  38.587  1.00  0.00     0.288 A 
HETATM   26  O1  UNK     1      22.225  -7.223  38.873  1.00  0.00    -0.275 OA
HETATM   27  O3  UNK     1      23.559  -5.377  39.079  1.00  0.00    -0.260 OA
HETATM   28  C11 UNK     1      21.087  -7.827  38.301  1.00  0.00     0.090 A 
HETATM   29  C8  UNK     1      20.262  -7.123  37.422  1.00  0.00     0.006 A 
HETATM   30  C14 UNK     1      20.835  -9.152  38.661  1.00  0.00     0.045 A 
HETATM   31  C12 UNK     1      19.151  -7.796  36.896  1.00  0.00     0.015 A 
HETATM   32  C16 UNK     1      18.886  -9.124  37.247  1.00  0.00     0.007 A 
HETATM   33  C15 UNK     1      19.727  -9.801  38.129  1.00  0.00    -0.059 A 
HETATM   34  C18 UNK     1      19.438 -11.216  38.499  1.00  0.00     0.048 C 
ENDBRANCH  22  23
ENDBRANCH   1  22
TORSDOF 7
ENDMDL
MODEL 5
REMARK VINA RESULT:      -9.0      4.927      8.471
REMARK  7 active torsions:
REMARK  status: ('A' for Active; 'I' for Inactive)
REMARK    1  A    between atoms: C19_27  and  O4_4 
REMARK    2  A    between atoms: C23_31  and  O5_5 
REMARK    3  A    between atoms: C5_13  and  N1_6 
REMARK    4  A    between atoms: C6_14  and  N2_7 
REMARK    5  A    between atoms: C17_25  and  N3_8 
REMARK       I    between atoms: C9_17  and  N3_8 
REMARK    6  A    between atoms: C5_13  and  C7_15 
REMARK    7  A    between atoms: C6_14  and  C9_17 
ROOT
HETATM    1  N1  UNK     1      18.873   3.699  31.252  1.00  0.00     0.096 N 
HETATM    2  N2  UNK     1      19.213   6.362  32.325  1.00  0.00     0.100 N 
HETATM    3  C1  UNK     1      17.944   4.244  32.248  1.00  0.00     0.303 C 
HETATM    4  C2  UNK     1      19.448   4.780  30.441  1.00  0.00     0.303 C 
HETATM    5  C3  UNK     1      18.641   5.281  33.136  1.00  0.00     0.303 C 
HETATM    6  C4  UNK     1      20.143   5.817  31.329  1.00  0.00     0.303 C 
ENDROOT
BRANCH   2   7
HETATM    7  C6  UNK     1      19.878   7.350  33.171  1.00  0.00     0.375 C 
BRANCH   7   8
HETATM    8  C9  UNK     1      18.859   7.992  34.096  1.00  0.00     0.250 C 
HETATM    9  O2  UNK     1      18.949   7.939  35.318  1.00  0.00    -0.271 OA
HETATM   10  N3  UNK     1      17.863   8.622  33.351  1.00  0.00    -0.323 N 
HETATM   11  H15 UNK     1      17.935   8.574  32.337  1.00  0.00     0.169 HD
BRANCH  10  12
HETATM   12  C17 UNK     1      16.739   9.332  33.838  1.00  0.00     0.068 A 
HETATM   13  C19 UNK     1      15.490   8.716  33.921  1.00  0.00     0.097 A 
HETATM   14  C21 UNK     1      14.393   9.428  34.403  1.00  0.00     0.075 A 
HETATM   15  C23 UNK     1      14.545  10.756  34.804  1.00  0.00     0.070 A 
HETATM   16  C22 UNK     1      15.794  11.371  34.722  1.00  0.00     0.039 A 
HETATM   17  C20 UNK     1      16.891  10.659  34.239  1.00  0.00     0.035 A 
BRANCH  13  18
HETATM   18  O4  UNK     1      15.321   7.420  33.534  1.00  0.00    -0.354 OA
HETATM   19  C24 UNK     1      14.635   7.196  32.305  1.00  0.00     0.210 C 
ENDBRANCH  13  18
BRANCH  15  20
HETATM   20  O5  UNK     1      13.473  11.450  35.275  1.00  0.00    -0.356 OA
HETATM   21  C25 UNK     1      13.560  11.955  36.607  1.00  0.00     0.210 C 
ENDBRANCH  15  20
ENDBRANCH  10  12
ENDBRANCH   7   8
ENDBRANCH   2   7
BRANCH   1  22
HETATM   22  C5  UNK     1      18.206   2.712  30.404  1.00  0.00     0.312 C 
BRANCH  22  23
HETATM   23  C7  UNK     1      18.897   1.393  30.427  1.00  0.00    -0.011 A 
HETATM   24  C10 UNK     1      19.516   0.916  29.337  1.00  0.00     0.092 A 
HETATM   25  C13 UNK     1      20.211  -0.381  29.311  1.00  0.00     0.288 A 
HETATM   26  O1  UNK     1      20.204  -1.115  30.488  1.00  0.00    -0.275 OA
HETATM   27  O3  UNK     1      20.767  -0.786  28.296  1.00  0.00    -0.260 OA
HETATM   28  C11 UNK     1      19.563  -0.639  31.650  1.00  0.00     0.090 A 
HETATM   29  C8  UNK     1      18.908   0.593  31.659  1.00  0.00     0.006 A 
HETATM   30  C14 UNK     1      19.620  -1.462  32.776  1.00  0.00     0.045 A 
HETATM   31  C12 UNK     1      18.294   0.993  32.852  1.00  0.00     0.015 A 
HETATM   32  C16 UNK     1      18.343   0.180  33.990  1.00  0.00     0.007 A 
HETATM   33  C15 UNK     1      19.005  -1.046  33.952  1.00  0.00    -0.059 A 
HETATM   34  C18 UNK     1      19.054  -1.907  35.168  1.00  0.00     0.048 C 
ENDBRANCH  22  23
ENDBRANCH   1  22
TORSDOF 7
ENDMDL
MODEL 6
REMARK VINA RESULT:      -8.9      6.220      9.589
REMARK  7 active torsions:
REMARK  status: ('A' for Active; 'I' for Inactive)
REMARK    1  A    between atoms: C19_27  and  O4_4 
REMARK    2  A    between atoms: C23_31  and  O5_5 
REMARK    3  A    between atoms: C5_13  and  N1_6 
REMARK    4  A    between atoms: C6_14  and  N2_7 
REMARK    5  A    between atoms: C17_25  and  N3_8 
REMARK       I    between atoms: C9_17  and  N3_8 
REMARK    6  A    between atoms: C5_13  and  C7_15 
REMARK    7  A    between atoms: C6_14  and  C9_17 
ROOT
HETATM    1  N1  UNK     1      18.512   4.912  32.587  1.00  0.00     0.096 N 
HETATM    2  N2  UNK     1      18.752   7.711  33.266  1.00  0.00     0.100 N 
HETATM    3  C1  UNK     1      17.327   5.738  32.849  1.00  0.00     0.303 C 
HETATM    4  C2  UNK     1      19.603   5.735  32.051  1.00  0.00     0.303 C 
HETATM    5  C3  UNK     1      17.664   6.888  33.805  1.00  0.00     0.303 C 
HETATM    6  C4  UNK     1      19.937   6.886  33.006  1.00  0.00     0.303 C 
ENDROOT
BRANCH   2   7
HETATM    7  C6  UNK     1      19.073   8.808  34.178  1.00  0.00     0.375 C 
BRANCH   7   8
HETATM    8  C9  UNK     1      18.109   9.957  33.947  1.00  0.00     0.250 C 
HETATM    9  O2  UNK     1      18.460  11.026  33.456  1.00  0.00    -0.271 OA
HETATM   10  N3  UNK     1      16.827   9.601  34.361  1.00  0.00    -0.323 N 
HETATM   11  H15 UNK     1      16.701   8.669  34.749  1.00  0.00     0.169 HD
BRANCH  10  12
HETATM   12  C17 UNK     1      15.653  10.391  34.312  1.00  0.00     0.068 A 
HETATM   13  C19 UNK     1      14.656  10.125  33.374  1.00  0.00     0.097 A 
HETATM   14  C21 UNK     1      13.504  10.911  33.338  1.00  0.00     0.075 A 
HETATM   15  C23 UNK     1      13.350  11.963  34.242  1.00  0.00     0.070 A 
HETATM   16  C22 UNK     1      14.348  12.229  35.180  1.00  0.00     0.039 A 
HETATM   17  C20 UNK     1      15.499  11.442  35.216  1.00  0.00     0.035 A 
BRANCH  13  18
HETATM   18  O4  UNK     1      14.787   9.103  32.482  1.00  0.00    -0.354 OA
HETATM   19  C24 UNK     1      14.160   7.867  32.817  1.00  0.00     0.210 C 
ENDBRANCH  13  18
BRANCH  15  20
HETATM   20  O5  UNK     1      12.227  12.730  34.207  1.00  0.00    -0.356 OA
HETATM   21  C25 UNK     1      11.289  12.461  33.166  1.00  0.00     0.210 C 
ENDBRANCH  15  20
ENDBRANCH  10  12
ENDBRANCH   7   8
ENDBRANCH   2   7
BRANCH   1  22
HETATM   22  C5  UNK     1      18.190   3.817  31.673  1.00  0.00     0.312 C 
BRANCH  22  23
HETATM   23  C7  UNK     1      18.382   2.482  32.306  1.00  0.00    -0.011 A 
HETATM   24  C10 UNK     1      18.052   2.269  33.588  1.00  0.00     0.092 A 
HETATM   25  C13 UNK     1      18.225   0.969  34.257  1.00  0.00     0.288 A 
HETATM   26  O1  UNK     1      18.756  -0.059  33.492  1.00  0.00    -0.275 OA
HETATM   27  O3  UNK     1      17.911   0.811  35.431  1.00  0.00    -0.260 OA
HETATM   28  C11 UNK     1      19.112   0.135  32.142  1.00  0.00     0.090 A 
HETATM   29  C8  UNK     1      18.942   1.374  31.522  1.00  0.00     0.006 A 
HETATM   30  C14 UNK     1      19.637  -0.970  31.470  1.00  0.00     0.045 A 
HETATM   31  C12 UNK     1      19.322   1.484  30.178  1.00  0.00     0.015 A 
HETATM   32  C16 UNK     1      19.850   0.386  29.491  1.00  0.00     0.007 A 
HETATM   33  C15 UNK     1      20.007  -0.840  30.136  1.00  0.00    -0.059 A 
HETATM   34  C18 UNK     1      20.570  -2.006  29.397  1.00  0.00     0.048 C 
ENDBRANCH  22  23
ENDBRANCH   1  22
TORSDOF 7
ENDMDL
MODEL 7
REMARK VINA RESULT:      -8.7      8.062     11.843
REMARK  7 active torsions:
REMARK  status: ('A' for Active; 'I' for Inactive)
REMARK    1  A    between atoms: C19_27  and  O4_4 
REMARK    2  A    between atoms: C23_31  and  O5_5 
REMARK    3  A    between atoms: C5_13  and  N1_6 
REMARK    4  A    between atoms: C6_14  and  N2_7 
REMARK    5  A    between atoms: C17_25  and  N3_8 
REMARK       I    between atoms: C9_17  and  N3_8 
REMARK    6  A    between atoms: C5_13  and  C7_15 
REMARK    7  A    between atoms: C6_14  and  C9_17 
ROOT
HETATM    1  N1  UNK     1      29.194  -8.443  36.513  1.00  0.00     0.096 N 
HETATM    2  N2  UNK     1      26.649  -8.220  37.866  1.00  0.00     0.100 N 
HETATM    3  C1  UNK     1      28.000  -9.133  36.010  1.00  0.00     0.303 C 
HETATM    4  C2  UNK     1      28.815  -7.217  37.227  1.00  0.00     0.303 C 
HETATM    5  C3  UNK     1      27.029  -9.446  37.154  1.00  0.00     0.303 C 
HETATM    6  C4  UNK     1      27.843  -7.530  38.369  1.00  0.00     0.303 C 
ENDROOT
BRANCH   2   7
HETATM    7  C6  UNK     1      25.723  -8.519  38.956  1.00  0.00     0.375 C 
BRANCH   7   8
HETATM    8  C9  UNK     1      24.466  -7.684  38.796  1.00  0.00     0.250 C 
HETATM    9  O2  UNK     1      24.477  -6.458  38.829  1.00  0.00    -0.271 OA
HETATM   10  N3  UNK     1      23.360  -8.511  38.609  1.00  0.00    -0.323 N 
HETATM   11  H15 UNK     1      23.520  -9.516  38.606  1.00  0.00     0.169 HD
BRANCH  10  12
HETATM   12  C17 UNK     1      22.012  -8.121  38.421  1.00  0.00     0.068 A 
HETATM   13  C19 UNK     1      21.376  -8.324  37.196  1.00  0.00     0.097 A 
HETATM   14  C21 UNK     1      20.048  -7.935  37.026  1.00  0.00     0.075 A 
HETATM   15  C23 UNK     1      19.354  -7.344  38.083  1.00  0.00     0.070 A 
HETATM   16  C22 UNK     1      19.990  -7.141  39.308  1.00  0.00     0.039 A 
HETATM   17  C20 UNK     1      21.318  -7.530  39.478  1.00  0.00     0.035 A 
BRANCH  13  18
HETATM   18  O4  UNK     1      22.036  -8.899  36.151  1.00  0.00    -0.354 OA
HETATM   19  C24 UNK     1      21.373  -8.904  34.889  1.00  0.00     0.210 C 
ENDBRANCH  13  18
BRANCH  15  20
HETATM   20  O5  UNK     1      18.058  -6.965  37.917  1.00  0.00    -0.356 OA
HETATM   21  C25 UNK     1      17.685  -6.473  36.630  1.00  0.00     0.210 C 
ENDBRANCH  15  20
ENDBRANCH  10  12
ENDBRANCH   7   8
ENDBRANCH   2   7
BRANCH   1  22
HETATM   22  C5  UNK     1      30.119  -8.142  35.421  1.00  0.00     0.312 C 
BRANCH  22  23
HETATM   23  C7  UNK     1      29.771  -8.876  34.172  1.00  0.00    -0.011 A 
HETATM   24  C10 UNK     1      30.206 -10.127  33.960  1.00  0.00     0.092 A 
HETATM   25  C13 UNK     1      29.889 -10.892  32.743  1.00  0.00     0.288 A 
HETATM   26  O1  UNK     1      29.103 -10.255  31.795  1.00  0.00    -0.275 OA
HETATM   27  O3  UNK     1      30.304 -12.034  32.583  1.00  0.00    -0.260 OA
HETATM   28  C11 UNK     1      28.631  -8.941  31.990  1.00  0.00     0.090 A 
HETATM   29  C8  UNK     1      28.939  -8.229  33.150  1.00  0.00     0.006 A 
HETATM   30  C14 UNK     1      27.847  -8.401  30.969  1.00  0.00     0.045 A 
HETATM   31  C12 UNK     1      28.433  -6.928  33.267  1.00  0.00     0.015 A 
HETATM   32  C16 UNK     1      27.646  -6.372  32.251  1.00  0.00     0.007 A 
HETATM   33  C15 UNK     1      27.353  -7.108  31.104  1.00  0.00    -0.059 A 
HETATM   34  C18 UNK     1      26.514  -6.510  30.027  1.00  0.00     0.048 C 
ENDBRANCH  22  23
ENDBRANCH   1  22
TORSDOF 7
ENDMDL
MODEL 8
REMARK VINA RESULT:      -8.6      6.237     10.183
REMARK  7 active torsions:
REMARK  status: ('A' for Active; 'I' for Inactive)
REMARK    1  A    between atoms: C19_27  and  O4_4 
REMARK    2  A    between atoms: C23_31  and  O5_5 
REMARK    3  A    between atoms: C5_13  and  N1_6 
REMARK    4  A    between atoms: C6_14  and  N2_7 
REMARK    5  A    between atoms: C17_25  and  N3_8 
REMARK       I    between atoms: C9_17  and  N3_8 
REMARK    6  A    between atoms: C5_13  and  C7_15 
REMARK    7  A    between atoms: C6_14  and  C9_17 
ROOT
HETATM    1  N1  UNK     1      18.412   4.907  32.486  1.00  0.00     0.096 N 
HETATM    2  N2  UNK     1      18.584   7.713  33.158  1.00  0.00     0.100 N 
HETATM    3  C1  UNK     1      17.205   5.720  32.680  1.00  0.00     0.303 C 
HETATM    4  C2  UNK     1      19.520   5.739  32.003  1.00  0.00     0.303 C 
HETATM    5  C3  UNK     1      17.478   6.880  33.643  1.00  0.00     0.303 C 
HETATM    6  C4  UNK     1      19.791   6.900  32.966  1.00  0.00     0.303 C 
ENDROOT
BRANCH   2   7
HETATM    7  C6  UNK     1      18.844   8.819  34.078  1.00  0.00     0.375 C 
BRANCH   7   8
HETATM    8  C9  UNK     1      17.967  10.002  33.707  1.00  0.00     0.250 C 
HETATM    9  O2  UNK     1      16.922   9.879  33.077  1.00  0.00    -0.271 OA
HETATM   10  N3  UNK     1      18.526  11.184  34.189  1.00  0.00    -0.323 N 
HETATM   11  H15 UNK     1      19.404  11.115  34.698  1.00  0.00     0.169 HD
BRANCH  10  12
HETATM   12  C17 UNK     1      18.016  12.498  34.054  1.00  0.00     0.068 A 
HETATM   13  C19 UNK     1      16.920  12.917  34.808  1.00  0.00     0.097 A 
HETATM   14  C21 UNK     1      16.429  14.214  34.665  1.00  0.00     0.075 A 
HETATM   15  C23 UNK     1      17.036  15.093  33.768  1.00  0.00     0.070 A 
HETATM   16  C22 UNK     1      18.132  14.675  33.013  1.00  0.00     0.039 A 
HETATM   17  C20 UNK     1      18.623  13.377  33.157  1.00  0.00     0.035 A 
BRANCH  13  18
HETATM   18  O4  UNK     1      16.312  12.073  35.690  1.00  0.00    -0.354 OA
HETATM   19  C24 UNK     1      14.920  11.830  35.500  1.00  0.00     0.210 C 
ENDBRANCH  13  18
BRANCH  15  20
HETATM   20  O5  UNK     1      16.557  16.360  33.627  1.00  0.00    -0.356 OA
HETATM   21  C25 UNK     1      15.168  16.499  33.331  1.00  0.00     0.210 C 
ENDBRANCH  15  20
ENDBRANCH  10  12
ENDBRANCH   7   8
ENDBRANCH   2   7
BRANCH   1  22
HETATM   22  C5  UNK     1      18.151   3.802  31.564  1.00  0.00     0.312 C 
BRANCH  22  23
HETATM   23  C7  UNK     1      18.371   2.474  32.202  1.00  0.00    -0.011 A 
HETATM   24  C10 UNK     1      18.056   2.263  33.488  1.00  0.00     0.092 A 
HETATM   25  C13 UNK     1      18.256   0.969  34.162  1.00  0.00     0.288 A 
HETATM   26  O1  UNK     1      18.797  -0.054  33.398  1.00  0.00    -0.275 OA
HETATM   27  O3  UNK     1      17.956   0.812  35.340  1.00  0.00    -0.260 OA
HETATM   28  C11 UNK     1      19.138   0.138  32.044  1.00  0.00     0.090 A 
HETATM   29  C8  UNK     1      18.942   1.371  31.419  1.00  0.00     0.006 A 
HETATM   30  C14 UNK     1      19.675  -0.961  31.373  1.00  0.00     0.045 A 
HETATM   31  C12 UNK     1      19.308   1.481  30.071  1.00  0.00     0.015 A 
HETATM   32  C16 UNK     1      19.848   0.387  29.384  1.00  0.00     0.007 A 
HETATM   33  C15 UNK     1      20.031  -0.832  30.034  1.00  0.00    -0.059 A 
HETATM   34  C18 UNK     1      20.606  -1.993  29.297  1.00  0.00     0.048 C 
ENDBRANCH  22  23
ENDBRANCH   1  22
TORSDOF 7
ENDMDL
MODEL 9
REMARK VINA RESULT:      -8.6     14.026     17.613
REMARK  7 active torsions:
REMARK  status: ('A' for Active; 'I' for Inactive)
REMARK    1  A    between atoms: C19_27  and  O4_4 
REMARK    2  A    between atoms: C23_31  and  O5_5 
REMARK    3  A    between atoms: C5_13  and  N1_6 
REMARK    4  A    between atoms: C6_14  and  N2_7 
REMARK    5  A    between atoms: C17_25  and  N3_8 
REMARK       I    between atoms: C9_17  and  N3_8 
REMARK    6  A    between atoms: C5_13  and  C7_15 
REMARK    7  A    between atoms: C6_14  and  C9_17 
ROOT
HETATM    1  N1  UNK     1      32.170  -6.024  35.956  1.00  0.00     0.096 N 
HETATM    2  N2  UNK     1      34.791  -6.549  34.856  1.00  0.00     0.100 N 
HETATM    3  C1  UNK     1      33.054  -4.930  35.535  1.00  0.00     0.303 C 
HETATM    4  C2  UNK     1      32.437  -7.232  35.166  1.00  0.00     0.303 C 
HETATM    5  C3  UNK     1      34.525  -5.343  35.649  1.00  0.00     0.303 C 
HETATM    6  C4  UNK     1      33.908  -7.643  35.278  1.00  0.00     0.303 C 
ENDROOT
BRANCH   2   7
HETATM    7  C6  UNK     1      36.195  -6.943  34.965  1.00  0.00     0.375 C 
BRANCH   7   8
HETATM    8  C9  UNK     1      36.597  -7.727  33.729  1.00  0.00     0.250 C 
HETATM    9  O2  UNK     1      36.642  -7.223  32.611  1.00  0.00    -0.271 OA
HETATM   10  N3  UNK     1      36.897  -9.044  34.071  1.00  0.00    -0.323 N 
HETATM   11  H15 UNK     1      36.811  -9.306  35.051  1.00  0.00     0.169 HD
BRANCH  10  12
HETATM   12  C17 UNK     1      37.311 -10.088  33.209  1.00  0.00     0.068 A 
HETATM   13  C19 UNK     1      36.397 -11.035  32.748  1.00  0.00     0.097 A 
HETATM   14  C21 UNK     1      36.821 -12.057  31.899  1.00  0.00     0.075 A 
HETATM   15  C23 UNK     1      38.158 -12.131  31.510  1.00  0.00     0.070 A 
HETATM   16  C22 UNK     1      39.072 -11.184  31.971  1.00  0.00     0.039 A 
HETATM   17  C20 UNK     1      38.649 -10.162  32.821  1.00  0.00     0.035 A 
BRANCH  13  18
HETATM   18  O4  UNK     1      35.086 -10.981  33.116  1.00  0.00    -0.354 OA
HETATM   19  C24 UNK     1      34.173 -10.415  32.178  1.00  0.00     0.210 C 
ENDBRANCH  13  18
BRANCH  15  20
HETATM   20  O5  UNK     1      38.571 -13.129  30.681  1.00  0.00    -0.356 OA
HETATM   21  C25 UNK     1      37.662 -13.545  29.663  1.00  0.00     0.210 C 
ENDBRANCH  15  20
ENDBRANCH  10  12
ENDBRANCH   7   8
ENDBRANCH   2   7
BRANCH   1  22
HETATM   22  C5  UNK     1      30.766  -5.629  35.845  1.00  0.00     0.312 C 
BRANCH  22  23
HETATM   23  C7  UNK     1      30.083  -5.606  37.168  1.00  0.00    -0.011 A 
HETATM   24  C10 UNK     1      30.117  -4.514  37.946  1.00  0.00     0.092 A 
HETATM   25  C13 UNK     1      29.458  -4.443  39.260  1.00  0.00     0.288 A 
HETATM   26  O1  UNK     1      28.781  -5.579  39.679  1.00  0.00    -0.275 OA
HETATM   27  O3  UNK     1      29.509  -3.427  39.944  1.00  0.00    -0.260 OA
HETATM   28  C11 UNK     1      28.727  -6.741  38.883  1.00  0.00     0.090 A 
HETATM   29  C8  UNK     1      29.357  -6.792  37.639  1.00  0.00     0.006 A 
HETATM   30  C14 UNK     1      28.017  -7.823  39.405  1.00  0.00     0.045 A 
HETATM   31  C12 UNK     1      29.258  -7.985  36.910  1.00  0.00     0.015 A 
HETATM   32  C16 UNK     1      28.550  -9.079  37.420  1.00  0.00     0.007 A 
HETATM   33  C15 UNK     1      27.930  -8.998  38.666  1.00  0.00    -0.059 A 
HETATM   34  C18 UNK     1      27.177 -10.167  39.203  1.00  0.00     0.048 C 
ENDBRANCH  22  23
ENDBRANCH   1  22
TORSDOF 7
ENDMDL
MODEL 10
REMARK VINA RESULT:      -8.6     25.185     28.874
REMARK  7 active torsions:
REMARK  status: ('A' for Active; 'I' for Inactive)
REMARK    1  A    between atoms: C19_27  and  O4_4 
REMARK    2  A    between atoms: C23_31  and  O5_5 
REMARK    3  A    between atoms: C5_13  and  N1_6 
REMARK    4  A    between atoms: C6_14  and  N2_7 
REMARK    5  A    between atoms: C17_25  and  N3_8 
REMARK       I    between atoms: C9_17  and  N3_8 
REMARK    6  A    between atoms: C5_13  and  C7_15 
REMARK    7  A    between atoms: C6_14  and  C9_17 
ROOT
HETATM    1  N1  UNK     1      11.654   6.944   7.276  1.00  0.00     0.096 N 
HETATM    2  N2  UNK     1       9.202   5.728   8.205  1.00  0.00     0.100 N 
HETATM    3  C1  UNK     1      11.498   6.510   8.670  1.00  0.00     0.303 C 
HETATM    4  C2  UNK     1      10.828   6.118   6.386  1.00  0.00     0.303 C 
HETATM    5  C3  UNK     1      10.026   6.555   9.093  1.00  0.00     0.303 C 
HETATM    6  C4  UNK     1       9.357   6.163   6.811  1.00  0.00     0.303 C 
ENDROOT
BRANCH   2   7
HETATM    7  C6  UNK     1       7.798   5.772   8.609  1.00  0.00     0.375 C 
BRANCH   7   8
HETATM    8  C9  UNK     1       7.550   4.734   9.689  1.00  0.00     0.250 C 
HETATM    9  O2  UNK     1       8.250   3.736   9.821  1.00  0.00    -0.271 OA
HETATM   10  N3  UNK     1       6.450   5.100  10.464  1.00  0.00    -0.323 N 
HETATM   11  H15 UNK     1       5.973   5.966  10.223  1.00  0.00     0.169 HD
BRANCH  10  12
HETATM   12  C17 UNK     1       5.900   4.402  11.566  1.00  0.00     0.068 A 
HETATM   13  C19 UNK     1       5.108   3.270  11.367  1.00  0.00     0.097 A 
HETATM   14  C21 UNK     1       4.573   2.593  12.463  1.00  0.00     0.075 A 
HETATM   15  C23 UNK     1       4.831   3.046  13.756  1.00  0.00     0.070 A 
HETATM   16  C22 UNK     1       5.622   4.178  13.955  1.00  0.00     0.039 A 
HETATM   17  C20 UNK     1       6.157   4.855  12.859  1.00  0.00     0.035 A 
BRANCH  13  18
HETATM   18  O4  UNK     1       4.845   2.811  10.111  1.00  0.00    -0.354 OA
HETATM   19  C24 UNK     1       5.204   1.461   9.827  1.00  0.00     0.210 C 
ENDBRANCH  13  18
BRANCH  15  20
HETATM   20  O5  UNK     1       4.308   2.385  14.825  1.00  0.00    -0.356 OA
HETATM   21  C25 UNK     1       5.227   1.704  15.679  1.00  0.00     0.210 C 
ENDBRANCH  15  20
ENDBRANCH  10  12
ENDBRANCH   7   8
ENDBRANCH   2   7
BRANCH   1  22
HETATM   22  C5  UNK     1      13.059   6.898   6.872  1.00  0.00     0.312 C 
BRANCH  22  23
HETATM   23  C7  UNK     1      13.970   6.684   8.030  1.00  0.00    -0.011 A 
HETATM   24  C10 UNK     1      14.301   5.449   8.433  1.00  0.00     0.092 A 
HETATM   25  C13 UNK     1      15.196   5.188   9.572  1.00  0.00     0.288 A 
HETATM   26  O1  UNK     1      15.701   6.297  10.234  1.00  0.00    -0.275 OA
HETATM   27  O3  UNK     1      15.477   4.044   9.912  1.00  0.00    -0.260 OA
HETATM   28  C11 UNK     1      15.372   7.607   9.833  1.00  0.00     0.090 A 
HETATM   29  C8  UNK     1      14.522   7.839   8.751  1.00  0.00     0.006 A 
HETATM   30  C14 UNK     1      15.939   8.647  10.573  1.00  0.00     0.045 A 
HETATM   31  C12 UNK     1      14.243   9.171   8.418  1.00  0.00     0.015 A 
HETATM   32  C16 UNK     1      14.803  10.224   9.149  1.00  0.00     0.007 A 
HETATM   33  C15 UNK     1      15.650   9.963  10.225  1.00  0.00    -0.059 A 
HETATM   34  C18 UNK     1      16.244  11.089  10.999  1.00  0.00     0.048 C 
ENDBRANCH  22  23
ENDBRANCH   1  22
TORSDOF 7
ENDMDL
