MODEL 1
REMARK VINA RESULT:     -10.0      0.000      0.000
REMARK  5 active torsions:
REMARK  status: ('A' for Active; 'I' for Inactive)
REMARK    1  A    between atoms: C14_21  and  N1_6 
REMARK       I    between atoms: C17_24  and  N1_6 
REMARK    2  A    between atoms: C1_8  and  C2_9 
REMARK    3  A    between atoms: C1_8  and  C3_10 
REMARK    4  A    between atoms: C5_12  and  C8_15 
REMARK    5  A    between atoms: C16_23  and  C17_24 
ROOT
HETATM    1  S1  UNK     1      18.544   9.000  33.968  1.00  0.00    -0.075 SA
HETATM    2  N2  UNK     1      14.647   7.103  31.297  1.00  0.00    -0.191 NA
HETATM    3  C8  UNK     1      18.055   6.969  32.472  1.00  0.00     0.011 A 
HETATM    4  C12 UNK     1      19.057   7.549  33.218  1.00  0.00    -0.006 A 
HETATM    5  C13 UNK     1      16.848   7.727  32.516  1.00  0.00     0.090 A 
HETATM    6  C14 UNK     1      17.005   8.822  33.284  1.00  0.00     0.099 A 
HETATM    7  C15 UNK     1      20.450   7.094  33.439  1.00  0.00     0.057 C 
HETATM    8  C20 UNK     1      15.633   7.383  31.843  1.00  0.00     0.103 C 
ENDROOT
BRANCH   3   9
HETATM    9  C5  UNK     1      18.286   5.736  31.759  1.00  0.00    -0.023 A 
HETATM   10  C10 UNK     1      18.792   5.772  30.464  1.00  0.00     0.013 A 
HETATM   11  C7  UNK     1      19.017   4.580  29.775  1.00  0.00     0.008 A 
HETATM   12  C2  UNK     1      18.733   3.359  30.385  1.00  0.00    -0.054 A 
HETATM   13  C6  UNK     1      18.227   3.328  31.684  1.00  0.00     0.008 A 
HETATM   14  C9  UNK     1      18.002   4.520  32.373  1.00  0.00     0.013 A 
BRANCH  12  15
HETATM   15  C1  UNK     1      18.973   2.084  29.649  1.00  0.00     0.014 C 
HETATM   16  C4  UNK     1      17.859   1.805  28.617  1.00  0.00     0.015 C 
BRANCH  15  17
HETATM   17  C3  UNK     1      19.118   0.835  30.562  1.00  0.00     0.004 C 
HETATM   18  C11 UNK     1      20.380   0.035  30.267  1.00  0.00     0.006 C 
ENDBRANCH  15  17
ENDBRANCH  12  15
ENDBRANCH   3   9
BRANCH   6  19
HETATM   19  N1  UNK     1      16.085   9.848  33.608  1.00  0.00    -0.316 N 
HETATM   20  C17 UNK     1      14.831   9.710  34.186  1.00  0.00     0.262 C 
HETATM   21  O2  UNK     1      14.266   8.673  34.534  1.00  0.00    -0.267 OA
HETATM   22  H17 UNK     1      16.411  10.777  33.355  1.00  0.00     0.170 HD
BRANCH  20  23
HETATM   23  C16 UNK     1      14.161  11.002  34.375  1.00  0.00     0.108 A 
HETATM   24  C19 UNK     1      13.052  11.204  33.654  1.00  0.00     0.037 A 
HETATM   25  C18 UNK     1      12.318  12.455  33.774  1.00  0.00     0.001 A 
HETATM   26  C21 UNK     1      12.789  13.431  34.645  1.00  0.00     0.089 A 
HETATM   27  C23 UNK     1      11.156  12.709  33.041  1.00  0.00     0.038 A 
HETATM   28  O1  UNK     1      13.958  13.212  35.401  1.00  0.00    -0.274 OA
HETATM   29  C24 UNK     1      12.134  14.650  34.805  1.00  0.00     0.040 A 
HETATM   30  C22 UNK     1      14.682  12.026  35.308  1.00  0.00     0.304 A 
HETATM   31  O3  UNK     1      15.698  11.844  35.970  1.00  0.00    -0.259 OA
HETATM   32  C26 UNK     1      10.976  14.896  34.071  1.00  0.00     0.026 A 
HETATM   33  C25 UNK     1      10.488  13.928  33.191  1.00  0.00     0.035 A 
HETATM   34 Cl1  UNK     1       9.055  14.237  32.287  1.00  0.00    -0.084 Cl
ENDBRANCH  20  23
ENDBRANCH   6  19
TORSDOF 5
ENDMDL
MODEL 2
REMARK VINA RESULT:     -10.0     10.145     15.553
REMARK  5 active torsions:
REMARK  status: ('A' for Active; 'I' for Inactive)
REMARK    1  A    between atoms: C14_21  and  N1_6 
REMARK       I    between atoms: C17_24  and  N1_6 
REMARK    2  A    between atoms: C1_8  and  C2_9 
REMARK    3  A    between atoms: C1_8  and  C3_10 
REMARK    4  A    between atoms: C5_12  and  C8_15 
REMARK    5  A    between atoms: C16_23  and  C17_24 
ROOT
HETATM    1  S1  UNK     1      17.974  -1.591  37.855  1.00  0.00    -0.075 SA
HETATM    2  N2  UNK     1      19.845  -1.810  33.125  1.00  0.00    -0.191 NA
HETATM    3  C8  UNK     1      18.392   0.004  35.884  1.00  0.00     0.011 A 
HETATM    4  C12 UNK     1      17.901  -0.023  37.171  1.00  0.00    -0.006 A 
HETATM    5  C13 UNK     1      18.834  -1.281  35.453  1.00  0.00     0.090 A 
HETATM    6  C14 UNK     1      18.655  -2.194  36.427  1.00  0.00     0.099 A 
HETATM    7  C15 UNK     1      17.348   1.081  37.991  1.00  0.00     0.057 C 
HETATM    8  C20 UNK     1      19.392  -1.573  34.168  1.00  0.00     0.103 C 
ENDROOT
BRANCH   3   9
HETATM    9  C5  UNK     1      18.418   1.235  35.131  1.00  0.00    -0.023 A 
HETATM   10  C10 UNK     1      19.015   2.365  35.677  1.00  0.00     0.013 A 
HETATM   11  C7  UNK     1      19.041   3.555  34.950  1.00  0.00     0.008 A 
HETATM   12  C2  UNK     1      18.468   3.608  33.679  1.00  0.00    -0.054 A 
HETATM   13  C6  UNK     1      17.871   2.470  33.135  1.00  0.00     0.008 A 
HETATM   14  C9  UNK     1      17.845   1.281  33.864  1.00  0.00     0.013 A 
BRANCH  12  15
HETATM   15  C1  UNK     1      18.495   4.879  32.901  1.00  0.00     0.014 C 
HETATM   16  C4  UNK     1      18.947   4.646  31.444  1.00  0.00     0.015 C 
BRANCH  15  17
HETATM   17  C3  UNK     1      19.389   5.989  33.520  1.00  0.00     0.004 C 
HETATM   18  C11 UNK     1      20.569   6.357  32.629  1.00  0.00     0.006 C 
ENDBRANCH  15  17
ENDBRANCH  12  15
ENDBRANCH   3   9
BRANCH   6  19
HETATM   19  N1  UNK     1      18.947  -3.579  36.442  1.00  0.00    -0.316 N 
HETATM   20  C17 UNK     1      20.022  -4.212  37.049  1.00  0.00     0.262 C 
HETATM   21  O2  UNK     1      20.938  -3.702  37.694  1.00  0.00    -0.267 OA
HETATM   22  H17 UNK     1      18.276  -4.139  35.922  1.00  0.00     0.170 HD
BRANCH  20  23
HETATM   23  C16 UNK     1      19.993  -5.666  36.854  1.00  0.00     0.108 A 
HETATM   24  C19 UNK     1      19.806  -6.407  37.952  1.00  0.00     0.037 A 
HETATM   25  C18 UNK     1      19.763  -7.859  37.858  1.00  0.00     0.001 A 
HETATM   26  C21 UNK     1      19.919  -8.458  36.612  1.00  0.00     0.089 A 
HETATM   27  C23 UNK     1      19.569  -8.671  38.977  1.00  0.00     0.038 A 
HETATM   28  O1  UNK     1      20.116  -7.672  35.460  1.00  0.00    -0.274 OA
HETATM   29  C24 UNK     1      19.889  -9.842  36.455  1.00  0.00     0.040 A 
HETATM   30  C22 UNK     1      20.163  -6.281  35.518  1.00  0.00     0.304 A 
HETATM   31  O3  UNK     1      20.335  -5.606  34.510  1.00  0.00    -0.259 OA
HETATM   32  C26 UNK     1      19.695 -10.645  37.576  1.00  0.00     0.026 A 
HETATM   33  C25 UNK     1      19.537 -10.062  38.835  1.00  0.00     0.035 A 
HETATM   34 Cl1  UNK     1      19.297 -11.060  40.218  1.00  0.00    -0.084 Cl
ENDBRANCH  20  23
ENDBRANCH   6  19
TORSDOF 5
ENDMDL
MODEL 3
REMARK VINA RESULT:      -9.7      2.021      2.557
REMARK  5 active torsions:
REMARK  status: ('A' for Active; 'I' for Inactive)
REMARK    1  A    between atoms: C14_21  and  N1_6 
REMARK       I    between atoms: C17_24  and  N1_6 
REMARK    2  A    between atoms: C1_8  and  C2_9 
REMARK    3  A    between atoms: C1_8  and  C3_10 
REMARK    4  A    between atoms: C5_12  and  C8_15 
REMARK    5  A    between atoms: C16_23  and  C17_24 
ROOT
HETATM    1  S1  UNK     1      18.450   8.721  34.154  1.00  0.00    -0.075 SA
HETATM    2  N2  UNK     1      14.457   6.633  31.786  1.00  0.00    -0.191 NA
HETATM    3  C8  UNK     1      17.971   6.738  32.593  1.00  0.00     0.011 A 
HETATM    4  C12 UNK     1      18.997   7.363  33.267  1.00  0.00    -0.006 A 
HETATM    5  C13 UNK     1      16.718   7.383  32.809  1.00  0.00     0.090 A 
HETATM    6  C14 UNK     1      16.867   8.445  33.623  1.00  0.00     0.099 A 
HETATM    7  C15 UNK     1      20.438   7.021  33.314  1.00  0.00     0.057 C 
HETATM    8  C20 UNK     1      15.469   6.969  32.244  1.00  0.00     0.103 C 
ENDROOT
BRANCH   3   9
HETATM    9  C5  UNK     1      18.224   5.569  31.785  1.00  0.00    -0.023 A 
HETATM   10  C10 UNK     1      18.704   5.719  30.488  1.00  0.00     0.013 A 
HETATM   11  C7  UNK     1      18.950   4.590  29.706  1.00  0.00     0.008 A 
HETATM   12  C2  UNK     1      18.714   3.317  30.227  1.00  0.00    -0.054 A 
HETATM   13  C6  UNK     1      18.233   3.173  31.528  1.00  0.00     0.008 A 
HETATM   14  C9  UNK     1      17.987   4.303  32.309  1.00  0.00     0.013 A 
BRANCH  12  15
HETATM   15  C1  UNK     1      18.976   2.110  29.392  1.00  0.00     0.014 C 
HETATM   16  C4  UNK     1      17.751   1.736  28.531  1.00  0.00     0.015 C 
BRANCH  15  17
HETATM   17  C3  UNK     1      19.408   0.855  30.200  1.00  0.00     0.004 C 
HETATM   18  C11 UNK     1      20.334  -0.062  29.411  1.00  0.00     0.006 C 
ENDBRANCH  15  17
ENDBRANCH  12  15
ENDBRANCH   3   9
BRANCH   6  19
HETATM   19  N1  UNK     1      15.905   9.367  34.103  1.00  0.00    -0.316 N 
HETATM   20  C17 UNK     1      15.998  10.751  34.130  1.00  0.00     0.262 C 
HETATM   21  O2  UNK     1      16.929  11.457  33.743  1.00  0.00    -0.267 OA
HETATM   22  H17 UNK     1      15.073   8.921  34.481  1.00  0.00     0.170 HD
BRANCH  20  23
HETATM   23  C16 UNK     1      14.799  11.377  34.701  1.00  0.00     0.108 A 
HETATM   24  C19 UNK     1      14.986  12.122  35.797  1.00  0.00     0.037 A 
HETATM   25  C18 UNK     1      13.857  12.782  36.435  1.00  0.00     0.001 A 
HETATM   26  C21 UNK     1      12.588  12.625  35.887  1.00  0.00     0.089 A 
HETATM   27  C23 UNK     1      14.005  13.569  37.579  1.00  0.00     0.038 A 
HETATM   28  O1  UNK     1      12.399  11.840  34.734  1.00  0.00    -0.274 OA
HETATM   29  C24 UNK     1      11.466  13.230  36.450  1.00  0.00     0.040 A 
HETATM   30  C22 UNK     1      13.458  11.195  34.101  1.00  0.00     0.304 A 
HETATM   31  O3  UNK     1      13.284  10.513  33.097  1.00  0.00    -0.259 OA
HETATM   32  C26 UNK     1      11.622  14.013  37.591  1.00  0.00     0.026 A 
HETATM   33  C25 UNK     1      12.888  14.182  38.156  1.00  0.00     0.035 A 
HETATM   34 Cl1  UNK     1      13.076  15.152  39.566  1.00  0.00    -0.084 Cl
ENDBRANCH  20  23
ENDBRANCH   6  19
TORSDOF 5
ENDMDL
MODEL 4
REMARK VINA RESULT:      -9.4      4.826     11.162
REMARK  5 active torsions:
REMARK  status: ('A' for Active; 'I' for Inactive)
REMARK    1  A    between atoms: C14_21  and  N1_6 
REMARK       I    between atoms: C17_24  and  N1_6 
REMARK    2  A    between atoms: C1_8  and  C2_9 
REMARK    3  A    between atoms: C1_8  and  C3_10 
REMARK    4  A    between atoms: C5_12  and  C8_15 
REMARK    5  A    between atoms: C16_23  and  C17_24 
ROOT
HETATM    1  S1  UNK     1      20.185   6.826  33.140  1.00  0.00    -0.075 SA
HETATM    2  N2  UNK     1      15.274   6.350  31.888  1.00  0.00    -0.191 NA
HETATM    3  C8  UNK     1      17.986   8.109  33.487  1.00  0.00     0.011 A 
HETATM    4  C12 UNK     1      19.331   8.162  33.783  1.00  0.00    -0.006 A 
HETATM    5  C13 UNK     1      17.654   6.954  32.720  1.00  0.00     0.090 A 
HETATM    6  C14 UNK     1      18.751   6.210  32.484  1.00  0.00     0.099 A 
HETATM    7  C15 UNK     1      20.086   9.181  34.550  1.00  0.00     0.057 C 
HETATM    8  C20 UNK     1      16.340   6.620  32.261  1.00  0.00     0.103 C 
ENDROOT
BRANCH   3   9
HETATM    9  C5  UNK     1      17.090   9.145  33.940  1.00  0.00    -0.023 A 
HETATM   10  C10 UNK     1      15.914   8.801  34.597  1.00  0.00     0.013 A 
HETATM   11  C7  UNK     1      15.048   9.803  35.036  1.00  0.00     0.008 A 
HETATM   12  C2  UNK     1      15.363  11.143  34.814  1.00  0.00    -0.054 A 
HETATM   13  C6  UNK     1      16.544  11.483  34.155  1.00  0.00     0.008 A 
HETATM   14  C9  UNK     1      17.410  10.480  33.716  1.00  0.00     0.013 A 
BRANCH  12  15
HETATM   15  C1  UNK     1      14.437  12.214  35.282  1.00  0.00     0.014 C 
HETATM   16  C4  UNK     1      14.582  12.470  36.797  1.00  0.00     0.015 C 
BRANCH  15  17
HETATM   17  C3  UNK     1      12.938  11.944  34.973  1.00  0.00     0.004 C 
HETATM   18  C11 UNK     1      12.615  12.058  33.488  1.00  0.00     0.006 C 
ENDBRANCH  15  17
ENDBRANCH  12  15
ENDBRANCH   3   9
BRANCH   6  19
HETATM   19  N1  UNK     1      18.892   4.994  31.773  1.00  0.00    -0.316 N 
HETATM   20  C17 UNK     1      18.334   3.762  32.083  1.00  0.00     0.262 C 
HETATM   21  O2  UNK     1      17.608   3.475  33.033  1.00  0.00    -0.267 OA
HETATM   22  H17 UNK     1      19.494   5.071  30.957  1.00  0.00     0.170 HD
BRANCH  20  23
HETATM   23  C16 UNK     1      18.702   2.726  31.111  1.00  0.00     0.108 A 
HETATM   24  C19 UNK     1      19.131   1.564  31.618  1.00  0.00     0.037 A 
HETATM   25  C18 UNK     1      19.518   0.476  30.731  1.00  0.00     0.001 A 
HETATM   26  C21 UNK     1      19.435   0.666  29.356  1.00  0.00     0.089 A 
HETATM   27  C23 UNK     1      19.971  -0.753  31.216  1.00  0.00     0.038 A 
HETATM   28  O1  UNK     1      18.983   1.892  28.829  1.00  0.00    -0.274 OA
HETATM   29  C24 UNK     1      19.791  -0.334  28.454  1.00  0.00     0.040 A 
HETATM   30  C22 UNK     1      18.606   2.951  29.651  1.00  0.00     0.304 A 
HETATM   31  O3  UNK     1      18.214   4.014  29.183  1.00  0.00    -0.259 OA
HETATM   32  C26 UNK     1      20.242  -1.557  28.945  1.00  0.00     0.026 A 
HETATM   33  C25 UNK     1      20.332  -1.767  30.323  1.00  0.00     0.035 A 
HETATM   34 Cl1  UNK     1      20.889  -3.281  30.925  1.00  0.00    -0.084 Cl
ENDBRANCH  20  23
ENDBRANCH   6  19
TORSDOF 5
ENDMDL
MODEL 5
REMARK VINA RESULT:      -9.2      7.688     11.455
REMARK  5 active torsions:
REMARK  status: ('A' for Active; 'I' for Inactive)
REMARK    1  A    between atoms: C14_21  and  N1_6 
REMARK       I    between atoms: C17_24  and  N1_6 
REMARK    2  A    between atoms: C1_8  and  C2_9 
REMARK    3  A    between atoms: C1_8  and  C3_10 
REMARK    4  A    between atoms: C5_12  and  C8_15 
REMARK    5  A    between atoms: C16_23  and  C17_24 
ROOT
HETATM    1  S1  UNK     1      18.151  -0.301  36.237  1.00  0.00    -0.075 SA
HETATM    2  N2  UNK     1      21.145  -2.788  32.956  1.00  0.00    -0.191 NA
HETATM    3  C8  UNK     1      19.443  -2.519  36.124  1.00  0.00     0.011 A 
HETATM    4  C12 UNK     1      18.626  -1.782  36.953  1.00  0.00    -0.006 A 
HETATM    5  C13 UNK     1      19.682  -1.859  34.884  1.00  0.00     0.090 A 
HETATM    6  C14 UNK     1      19.040  -0.676  34.846  1.00  0.00     0.099 A 
HETATM    7  C15 UNK     1      18.135  -2.098  38.316  1.00  0.00     0.057 C 
HETATM    8  C20 UNK     1      20.490  -2.371  33.819  1.00  0.00     0.103 C 
ENDROOT
BRANCH   3   9
HETATM    9  C5  UNK     1      19.953  -3.802  36.544  1.00  0.00    -0.023 A 
HETATM   10  C10 UNK     1      21.000  -3.863  37.457  1.00  0.00     0.013 A 
HETATM   11  C7  UNK     1      21.494  -5.103  37.863  1.00  0.00     0.008 A 
HETATM   12  C2  UNK     1      20.937  -6.275  37.353  1.00  0.00    -0.054 A 
HETATM   13  C6  UNK     1      19.886  -6.209  36.438  1.00  0.00     0.008 A 
HETATM   14  C9  UNK     1      19.394  -4.968  36.032  1.00  0.00     0.013 A 
BRANCH  12  15
HETATM   15  C1  UNK     1      21.464  -7.602  37.787  1.00  0.00     0.014 C 
HETATM   16  C4  UNK     1      20.988  -8.735  36.854  1.00  0.00     0.015 C 
BRANCH  15  17
HETATM   17  C3  UNK     1      21.103  -7.986  39.248  1.00  0.00     0.004 C 
HETATM   18  C11 UNK     1      19.837  -8.829  39.339  1.00  0.00     0.006 C 
ENDBRANCH  15  17
ENDBRANCH  12  15
ENDBRANCH   3   9
BRANCH   6  19
HETATM   19  N1  UNK     1      18.993   0.304  33.825  1.00  0.00    -0.316 N 
HETATM   20  C17 UNK     1      18.581   0.139  32.510  1.00  0.00     0.262 C 
HETATM   21  O2  UNK     1      18.173  -0.887  31.966  1.00  0.00    -0.267 OA
HETATM   22  H17 UNK     1      19.326   1.216  34.126  1.00  0.00     0.170 HD
BRANCH  20  23
HETATM   23  C16 UNK     1      18.669   1.384  31.740  1.00  0.00     0.108 A 
HETATM   24  C19 UNK     1      18.351   2.508  32.394  1.00  0.00     0.037 A 
HETATM   25  C18 UNK     1      18.409   3.793  31.712  1.00  0.00     0.001 A 
HETATM   26  C21 UNK     1      18.798   3.831  30.377  1.00  0.00     0.089 A 
HETATM   27  C23 UNK     1      18.086   4.990  32.355  1.00  0.00     0.038 A 
HETATM   28  O1  UNK     1      19.130   2.644  29.696  1.00  0.00    -0.274 OA
HETATM   29  C24 UNK     1      18.872   5.028  29.669  1.00  0.00     0.040 A 
HETATM   30  C22 UNK     1      19.085   1.400  30.319  1.00  0.00     0.304 A 
HETATM   31  O3  UNK     1      19.376   0.372  29.718  1.00  0.00    -0.259 OA
HETATM   32  C26 UNK     1      18.549   6.218  30.316  1.00  0.00     0.026 A 
HETATM   33  C25 UNK     1      18.156   6.200  31.656  1.00  0.00     0.035 A 
HETATM   34 Cl1  UNK     1      17.759   7.674  32.453  1.00  0.00    -0.084 Cl
ENDBRANCH  20  23
ENDBRANCH   6  19
TORSDOF 5
ENDMDL
MODEL 6
REMARK VINA RESULT:      -8.7     20.509     23.820
REMARK  5 active torsions:
REMARK  status: ('A' for Active; 'I' for Inactive)
REMARK    1  A    between atoms: C14_21  and  N1_6 
REMARK       I    between atoms: C17_24  and  N1_6 
REMARK    2  A    between atoms: C1_8  and  C2_9 
REMARK    3  A    between atoms: C1_8  and  C3_10 
REMARK    4  A    between atoms: C5_12  and  C8_15 
REMARK    5  A    between atoms: C16_23  and  C17_24 
ROOT
HETATM    1  S1  UNK     1      29.527  -9.416  38.887  1.00  0.00    -0.075 SA
HETATM    2  N2  UNK     1      28.278  -8.463  34.045  1.00  0.00    -0.191 NA
HETATM    3  C8  UNK     1      27.453  -9.569  37.378  1.00  0.00     0.011 A 
HETATM    4  C12 UNK     1      27.873  -9.800  38.669  1.00  0.00    -0.006 A 
HETATM    5  C13 UNK     1      28.505  -9.069  36.556  1.00  0.00     0.090 A 
HETATM    6  C14 UNK     1      29.644  -8.952  37.264  1.00  0.00     0.099 A 
HETATM    7  C15 UNK     1      27.108 -10.314  39.830  1.00  0.00     0.057 C 
HETATM    8  C20 UNK     1      28.380  -8.734  35.169  1.00  0.00     0.103 C 
ENDROOT
BRANCH   3   9
HETATM    9  C5  UNK     1      26.089  -9.830  36.988  1.00  0.00    -0.023 A 
HETATM   10  C10 UNK     1      25.109  -8.870  37.217  1.00  0.00     0.013 A 
HETATM   11  C7  UNK     1      23.790  -9.122  36.841  1.00  0.00     0.008 A 
HETATM   12  C2  UNK     1      23.458 -10.334  36.238  1.00  0.00    -0.054 A 
HETATM   13  C6  UNK     1      24.444 -11.295  36.009  1.00  0.00     0.008 A 
HETATM   14  C9  UNK     1      25.763 -11.042  36.387  1.00  0.00     0.013 A 
BRANCH  12  15
HETATM   15  C1  UNK     1      22.047 -10.605  35.835  1.00  0.00     0.014 C 
HETATM   16  C4  UNK     1      21.431  -9.409  35.080  1.00  0.00     0.015 C 
BRANCH  15  17
HETATM   17  C3  UNK     1      21.106 -10.977  37.015  1.00  0.00     0.004 C 
HETATM   18  C11 UNK     1      19.955  -9.992  37.180  1.00  0.00     0.006 C 
ENDBRANCH  15  17
ENDBRANCH  12  15
ENDBRANCH   3   9
BRANCH   6  19
HETATM   19  N1  UNK     1      30.925  -8.502  36.861  1.00  0.00    -0.316 N 
HETATM   20  C17 UNK     1      31.330  -7.195  36.630  1.00  0.00     0.262 C 
HETATM   21  O2  UNK     1      30.664  -6.166  36.726  1.00  0.00    -0.267 OA
HETATM   22  H17 UNK     1      31.592  -9.257  36.719  1.00  0.00     0.170 HD
BRANCH  20  23
HETATM   23  C16 UNK     1      32.739  -7.114  36.226  1.00  0.00     0.108 A 
HETATM   24  C19 UNK     1      33.085  -7.815  35.140  1.00  0.00     0.037 A 
HETATM   25  C18 UNK     1      34.460  -7.796  34.663  1.00  0.00     0.001 A 
HETATM   26  C21 UNK     1      35.402  -7.041  35.354  1.00  0.00     0.089 A 
HETATM   27  C23 UNK     1      34.865  -8.512  33.535  1.00  0.00     0.038 A 
HETATM   28  O1  UNK     1      35.031  -6.306  36.497  1.00  0.00    -0.274 OA
HETATM   29  C24 UNK     1      36.734  -6.982  34.950  1.00  0.00     0.040 A 
HETATM   30  C22 UNK     1      33.724  -6.304  36.978  1.00  0.00     0.304 A 
HETATM   31  O3  UNK     1      33.411  -5.661  37.973  1.00  0.00    -0.259 OA
HETATM   32  C26 UNK     1      37.131  -7.698  33.823  1.00  0.00     0.026 A 
HETATM   33  C25 UNK     1      36.199  -8.463  33.117  1.00  0.00     0.035 A 
HETATM   34 Cl1  UNK     1      36.694  -9.346  31.724  1.00  0.00    -0.084 Cl
ENDBRANCH  20  23
ENDBRANCH   6  19
TORSDOF 5
ENDMDL
MODEL 7
REMARK VINA RESULT:      -8.6     22.487     24.267
REMARK  5 active torsions:
REMARK  status: ('A' for Active; 'I' for Inactive)
REMARK    1  A    between atoms: C14_21  and  N1_6 
REMARK       I    between atoms: C17_24  and  N1_6 
REMARK    2  A    between atoms: C1_8  and  C2_9 
REMARK    3  A    between atoms: C1_8  and  C3_10 
REMARK    4  A    between atoms: C5_12  and  C8_15 
REMARK    5  A    between atoms: C16_23  and  C17_24 
ROOT
HETATM    1  S1  UNK     1      17.210   7.332  10.425  1.00  0.00    -0.075 SA
HETATM    2  N2  UNK     1      14.144  11.104   8.911  1.00  0.00    -0.191 NA
HETATM    3  C8  UNK     1      14.902   7.602   9.330  1.00  0.00     0.011 A 
HETATM    4  C12 UNK     1      15.789   6.643   9.766  1.00  0.00    -0.006 A 
HETATM    5  C13 UNK     1      15.396   8.922   9.541  1.00  0.00     0.090 A 
HETATM    6  C14 UNK     1      16.613   8.886  10.117  1.00  0.00     0.099 A 
HETATM    7  C15 UNK     1      15.669   5.166   9.734  1.00  0.00     0.057 C 
HETATM    8  C20 UNK     1      14.705  10.127   9.193  1.00  0.00     0.103 C 
ENDROOT
BRANCH   3   9
HETATM    9  C5  UNK     1      13.640   7.225   8.740  1.00  0.00    -0.023 A 
HETATM   10  C10 UNK     1      13.568   6.958   7.377  1.00  0.00     0.013 A 
HETATM   11  C7  UNK     1      12.349   6.593   6.807  1.00  0.00     0.008 A 
HETATM   12  C2  UNK     1      11.207   6.498   7.603  1.00  0.00    -0.054 A 
HETATM   13  C6  UNK     1      11.285   6.767   8.969  1.00  0.00     0.008 A 
HETATM   14  C9  UNK     1      12.505   7.133   9.539  1.00  0.00     0.013 A 
BRANCH  12  15
HETATM   15  C1  UNK     1       9.903   6.109   6.993  1.00  0.00     0.014 C 
HETATM   16  C4  UNK     1       9.803   6.564   5.522  1.00  0.00     0.015 C 
BRANCH  15  17
HETATM   17  C3  UNK     1       8.657   6.640   7.756  1.00  0.00     0.004 C 
HETATM   18  C11 UNK     1       7.834   5.523   8.385  1.00  0.00     0.006 C 
ENDBRANCH  15  17
ENDBRANCH  12  15
ENDBRANCH   3   9
BRANCH   6  19
HETATM   19  N1  UNK     1      17.470   9.944  10.504  1.00  0.00    -0.316 N 
HETATM   20  C17 UNK     1      18.238  10.756   9.683  1.00  0.00     0.262 C 
HETATM   21  O2  UNK     1      18.332  10.723   8.456  1.00  0.00    -0.267 OA
HETATM   22  H17 UNK     1      17.512  10.081  11.511  1.00  0.00     0.170 HD
BRANCH  20  23
HETATM   23  C16 UNK     1      19.003  11.751  10.443  1.00  0.00     0.108 A 
HETATM   24  C19 UNK     1      20.336  11.653  10.374  1.00  0.00     0.037 A 
HETATM   25  C18 UNK     1      21.179  12.595  11.096  1.00  0.00     0.001 A 
HETATM   26  C21 UNK     1      20.576  13.594  11.854  1.00  0.00     0.089 A 
HETATM   27  C23 UNK     1      22.573  12.530  11.052  1.00  0.00     0.038 A 
HETATM   28  O1  UNK     1      19.173  13.692  11.922  1.00  0.00    -0.274 OA
HETATM   29  C24 UNK     1      21.326  14.526  12.568  1.00  0.00     0.040 A 
HETATM   30  C22 UNK     1      18.340  12.805  11.244  1.00  0.00     0.304 A 
HETATM   31  O3  UNK     1      17.119  12.898  11.310  1.00  0.00    -0.259 OA
HETATM   32  C26 UNK     1      22.716  14.455  12.519  1.00  0.00     0.026 A 
HETATM   33  C25 UNK     1      23.339  13.459  11.764  1.00  0.00     0.035 A 
HETATM   34 Cl1  UNK     1      25.058  13.375  11.707  1.00  0.00    -0.084 Cl
ENDBRANCH  20  23
ENDBRANCH   6  19
TORSDOF 5
ENDMDL
MODEL 8
REMARK VINA RESULT:      -8.6     22.998     24.741
REMARK  5 active torsions:
REMARK  status: ('A' for Active; 'I' for Inactive)
REMARK    1  A    between atoms: C14_21  and  N1_6 
REMARK       I    between atoms: C17_24  and  N1_6 
REMARK    2  A    between atoms: C1_8  and  C2_9 
REMARK    3  A    between atoms: C1_8  and  C3_10 
REMARK    4  A    between atoms: C5_12  and  C8_15 
REMARK    5  A    between atoms: C16_23  and  C17_24 
ROOT
HETATM    1  S1  UNK     1      15.357  12.397   7.961  1.00  0.00    -0.075 SA
HETATM    2  N2  UNK     1      17.493   8.323  10.142  1.00  0.00    -0.191 NA
HETATM    3  C8  UNK     1      17.586  11.767   9.074  1.00  0.00     0.011 A 
HETATM    4  C12 UNK     1      16.936  12.821   8.470  1.00  0.00    -0.006 A 
HETATM    5  C13 UNK     1      16.775  10.595   9.120  1.00  0.00     0.090 A 
HETATM    6  C14 UNK     1      15.575  10.827   8.556  1.00  0.00     0.099 A 
HETATM    7  C15 UNK     1      17.412  14.202   8.220  1.00  0.00     0.057 C 
HETATM    8  C20 UNK     1      17.171   9.341   9.684  1.00  0.00     0.103 C 
ENDROOT
BRANCH   3   9
HETATM    9  C5  UNK     1      18.931  11.920   9.574  1.00  0.00    -0.023 A 
HETATM   10  C10 UNK     1      19.141  12.159  10.928  1.00  0.00     0.013 A 
HETATM   11  C7  UNK     1      20.441  12.306  11.411  1.00  0.00     0.008 A 
HETATM   12  C2  UNK     1      21.524  12.214  10.537  1.00  0.00    -0.054 A 
HETATM   13  C6  UNK     1      21.308  11.974   9.180  1.00  0.00     0.008 A 
HETATM   14  C9  UNK     1      20.007  11.827   8.697  1.00  0.00     0.013 A 
BRANCH  12  15
HETATM   15  C1  UNK     1      22.914  12.372  11.053  1.00  0.00     0.014 C 
HETATM   16  C4  UNK     1      23.215  13.835  11.441  1.00  0.00     0.015 C 
BRANCH  15  17
HETATM   17  C3  UNK     1      24.019  11.889  10.073  1.00  0.00     0.004 C 
HETATM   18  C11 UNK     1      25.370  11.708  10.754  1.00  0.00     0.006 C 
ENDBRANCH  15  17
ENDBRANCH  12  15
ENDBRANCH   3   9
BRANCH   6  19
HETATM   19  N1  UNK     1      14.467   9.963   8.382  1.00  0.00    -0.316 N 
HETATM   20  C17 UNK     1      13.733   9.317   9.367  1.00  0.00     0.262 C 
HETATM   21  O2  UNK     1      13.893   9.364  10.586  1.00  0.00    -0.267 OA
HETATM   22  H17 UNK     1      14.225   9.809   7.406  1.00  0.00     0.170 HD
BRANCH  20  23
HETATM   23  C16 UNK     1      12.650   8.500   8.806  1.00  0.00     0.108 A 
HETATM   24  C19 UNK     1      11.435   8.686   9.335  1.00  0.00     0.037 A 
HETATM   25  C18 UNK     1      10.298   7.921   8.844  1.00  0.00     0.001 A 
HETATM   26  C21 UNK     1      10.498   6.999   7.822  1.00  0.00     0.089 A 
HETATM   27  C23 UNK     1       9.013   8.082   9.366  1.00  0.00     0.038 A 
HETATM   28  O1  UNK     1      11.780   6.808   7.271  1.00  0.00    -0.274 OA
HETATM   29  C24 UNK     1       9.452   6.235   7.309  1.00  0.00     0.040 A 
HETATM   30  C22 UNK     1      12.887   7.524   7.719  1.00  0.00     0.304 A 
HETATM   31  O3  UNK     1      13.999   7.352   7.233  1.00  0.00    -0.259 OA
HETATM   32  C26 UNK     1       8.173   6.401   7.834  1.00  0.00     0.026 A 
HETATM   33  C25 UNK     1       7.953   7.322   8.861  1.00  0.00     0.035 A 
HETATM   34 Cl1  UNK     1       6.369   7.524   9.506  1.00  0.00    -0.084 Cl
ENDBRANCH  20  23
ENDBRANCH   6  19
TORSDOF 5
ENDMDL
MODEL 9
REMARK VINA RESULT:      -8.5     18.292     21.371
REMARK  5 active torsions:
REMARK  status: ('A' for Active; 'I' for Inactive)
REMARK    1  A    between atoms: C14_21  and  N1_6 
REMARK       I    between atoms: C17_24  and  N1_6 
REMARK    2  A    between atoms: C1_8  and  C2_9 
REMARK    3  A    between atoms: C1_8  and  C3_10 
REMARK    4  A    between atoms: C5_12  and  C8_15 
REMARK    5  A    between atoms: C16_23  and  C17_24 
ROOT
HETATM    1  S1  UNK     1      28.530  -9.629  35.755  1.00  0.00    -0.075 SA
HETATM    2  N2  UNK     1      29.955  -4.916  37.051  1.00  0.00    -0.191 NA
HETATM    3  C8  UNK     1      30.607  -8.131  35.550  1.00  0.00     0.011 A 
HETATM    4  C12 UNK     1      30.144  -9.389  35.236  1.00  0.00    -0.006 A 
HETATM    5  C13 UNK     1      29.624  -7.352  36.227  1.00  0.00     0.090 A 
HETATM    6  C14 UNK     1      28.487  -8.057  36.383  1.00  0.00     0.099 A 
HETATM    7  C15 UNK     1      30.835 -10.501  34.541  1.00  0.00     0.057 C 
HETATM    8  C20 UNK     1      29.806  -6.007  36.683  1.00  0.00     0.103 C 
ENDROOT
BRANCH   3   9
HETATM    9  C5  UNK     1      31.948  -7.730  35.198  1.00  0.00    -0.023 A 
HETATM   10  C10 UNK     1      32.203  -7.208  33.934  1.00  0.00     0.013 A 
HETATM   11  C7  UNK     1      33.498  -6.820  33.593  1.00  0.00     0.008 A 
HETATM   12  C2  UNK     1      34.533  -6.958  34.518  1.00  0.00    -0.054 A 
HETATM   13  C6  UNK     1      34.273  -7.482  35.784  1.00  0.00     0.008 A 
HETATM   14  C9  UNK     1      32.976  -7.870  36.124  1.00  0.00     0.013 A 
BRANCH  12  15
HETATM   15  C1  UNK     1      35.919  -6.545  34.154  1.00  0.00     0.014 C 
HETATM   16  C4  UNK     1      36.041  -6.223  32.650  1.00  0.00     0.015 C 
BRANCH  15  17
HETATM   17  C3  UNK     1      37.014  -7.584  34.523  1.00  0.00     0.004 C 
HETATM   18  C11 UNK     1      37.062  -8.757  33.551  1.00  0.00     0.006 C 
ENDBRANCH  15  17
ENDBRANCH  12  15
ENDBRANCH   3   9
BRANCH   6  19
HETATM   19  N1  UNK     1      27.262  -7.689  36.991  1.00  0.00    -0.316 N 
HETATM   20  C17 UNK     1      26.937  -7.737  38.339  1.00  0.00     0.262 C 
HETATM   21  O2  UNK     1      27.642  -8.107  39.277  1.00  0.00    -0.267 OA
HETATM   22  H17 UNK     1      26.560  -7.376  36.325  1.00  0.00     0.170 HD
BRANCH  20  23
HETATM   23  C16 UNK     1      25.569  -7.273  38.597  1.00  0.00     0.108 A 
HETATM   24  C19 UNK     1      24.623  -8.218  38.644  1.00  0.00     0.037 A 
HETATM   25  C18 UNK     1      23.236  -7.853  38.894  1.00  0.00     0.001 A 
HETATM   26  C21 UNK     1      22.915  -6.513  39.082  1.00  0.00     0.089 A 
HETATM   27  C23 UNK     1      22.216  -8.806  38.952  1.00  0.00     0.038 A 
HETATM   28  O1  UNK     1      23.916  -5.524  39.031  1.00  0.00    -0.274 OA
HETATM   29  C24 UNK     1      21.607  -6.099  39.325  1.00  0.00     0.040 A 
HETATM   30  C22 UNK     1      25.251  -5.840  38.793  1.00  0.00     0.304 A 
HETATM   31  O3  UNK     1      26.116  -4.972  38.751  1.00  0.00    -0.259 OA
HETATM   32  C26 UNK     1      20.595  -7.054  39.381  1.00  0.00     0.026 A 
HETATM   33  C25 UNK     1      20.898  -8.405  39.194  1.00  0.00     0.035 A 
HETATM   34 Cl1  UNK     1      19.643  -9.582  39.266  1.00  0.00    -0.084 Cl
ENDBRANCH  20  23
ENDBRANCH   6  19
TORSDOF 5
ENDMDL
MODEL 10
REMARK VINA RESULT:      -8.5     18.252     21.159
REMARK  5 active torsions:
REMARK  status: ('A' for Active; 'I' for Inactive)
REMARK    1  A    between atoms: C14_21  and  N1_6 
REMARK       I    between atoms: C17_24  and  N1_6 
REMARK    2  A    between atoms: C1_8  and  C2_9 
REMARK    3  A    between atoms: C1_8  and  C3_10 
REMARK    4  A    between atoms: C5_12  and  C8_15 
REMARK    5  A    between atoms: C16_23  and  C17_24 
ROOT
HETATM    1  S1  UNK     1      30.012  -5.692  38.668  1.00  0.00    -0.075 SA
HETATM    2  N2  UNK     1      28.509  -8.197  34.499  1.00  0.00    -0.191 NA
HETATM    3  C8  UNK     1      31.068  -6.705  36.556  1.00  0.00     0.011 A 
HETATM    4  C12 UNK     1      31.391  -6.025  37.710  1.00  0.00    -0.006 A 
HETATM    5  C13 UNK     1      29.668  -6.956  36.458  1.00  0.00     0.090 A 
HETATM    6  C14 UNK     1      29.022  -6.459  37.529  1.00  0.00     0.099 A 
HETATM    7  C15 UNK     1      32.715  -5.570  38.196  1.00  0.00     0.057 C 
HETATM    8  C20 UNK     1      29.028  -7.641  35.377  1.00  0.00     0.103 C 
ENDROOT
BRANCH   3   9
HETATM    9  C5  UNK     1      32.092  -7.080  35.612  1.00  0.00    -0.023 A 
HETATM   10  C10 UNK     1      32.493  -6.176  34.634  1.00  0.00     0.013 A 
HETATM   11  C7  UNK     1      33.483  -6.538  33.720  1.00  0.00     0.008 A 
HETATM   12  C2  UNK     1      34.066  -7.803  33.790  1.00  0.00    -0.054 A 
HETATM   13  C6  UNK     1      33.660  -8.706  34.773  1.00  0.00     0.008 A 
HETATM   14  C9  UNK     1      32.670  -8.343  35.686  1.00  0.00     0.013 A 
BRANCH  12  15
HETATM   15  C1  UNK     1      35.125  -8.192  32.813  1.00  0.00     0.014 C 
HETATM   16  C4  UNK     1      35.515  -9.677  32.958  1.00  0.00     0.015 C 
BRANCH  15  17
HETATM   17  C3  UNK     1      36.419  -7.335  32.898  1.00  0.00     0.004 C 
HETATM   18  C11 UNK     1      37.081  -7.406  34.269  1.00  0.00     0.006 C 
ENDBRANCH  15  17
ENDBRANCH  12  15
ENDBRANCH   3   9
BRANCH   6  19
HETATM   19  N1  UNK     1      27.643  -6.477  37.851  1.00  0.00    -0.316 N 
HETATM   20  C17 UNK     1      26.951  -7.449  38.559  1.00  0.00     0.262 C 
HETATM   21  O2  UNK     1      27.390  -8.488  39.050  1.00  0.00    -0.267 OA
HETATM   22  H17 UNK     1      27.133  -5.676  37.487  1.00  0.00     0.170 HD
BRANCH  20  23
HETATM   23  C16 UNK     1      25.526  -7.125  38.699  1.00  0.00     0.108 A 
HETATM   24  C19 UNK     1      24.671  -8.145  38.559  1.00  0.00     0.037 A 
HETATM   25  C18 UNK     1      23.238  -7.921  38.681  1.00  0.00     0.001 A 
HETATM   26  C21 UNK     1      22.777  -6.635  38.943  1.00  0.00     0.089 A 
HETATM   27  C23 UNK     1      22.309  -8.955  38.543  1.00  0.00     0.038 A 
HETATM   28  O1  UNK     1      23.683  -5.566  39.089  1.00  0.00    -0.274 OA
HETATM   29  C24 UNK     1      21.418  -6.355  39.070  1.00  0.00     0.040 A 
HETATM   30  C22 UNK     1      25.059  -5.748  38.977  1.00  0.00     0.304 A 
HETATM   31  O3  UNK     1      25.839  -4.812  39.106  1.00  0.00    -0.259 OA
HETATM   32  C26 UNK     1      20.498  -7.391  38.932  1.00  0.00     0.026 A 
HETATM   33  C25 UNK     1      20.942  -8.689  38.668  1.00  0.00     0.035 A 
HETATM   34 Cl1  UNK     1      19.801  -9.967  38.498  1.00  0.00    -0.084 Cl
ENDBRANCH  20  23
ENDBRANCH   6  19
TORSDOF 5
ENDMDL
